@<TRIPOS>MOLECULE
[[[3,4-dihydroxy-5-(6-imino-7,8-dihydro-1~{H}-purin-8-ylium-9-yl)tetrahydrofuran-2-yl]methoxy-oxido-phosphoryl]oxy-oxido-phosphoryl] hydrogen phosphate
   45    47     1     0     0
SMALL
USER_CHARGES

@<TRIPOS>ATOM
      1 PG         -0.2757    4.7488   -4.8062 P.3       1 ATP         1.5631
      2 O1G         0.3620    5.3922   -6.0172 O.co2     1 ATP        -0.8806
      3 O2G        -0.9188    5.5908   -3.7267 O.co2     1 ATP        -0.8806
      4 O3G        -1.3631    3.6436   -5.3182 O.3       1 ATP        -0.8165
      5 PB          2.2078    4.0619   -3.3558 P.3       1 ATP         1.6877
      6 O1B         3.1895    4.6079   -4.3686 O.co2     1 ATP        -0.8727
      7 O2B         1.9059    4.8089   -2.0758 O.co2     1 ATP        -0.8727
      8 O3B         0.8001    3.7344   -4.1152 O.3       1 ATP        -0.8330
      9 PA          2.9232    1.2546   -3.9579 P.3       1 ATP         1.6036
     10 O1A         4.1497    1.5454   -4.7954 O.co2     1 ATP        -0.9062
     11 O2A         1.6176    0.8557   -4.6106 O.co2     1 ATP        -0.9062
     12 O3A         2.6393    2.5329   -2.9806 O.3       1 ATP        -0.8166
     13 O5'         3.2903    0.1346   -2.8241 O.3       1 ATP        -0.5510
     14 C5'         2.2816   -0.2918   -1.9206 C.3       1 ATP         0.2099
     15 C4'         2.7248    0.0226   -0.4980 C.3       1 ATP         0.0598
     16 O4'         2.4697    1.4219   -0.2462 O.3       1 ATP        -0.3455
     17 C3'         1.9404   -0.7419    0.5596 C.3       1 ATP         0.0742
     18 O3'         2.7418   -0.8086    1.7389 O.3       1 ATP        -0.6025
     19 C2'         0.7477    0.1630    0.7858 C.3       1 ATP         0.1145
     20 O2'         0.1373   -0.0577    2.0407 O.3       1 ATP        -0.5835
     21 C1'         1.3733    1.5427    0.6747 C.3       1 ATP         0.3776
     22 N9          0.4520    2.5240    0.1767 N.pl3     1 ATP        -0.4429
     23 C8         -0.2004    2.4829   -0.9804 C.ar      1 ATP         0.2964
     24 N7         -0.9830    3.5431   -1.1568 N.pl3     1 ATP        -0.4957
     25 C5         -0.8095    4.3012   -0.0331 C.ar      1 ATP        -0.1346
     26 C6         -1.4065    5.5904    0.3585 C.ar      1 ATP         0.7213
     27 N6         -2.2501    6.2030   -0.4084 N.2       1 ATP        -0.8215
     28 N1         -0.9585    6.0272    1.5994 N.pl3     1 ATP        -0.8455
     29 C2         -0.0508    5.3009    2.3532 C.ar      1 ATP         0.6477
     30 N3          0.4890    4.1592    2.0257 N.2       1 ATP        -0.5707
     31 C4          0.0637    3.7006    0.7995 C.ar      1 ATP         0.2637
     32 HOG3       -1.8652    3.1361   -4.6454 H         1 ATP         0.4378
     33 H5'1        1.3514    0.2330   -2.1577 H         1 ATP         0.0340
     34 H5'2        2.1280   -1.3678   -2.0460 H         1 ATP         0.0340
     35 H4'         3.8044   -0.1397   -0.4040 H         1 ATP         0.0910
     36 H3'         1.6764   -1.7639    0.2728 H         1 ATP         0.0656
     37 HO3'        2.2232   -1.2979    2.3953 H         1 ATP         0.4386
     38 H2'        -0.0011    0.0027    0.0003 H         1 ATP         0.0788
     39 HO2'       -0.6141    0.5574    2.1082 H         1 ATP         0.4363
     40 H1'         1.7826    1.9024    1.6451 H         1 ATP         0.1225
     41 H8         -0.1116    1.6863   -1.6984 H         1 ATP         0.3824
     42 HN62       -2.5420    7.0730    0.0447 H         1 ATP         0.4018
     43 H2          0.1969    5.7893    3.3086 H         1 ATP         0.0652
     44 H44        -1.3097    6.9080    1.9642 H         1 ATP         0.4503
     45 H45        -1.5735    3.7351   -1.9538 H         1 ATP         0.5209
@<TRIPOS>BOND
     1    1    2 2
     2    1    3 1
     3    1    4 1
     4    1    8 1
     5    4   32 1
     6    5    6 2
     7    5    7 1
     8    5    8 1
     9    5   12 1
    10    9   10 2
    11    9   11 1
    12    9   12 1
    13    9   13 1
    14   13   14 1
    15   14   15 1
    16   14   33 1
    17   14   34 1
    18   15   16 1
    19   15   17 1
    20   15   35 1
    21   16   21 1
    22   17   18 1
    23   17   19 1
    24   17   36 1
    25   18   37 1
    26   19   20 1
    27   19   21 1
    28   19   38 1
    29   20   39 1
    30   21   22 1
    31   21   40 1
    32   22   23 ar
    33   22   31 ar
    34   23   24 ar
    35   23   41 1
    36   24   25 ar
    37   24   45 1
    38   25   26 ar
    39   25   31 ar
    40   26   27 2
    41   26   28 ar
    42   27   42 1
    43   28   29 ar
    44   28   44 1
    45   29   30 ar
    46   29   43 1
    47   30   31 ar
@<TRIPOS>SUBSTRUCTURE
     1 ATP         1 GROUP 0 A     ****
@<TRIPOS>MOLECULE
[[[3,4-dihydroxy-5-(6-imino-7,8-dihydro-1~{H}-purin-8-ylium-9-yl)tetrahydrofuran-2-yl]methoxy-oxido-phosphoryl]oxy-oxido-phosphoryl] hydrogen phosphate
   45    47     1     0     0
SMALL
USER_CHARGES

@<TRIPOS>ATOM
      1 PG         -2.5389    2.2171   -5.5128 P.3       1 ATP         1.5631
      2 O1G        -3.2841    1.0017   -6.0179 O.co2     1 ATP        -0.8806
      3 O2G        -2.3573    3.4369   -6.3884 O.co2     1 ATP        -0.8806
      4 O3G        -3.2107    2.6877   -4.1010 O.3       1 ATP        -0.8165
      5 PB          0.2043    1.1390   -5.7491 P.3       1 ATP         1.6877
      6 O1B        -0.1622   -0.2273   -6.2843 O.co2     1 ATP        -0.8727
      7 O2B         0.7640    2.2115   -6.6569 O.co2     1 ATP        -0.8727
      8 O3B        -1.0808    1.7494   -4.9481 O.3       1 ATP        -0.8330
      9 PA          2.7407    0.3769   -4.4297 P.3       1 ATP         1.6036
     10 O1A         3.6422    1.3305   -5.1835 O.co2     1 ATP        -0.9062
     11 O2A         2.7080   -1.0952   -4.7784 O.co2     1 ATP        -0.9062
     12 O3A         1.2115    0.9503   -4.4784 O.3       1 ATP        -0.8166
     13 O5'         3.0213    0.5153   -2.8245 O.3       1 ATP        -0.5510
     14 C5'         2.2816   -0.2918   -1.9206 C.3       1 ATP         0.2099
     15 C4'         2.7248    0.0226   -0.4980 C.3       1 ATP         0.0598
     16 O4'         2.4697    1.4219   -0.2462 O.3       1 ATP        -0.3455
     17 C3'         1.9404   -0.7419    0.5596 C.3       1 ATP         0.0742
     18 O3'         2.7418   -0.8086    1.7389 O.3       1 ATP        -0.6025
     19 C2'         0.7477    0.1630    0.7858 C.3       1 ATP         0.1145
     20 O2'         0.1373   -0.0577    2.0407 O.3       1 ATP        -0.5835
     21 C1'         1.3733    1.5427    0.6747 C.3       1 ATP         0.3776
     22 N9          0.4520    2.5240    0.1767 N.pl3     1 ATP        -0.4429
     23 C8          0.2216    2.8192   -1.0985 C.ar      1 ATP         0.2964
     24 N7         -0.6906    3.7763   -1.2384 N.pl3     1 ATP        -0.4957
     25 C5         -1.0575    4.1037    0.0366 C.ar      1 ATP        -0.1346
     26 C6         -2.0291    5.0943    0.5330 C.ar      1 ATP         0.7213
     27 N6         -2.7093    5.8371   -0.2800 N.2       1 ATP        -0.8215
     28 N1         -2.1051    5.1136    1.9204 N.pl3     1 ATP        -0.8455
     29 C2         -1.3354    4.2774    2.7129 C.ar      1 ATP         0.6477
     30 N3         -0.4707    3.3945    2.2944 N.2       1 ATP        -0.5707
     31 C4         -0.3734    3.3525    0.9220 C.ar      1 ATP         0.2637
     32 HOG3       -2.8356    3.4701   -3.6434 H         1 ATP         0.4378
     33 H5'1        1.2163   -0.0770   -2.0471 H         1 ATP         0.0340
     34 H5'2        2.4655   -1.3443   -2.1563 H         1 ATP         0.0340
     35 H4'         3.8044   -0.1397   -0.4040 H         1 ATP         0.0910
     36 H3'         1.6764   -1.7639    0.2728 H         1 ATP         0.0656
     37 HO3'        2.2232   -1.2979    2.3953 H         1 ATP         0.4386
     38 H2'        -0.0011    0.0027    0.0003 H         1 ATP         0.0788
     39 HO2'       -0.6141    0.5574    2.1082 H         1 ATP         0.4363
     40 H1'         1.7826    1.9024    1.6451 H         1 ATP         0.1225
     41 H8          0.7125    2.3429   -1.9292 H         1 ATP         0.3824
     42 HN62       -3.3217    6.4517    0.2629 H         1 ATP         0.4018
     43 H2         -1.5188    4.4223    3.7890 H         1 ATP         0.0652
     44 H44        -2.7470    5.7626    2.3665 H         1 ATP         0.4503
     45 H45        -1.0305    4.1680   -2.1054 H         1 ATP         0.5209
@<TRIPOS>BOND
     1    1    2 2
     2    1    3 1
     3    1    4 1
     4    1    8 1
     5    4   32 1
     6    5    6 2
     7    5    7 1
     8    5    8 1
     9    5   12 1
    10    9   10 2
    11    9   11 1
    12    9   12 1
    13    9   13 1
    14   13   14 1
    15   14   15 1
    16   14   33 1
    17   14   34 1
    18   15   16 1
    19   15   17 1
    20   15   35 1
    21   16   21 1
    22   17   18 1
    23   17   19 1
    24   17   36 1
    25   18   37 1
    26   19   20 1
    27   19   21 1
    28   19   38 1
    29   20   39 1
    30   21   22 1
    31   21   40 1
    32   22   23 ar
    33   22   31 ar
    34   23   24 ar
    35   23   41 1
    36   24   25 ar
    37   24   45 1
    38   25   26 ar
    39   25   31 ar
    40   26   27 2
    41   26   28 ar
    42   27   42 1
    43   28   29 ar
    44   28   44 1
    45   29   30 ar
    46   29   43 1
    47   30   31 ar
@<TRIPOS>SUBSTRUCTURE
     1 ATP         1 GROUP 0 A     ****
@<TRIPOS>MOLECULE
[[[3,4-dihydroxy-5-(6-imino-7,8-dihydro-1~{H}-purin-8-ylium-9-yl)tetrahydrofuran-2-yl]methoxy-oxido-phosphoryl]oxy-oxido-phosphoryl] hydrogen phosphate
   45    47     1     0     0
SMALL
USER_CHARGES

@<TRIPOS>ATOM
      1 PG         -1.9677    1.0974   -3.7431 P.3       1 ATP         1.5631
      2 O1G        -1.1057    0.9794   -2.5059 O.co2     1 ATP        -0.8806
      3 O2G        -2.7227   -0.0975   -4.2813 O.co2     1 ATP        -0.8806
      4 O3G        -3.0245    2.3226   -3.5239 O.3       1 ATP        -0.8165
      5 PB          0.2043    1.1390   -5.7491 P.3       1 ATP         1.6877
      6 O1B        -0.1622   -0.2273   -6.2843 O.co2     1 ATP        -0.8727
      7 O2B         0.7640    2.2115   -6.6569 O.co2     1 ATP        -0.8727
      8 O3B        -1.0808    1.7494   -4.9481 O.3       1 ATP        -0.8330
      9 PA          2.7407    0.3769   -4.4297 P.3       1 ATP         1.6036
     10 O1A         3.6422    1.3305   -5.1835 O.co2     1 ATP        -0.9062
     11 O2A         2.7080   -1.0952   -4.7784 O.co2     1 ATP        -0.9062
     12 O3A         1.2115    0.9503   -4.4784 O.3       1 ATP        -0.8166
     13 O5'         3.0213    0.5153   -2.8245 O.3       1 ATP        -0.5510
     14 C5'         2.2816   -0.2918   -1.9206 C.3       1 ATP         0.2099
     15 C4'         2.7248    0.0226   -0.4980 C.3       1 ATP         0.0598
     16 O4'         2.4697    1.4219   -0.2462 O.3       1 ATP        -0.3455
     17 C3'         1.9404   -0.7419    0.5596 C.3       1 ATP         0.0742
     18 O3'         2.7418   -0.8086    1.7389 O.3       1 ATP        -0.6025
     19 C2'         0.7477    0.1630    0.7858 C.3       1 ATP         0.1145
     20 O2'         0.1373   -0.0577    2.0407 O.3       1 ATP        -0.5835
     21 C1'         1.3733    1.5427    0.6747 C.3       1 ATP         0.3776
     22 N9          0.4520    2.5240    0.1767 N.pl3     1 ATP        -0.4429
     23 C8         -0.6821    2.9098    0.7521 C.ar      1 ATP         0.2964
     24 N7         -1.3175    3.8384    0.0437 N.pl3     1 ATP        -0.4957
     25 C5         -0.5274    4.0494   -1.0512 C.ar      1 ATP        -0.1346
     26 C6         -0.6966    4.9597   -2.1977 C.ar      1 ATP         0.7213
     27 N6         -1.7259    5.7385   -2.2937 N.2       1 ATP        -0.8215
     28 N1          0.3493    4.8663   -3.1079 N.pl3     1 ATP        -0.8455
     29 C2          1.4148    4.0005   -2.9208 C.ar      1 ATP         0.6477
     30 N3          1.5838    3.1876   -1.9144 N.2       1 ATP        -0.5707
     31 C4          0.5619    3.2578   -0.9949 C.ar      1 ATP         0.2637
     32 HOG3       -3.6581    2.5272   -4.2443 H         1 ATP         0.4378
     33 H5'1        1.2163   -0.0770   -2.0471 H         1 ATP         0.0340
     34 H5'2        2.4655   -1.3443   -2.1563 H         1 ATP         0.0340
     35 H4'         3.8044   -0.1397   -0.4040 H         1 ATP         0.0910
     36 H3'         1.6764   -1.7639    0.2728 H         1 ATP         0.0656
     37 HO3'        2.2232   -1.2979    2.3953 H         1 ATP         0.4386
     38 H2'        -0.0011    0.0027    0.0003 H         1 ATP         0.0788
     39 HO2'       -0.1563   -0.9855    2.0596 H         1 ATP         0.4363
     40 H1'         1.7826    1.9024    1.6451 H         1 ATP         0.1225
     41 H8         -1.0516    2.5207    1.6849 H         1 ATP         0.3824
     42 HN62       -1.6520    6.2842   -3.1564 H         1 ATP         0.4018
     43 H2          2.1542    4.0525   -3.7351 H         1 ATP         0.0652
     44 H44         0.3306    5.4533   -3.9370 H         1 ATP         0.4503
     45 H45        -2.1941    4.2838    0.2756 H         1 ATP         0.5209
@<TRIPOS>BOND
     1    1    2 2
     2    1    3 1
     3    1    4 1
     4    1    8 1
     5    4   32 1
     6    5    6 2
     7    5    7 1
     8    5    8 1
     9    5   12 1
    10    9   10 2
    11    9   11 1
    12    9   12 1
    13    9   13 1
    14   13   14 1
    15   14   15 1
    16   14   33 1
    17   14   34 1
    18   15   16 1
    19   15   17 1
    20   15   35 1
    21   16   21 1
    22   17   18 1
    23   17   19 1
    24   17   36 1
    25   18   37 1
    26   19   20 1
    27   19   21 1
    28   19   38 1
    29   20   39 1
    30   21   22 1
    31   21   40 1
    32   22   23 ar
    33   22   31 ar
    34   23   24 ar
    35   23   41 1
    36   24   25 ar
    37   24   45 1
    38   25   26 ar
    39   25   31 ar
    40   26   27 2
    41   26   28 ar
    42   27   42 1
    43   28   29 ar
    44   28   44 1
    45   29   30 ar
    46   29   43 1
    47   30   31 ar
@<TRIPOS>SUBSTRUCTURE
     1 ATP         1 GROUP 0 A     ****
@<TRIPOS>MOLECULE
[[[3,4-dihydroxy-5-(6-imino-7,8-dihydro-1~{H}-purin-8-ylium-9-yl)tetrahydrofuran-2-yl]methoxy-oxido-phosphoryl]oxy-oxido-phosphoryl] hydrogen phosphate
   45    47     1     0     0
SMALL
USER_CHARGES

@<TRIPOS>ATOM
      1 PG          1.7625    6.1754   -1.3363 P.3       1 ATP         1.5631
      2 O1G         2.0042    6.2684    0.1538 O.co2     1 ATP        -0.8806
      3 O2G         0.4331    6.5782   -1.9348 O.co2     1 ATP        -0.8806
      4 O3G         2.9469    6.9943   -2.1060 O.3       1 ATP        -0.8165
      5 PB          2.2078    4.0619   -3.3558 P.3       1 ATP         1.6877
      6 O1B         0.8120    4.0428   -3.9378 O.co2     1 ATP        -0.8727
      7 O2B         3.3534    4.7232   -4.0892 O.co2     1 ATP        -0.8727
      8 O3B         2.1354    4.6691   -1.8420 O.3       1 ATP        -0.8330
      9 PA          2.9232    1.2546   -3.9579 P.3       1 ATP         1.6036
     10 O1A         4.1497    1.5454   -4.7954 O.co2     1 ATP        -0.9062
     11 O2A         1.6176    0.8557   -4.6106 O.co2     1 ATP        -0.9062
     12 O3A         2.6393    2.5329   -2.9806 O.3       1 ATP        -0.8166
     13 O5'         3.2903    0.1346   -2.8241 O.3       1 ATP        -0.5510
     14 C5'         2.2816   -0.2918   -1.9206 C.3       1 ATP         0.2099
     15 C4'         2.7248    0.0226   -0.4980 C.3       1 ATP         0.0598
     16 O4'         2.4697    1.4219   -0.2462 O.3       1 ATP        -0.3455
     17 C3'         1.9404   -0.7419    0.5596 C.3       1 ATP         0.0742
     18 O3'         2.7418   -0.8086    1.7389 O.3       1 ATP        -0.6025
     19 C2'         0.7477    0.1630    0.7858 C.3       1 ATP         0.1145
     20 O2'         0.1373   -0.0577    2.0407 O.3       1 ATP        -0.5835
     21 C1'         1.3733    1.5427    0.6747 C.3       1 ATP         0.3776
     22 N9          0.4520    2.5240    0.1767 N.pl3     1 ATP        -0.4429
     23 C8         -0.2004    2.4829   -0.9804 C.ar      1 ATP         0.2964
     24 N7         -0.9830    3.5431   -1.1568 N.pl3     1 ATP        -0.4957
     25 C5         -0.8095    4.3012   -0.0331 C.ar      1 ATP        -0.1346
     26 C6         -1.4065    5.5904    0.3585 C.ar      1 ATP         0.7213
     27 N6         -2.2501    6.2030   -0.4084 N.2       1 ATP        -0.8215
     28 N1         -0.9585    6.0272    1.5994 N.pl3     1 ATP        -0.8455
     29 C2         -0.0508    5.3009    2.3532 C.ar      1 ATP         0.6477
     30 N3          0.4890    4.1592    2.0257 N.2       1 ATP        -0.5707
     31 C4          0.0637    3.7006    0.7995 C.ar      1 ATP         0.2637
     32 HOG3        2.9305    7.0276   -3.0862 H         1 ATP         0.4378
     33 H5'1        1.3514    0.2330   -2.1577 H         1 ATP         0.0340
     34 H5'2        2.1280   -1.3678   -2.0460 H         1 ATP         0.0340
     35 H4'         3.8044   -0.1397   -0.4040 H         1 ATP         0.0910
     36 H3'         1.6764   -1.7639    0.2728 H         1 ATP         0.0656
     37 HO3'        2.2232   -1.2979    2.3953 H         1 ATP         0.4386
     38 H2'        -0.0011    0.0027    0.0003 H         1 ATP         0.0788
     39 HO2'       -0.6141    0.5574    2.1082 H         1 ATP         0.4363
     40 H1'         1.7826    1.9024    1.6451 H         1 ATP         0.1225
     41 H8         -0.1116    1.6863   -1.6984 H         1 ATP         0.3824
     42 HN62       -2.5420    7.0730    0.0447 H         1 ATP         0.4018
     43 H2          0.1969    5.7893    3.3086 H         1 ATP         0.0652
     44 H44        -1.3097    6.9080    1.9642 H         1 ATP         0.4503
     45 H45        -1.5735    3.7351   -1.9538 H         1 ATP         0.5209
@<TRIPOS>BOND
     1    1    2 2
     2    1    3 1
     3    1    4 1
     4    1    8 1
     5    4   32 1
     6    5    6 2
     7    5    7 1
     8    5    8 1
     9    5   12 1
    10    9   10 2
    11    9   11 1
    12    9   12 1
    13    9   13 1
    14   13   14 1
    15   14   15 1
    16   14   33 1
    17   14   34 1
    18   15   16 1
    19   15   17 1
    20   15   35 1
    21   16   21 1
    22   17   18 1
    23   17   19 1
    24   17   36 1
    25   18   37 1
    26   19   20 1
    27   19   21 1
    28   19   38 1
    29   20   39 1
    30   21   22 1
    31   21   40 1
    32   22   23 ar
    33   22   31 ar
    34   23   24 ar
    35   23   41 1
    36   24   25 ar
    37   24   45 1
    38   25   26 ar
    39   25   31 ar
    40   26   27 2
    41   26   28 ar
    42   27   42 1
    43   28   29 ar
    44   28   44 1
    45   29   30 ar
    46   29   43 1
    47   30   31 ar
@<TRIPOS>SUBSTRUCTURE
     1 ATP         1 GROUP 0 A     ****
@<TRIPOS>MOLECULE
[[[3,4-dihydroxy-5-(6-imino-7,8-dihydro-1~{H}-purin-8-ylium-9-yl)tetrahydrofuran-2-yl]methoxy-oxido-phosphoryl]oxy-oxido-phosphoryl] hydrogen phosphate
   45    47     1     0     0
SMALL
USER_CHARGES

@<TRIPOS>ATOM
      1 PG          3.9816   -4.2728   -4.3984 P.3       1 ATP         1.5631
      2 O1G         2.5265   -3.9545   -4.6603 O.co2     1 ATP        -0.8806
      3 O2G         4.4603   -4.6356   -3.0102 O.co2     1 ATP        -0.8806
      4 O3G         4.4498   -5.4472   -5.4316 O.3       1 ATP        -0.8165
      5 PB          5.0227   -1.5062   -4.4736 P.3       1 ATP         1.6877
      6 O1B         5.3188   -1.4975   -2.9904 O.co2     1 ATP        -0.8727
      7 O2B         5.8921   -0.7462   -5.4504 O.co2     1 ATP        -0.8727
      8 O3B         4.9037   -3.0555   -4.9745 O.3       1 ATP        -0.8330
      9 PA          2.7407    0.3769   -4.4297 P.3       1 ATP         1.6036
     10 O1A         1.2546    0.2227   -4.6707 O.co2     1 ATP        -0.9062
     11 O2A         3.5325    1.4517   -5.1421 O.co2     1 ATP        -0.9062
     12 O3A         3.4685   -1.0610   -4.6995 O.3       1 ATP        -0.8166
     13 O5'         3.0213    0.5153   -2.8245 O.3       1 ATP        -0.5510
     14 C5'         2.2816   -0.2918   -1.9206 C.3       1 ATP         0.2099
     15 C4'         2.7248    0.0226   -0.4980 C.3       1 ATP         0.0598
     16 O4'         2.4697    1.4219   -0.2462 O.3       1 ATP        -0.3455
     17 C3'         1.9404   -0.7419    0.5596 C.3       1 ATP         0.0742
     18 O3'         2.7418   -0.8086    1.7389 O.3       1 ATP        -0.6025
     19 C2'         0.7477    0.1630    0.7858 C.3       1 ATP         0.1145
     20 O2'         0.1373   -0.0577    2.0407 O.3       1 ATP        -0.5835
     21 C1'         1.3733    1.5427    0.6747 C.3       1 ATP         0.3776
     22 N9          0.4520    2.5240    0.1767 N.pl3     1 ATP        -0.4429
     23 C8          0.2216    2.8192   -1.0985 C.ar      1 ATP         0.2964
     24 N7         -0.6906    3.7763   -1.2384 N.pl3     1 ATP        -0.4957
     25 C5         -1.0575    4.1037    0.0366 C.ar      1 ATP        -0.1346
     26 C6         -2.0291    5.0943    0.5330 C.ar      1 ATP         0.7213
     27 N6         -2.7093    5.8371   -0.2800 N.2       1 ATP        -0.8215
     28 N1         -2.1051    5.1136    1.9204 N.pl3     1 ATP        -0.8455
     29 C2         -1.3354    4.2774    2.7129 C.ar      1 ATP         0.6477
     30 N3         -0.4707    3.3945    2.2944 N.2       1 ATP        -0.5707
     31 C4         -0.3734    3.3525    0.9220 C.ar      1 ATP         0.2637
     32 HOG3        5.3762   -5.7666   -5.3866 H         1 ATP         0.4378
     33 H5'1        1.2163   -0.0770   -2.0471 H         1 ATP         0.0340
     34 H5'2        2.4655   -1.3443   -2.1563 H         1 ATP         0.0340
     35 H4'         3.8044   -0.1397   -0.4040 H         1 ATP         0.0910
     36 H3'         1.6764   -1.7639    0.2728 H         1 ATP         0.0656
     37 HO3'        2.2232   -1.2979    2.3953 H         1 ATP         0.4386
     38 H2'        -0.0011    0.0027    0.0003 H         1 ATP         0.0788
     39 HO2'       -0.6141    0.5574    2.1082 H         1 ATP         0.4363
     40 H1'         1.7826    1.9024    1.6451 H         1 ATP         0.1225
     41 H8          0.7125    2.3429   -1.9292 H         1 ATP         0.3824
     42 HN62       -3.3217    6.4517    0.2629 H         1 ATP         0.4018
     43 H2         -1.5188    4.4223    3.7890 H         1 ATP         0.0652
     44 H44        -2.7470    5.7626    2.3665 H         1 ATP         0.4503
     45 H45        -1.0305    4.1680   -2.1054 H         1 ATP         0.5209
@<TRIPOS>BOND
     1    1    2 2
     2    1    3 1
     3    1    4 1
     4    1    8 1
     5    4   32 1
     6    5    6 2
     7    5    7 1
     8    5    8 1
     9    5   12 1
    10    9   10 2
    11    9   11 1
    12    9   12 1
    13    9   13 1
    14   13   14 1
    15   14   15 1
    16   14   33 1
    17   14   34 1
    18   15   16 1
    19   15   17 1
    20   15   35 1
    21   16   21 1
    22   17   18 1
    23   17   19 1
    24   17   36 1
    25   18   37 1
    26   19   20 1
    27   19   21 1
    28   19   38 1
    29   20   39 1
    30   21   22 1
    31   21   40 1
    32   22   23 ar
    33   22   31 ar
    34   23   24 ar
    35   23   41 1
    36   24   25 ar
    37   24   45 1
    38   25   26 ar
    39   25   31 ar
    40   26   27 2
    41   26   28 ar
    42   27   42 1
    43   28   29 ar
    44   28   44 1
    45   29   30 ar
    46   29   43 1
    47   30   31 ar
@<TRIPOS>SUBSTRUCTURE
     1 ATP         1 GROUP 0 A     ****
@<TRIPOS>MOLECULE
[[[3,4-dihydroxy-5-(6-imino-7,8-dihydro-1~{H}-purin-8-ylium-9-yl)tetrahydrofuran-2-yl]methoxy-oxido-phosphoryl]oxy-oxido-phosphoryl] hydrogen phosphate
   45    47     1     0     0
SMALL
USER_CHARGES

@<TRIPOS>ATOM
      1 PG         -0.6860   -1.0927   -7.4727 P.3       1 ATP         1.5631
      2 O1G        -0.1030   -0.5940   -8.7761 O.co2     1 ATP        -0.8806
      3 O2G        -2.1691   -0.9891   -7.1946 O.co2     1 ATP        -0.8806
      4 O3G        -0.2255   -2.6445   -7.2586 O.3       1 ATP        -0.8165
      5 PB          0.2043    1.1390   -5.7491 P.3       1 ATP         1.6877
      6 O1B         0.9135    1.9450   -6.8144 O.co2     1 ATP        -0.8727
      7 O2B        -1.1568    1.5491   -5.2328 O.co2     1 ATP        -0.8727
      8 O3B         0.1332   -0.4190   -6.2322 O.3       1 ATP        -0.8330
      9 PA          2.7407    0.3769   -4.4297 P.3       1 ATP         1.6036
     10 O1A         3.6422    1.3305   -5.1835 O.co2     1 ATP        -0.9062
     11 O2A         2.7080   -1.0952   -4.7784 O.co2     1 ATP        -0.9062
     12 O3A         1.2115    0.9503   -4.4784 O.3       1 ATP        -0.8166
     13 O5'         3.0213    0.5153   -2.8245 O.3       1 ATP        -0.5510
     14 C5'         2.2816   -0.2918   -1.9206 C.3       1 ATP         0.2099
     15 C4'         2.7248    0.0226   -0.4980 C.3       1 ATP         0.0598
     16 O4'         2.4697    1.4219   -0.2462 O.3       1 ATP        -0.3455
     17 C3'         1.9404   -0.7419    0.5596 C.3       1 ATP         0.0742
     18 O3'         2.7418   -0.8086    1.7389 O.3       1 ATP        -0.6025
     19 C2'         0.7477    0.1630    0.7858 C.3       1 ATP         0.1145
     20 O2'         0.1373   -0.0577    2.0407 O.3       1 ATP        -0.5835
     21 C1'         1.3733    1.5427    0.6747 C.3       1 ATP         0.3776
     22 N9          0.4520    2.5240    0.1767 N.pl3     1 ATP        -0.4429
     23 C8          0.2216    2.8192   -1.0985 C.ar      1 ATP         0.2964
     24 N7         -0.6906    3.7763   -1.2384 N.pl3     1 ATP        -0.4957
     25 C5         -1.0575    4.1037    0.0366 C.ar      1 ATP        -0.1346
     26 C6         -2.0291    5.0943    0.5330 C.ar      1 ATP         0.7213
     27 N6         -2.7093    5.8371   -0.2800 N.2       1 ATP        -0.8215
     28 N1         -2.1051    5.1136    1.9204 N.pl3     1 ATP        -0.8455
     29 C2         -1.3354    4.2774    2.7129 C.ar      1 ATP         0.6477
     30 N3         -0.4707    3.3945    2.2944 N.2       1 ATP        -0.5707
     31 C4         -0.3734    3.3525    0.9220 C.ar      1 ATP         0.2637
     32 HOG3       -0.5261   -3.1135   -6.4512 H         1 ATP         0.4378
     33 H5'1        1.2163   -0.0770   -2.0471 H         1 ATP         0.0340
     34 H5'2        2.4655   -1.3443   -2.1563 H         1 ATP         0.0340
     35 H4'         3.8044   -0.1397   -0.4040 H         1 ATP         0.0910
     36 H3'         1.6764   -1.7639    0.2728 H         1 ATP         0.0656
     37 HO3'        2.2232   -1.2979    2.3953 H         1 ATP         0.4386
     38 H2'        -0.0011    0.0027    0.0003 H         1 ATP         0.0788
     39 HO2'       -0.6141    0.5574    2.1082 H         1 ATP         0.4363
     40 H1'         1.7826    1.9024    1.6451 H         1 ATP         0.1225
     41 H8          0.7125    2.3429   -1.9292 H         1 ATP         0.3824
     42 HN62       -3.3217    6.4517    0.2629 H         1 ATP         0.4018
     43 H2         -1.5188    4.4223    3.7890 H         1 ATP         0.0652
     44 H44        -2.7470    5.7626    2.3665 H         1 ATP         0.4503
     45 H45        -1.0305    4.1680   -2.1054 H         1 ATP         0.5209
@<TRIPOS>BOND
     1    1    2 2
     2    1    3 1
     3    1    4 1
     4    1    8 1
     5    4   32 1
     6    5    6 2
     7    5    7 1
     8    5    8 1
     9    5   12 1
    10    9   10 2
    11    9   11 1
    12    9   12 1
    13    9   13 1
    14   13   14 1
    15   14   15 1
    16   14   33 1
    17   14   34 1
    18   15   16 1
    19   15   17 1
    20   15   35 1
    21   16   21 1
    22   17   18 1
    23   17   19 1
    24   17   36 1
    25   18   37 1
    26   19   20 1
    27   19   21 1
    28   19   38 1
    29   20   39 1
    30   21   22 1
    31   21   40 1
    32   22   23 ar
    33   22   31 ar
    34   23   24 ar
    35   23   41 1
    36   24   25 ar
    37   24   45 1
    38   25   26 ar
    39   25   31 ar
    40   26   27 2
    41   26   28 ar
    42   27   42 1
    43   28   29 ar
    44   28   44 1
    45   29   30 ar
    46   29   43 1
    47   30   31 ar
@<TRIPOS>SUBSTRUCTURE
     1 ATP         1 GROUP 0 A     ****
@<TRIPOS>MOLECULE
[[[3,4-dihydroxy-5-(6-imino-7,8-dihydro-1~{H}-purin-8-ylium-9-yl)tetrahydrofuran-2-yl]methoxy-oxido-phosphoryl]oxy-oxido-phosphoryl] hydrogen phosphate
   45    47     1     0     0
SMALL
USER_CHARGES

@<TRIPOS>ATOM
      1 PG         -1.9677    1.0974   -3.7431 P.3       1 ATP         1.5631
      2 O1G        -1.1057    0.9794   -2.5059 O.co2     1 ATP        -0.8806
      3 O2G        -2.7227   -0.0975   -4.2813 O.co2     1 ATP        -0.8806
      4 O3G        -3.0245    2.3226   -3.5239 O.3       1 ATP        -0.8165
      5 PB          0.2043    1.1390   -5.7491 P.3       1 ATP         1.6877
      6 O1B        -0.1622   -0.2273   -6.2843 O.co2     1 ATP        -0.8727
      7 O2B         0.7640    2.2115   -6.6569 O.co2     1 ATP        -0.8727
      8 O3B        -1.0808    1.7494   -4.9481 O.3       1 ATP        -0.8330
      9 PA          2.7407    0.3769   -4.4297 P.3       1 ATP         1.6036
     10 O1A         3.6422    1.3305   -5.1835 O.co2     1 ATP        -0.9062
     11 O2A         2.7080   -1.0952   -4.7784 O.co2     1 ATP        -0.9062
     12 O3A         1.2115    0.9503   -4.4784 O.3       1 ATP        -0.8166
     13 O5'         3.0213    0.5153   -2.8245 O.3       1 ATP        -0.5510
     14 C5'         2.2816   -0.2918   -1.9206 C.3       1 ATP         0.2099
     15 C4'         2.7248    0.0226   -0.4980 C.3       1 ATP         0.0598
     16 O4'         2.4697    1.4219   -0.2462 O.3       1 ATP        -0.3455
     17 C3'         1.9404   -0.7419    0.5596 C.3       1 ATP         0.0742
     18 O3'         2.7418   -0.8086    1.7389 O.3       1 ATP        -0.6025
     19 C2'         0.7477    0.1630    0.7858 C.3       1 ATP         0.1145
     20 O2'         0.1373   -0.0577    2.0407 O.3       1 ATP        -0.5835
     21 C1'         1.3733    1.5427    0.6747 C.3       1 ATP         0.3776
     22 N9          0.4520    2.5240    0.1767 N.pl3     1 ATP        -0.4429
     23 C8          0.5691    3.2215   -0.9485 C.ar      1 ATP         0.2964
     24 N7         -0.4499    4.0551   -1.1342 N.pl3     1 ATP        -0.4957
     25 C5         -1.2618    3.8674   -0.0512 C.ar      1 ATP        -0.1346
     26 C6         -2.5420    4.5007    0.3120 C.ar      1 ATP         0.7213
     27 N6         -3.0874    5.3993   -0.4432 N.2       1 ATP        -0.8215
     28 N1         -3.0494    4.0205    1.5133 N.pl3     1 ATP        -0.8455
     29 C2         -2.3933    3.0527    2.2567 C.ar      1 ATP         0.6477
     30 N3         -1.2611    2.4796    1.9536 N.2       1 ATP        -0.5707
     31 C4         -0.7334    2.9358    0.7669 C.ar      1 ATP         0.2637
     32 HOG3       -3.6581    2.5272   -4.2443 H         1 ATP         0.4378
     33 H5'1        1.2163   -0.0770   -2.0471 H         1 ATP         0.0340
     34 H5'2        2.4655   -1.3443   -2.1563 H         1 ATP         0.0340
     35 H4'         3.8044   -0.1397   -0.4040 H         1 ATP         0.0910
     36 H3'         1.6764   -1.7639    0.2728 H         1 ATP         0.0656
     37 HO3'        2.2232   -1.2979    2.3953 H         1 ATP         0.4386
     38 H2'        -0.0011    0.0027    0.0003 H         1 ATP         0.0788
     39 HO2'       -0.1563   -0.9855    2.0596 H         1 ATP         0.4363
     40 H1'         1.7826    1.9024    1.6451 H         1 ATP         0.1225
     41 H8          1.3912    3.1285   -1.6365 H         1 ATP         0.3824
     42 HN62       -3.9637    5.7083   -0.0142 H         1 ATP         0.4018
     43 H2         -2.9317    2.7866    3.1796 H         1 ATP         0.0652
     44 H44        -3.9307    4.3923    1.8558 H         1 ATP         0.4503
     45 H45        -0.5835    4.6857   -1.9122 H         1 ATP         0.5209
@<TRIPOS>BOND
     1    1    2 2
     2    1    3 1
     3    1    4 1
     4    1    8 1
     5    4   32 1
     6    5    6 2
     7    5    7 1
     8    5    8 1
     9    5   12 1
    10    9   10 2
    11    9   11 1
    12    9   12 1
    13    9   13 1
    14   13   14 1
    15   14   15 1
    16   14   33 1
    17   14   34 1
    18   15   16 1
    19   15   17 1
    20   15   35 1
    21   16   21 1
    22   17   18 1
    23   17   19 1
    24   17   36 1
    25   18   37 1
    26   19   20 1
    27   19   21 1
    28   19   38 1
    29   20   39 1
    30   21   22 1
    31   21   40 1
    32   22   23 ar
    33   22   31 ar
    34   23   24 ar
    35   23   41 1
    36   24   25 ar
    37   24   45 1
    38   25   26 ar
    39   25   31 ar
    40   26   27 2
    41   26   28 ar
    42   27   42 1
    43   28   29 ar
    44   28   44 1
    45   29   30 ar
    46   29   43 1
    47   30   31 ar
@<TRIPOS>SUBSTRUCTURE
     1 ATP         1 GROUP 0 A     ****
@<TRIPOS>MOLECULE
[[[3,4-dihydroxy-5-(6-imino-7,8-dihydro-1~{H}-purin-8-ylium-9-yl)tetrahydrofuran-2-yl]methoxy-oxido-phosphoryl]oxy-oxido-phosphoryl] hydrogen phosphate
   45    47     1     0     0
SMALL
USER_CHARGES

@<TRIPOS>ATOM
      1 PG          0.8149    2.8586   -8.0758 P.3       1 ATP         1.5631
      2 O1G        -0.3417    3.8223   -7.9313 O.co2     1 ATP        -0.8806
      3 O2G         0.8013    1.7815   -9.1376 O.co2     1 ATP        -0.8806
      4 O3G         2.1926    3.7213   -8.2302 O.3       1 ATP        -0.8165
      5 PB          0.2043    1.1390   -5.7491 P.3       1 ATP         1.6877
      6 O1B        -1.0358    1.8673   -5.2810 O.co2     1 ATP        -0.8727
      7 O2B         0.1076   -0.1755   -6.4910 O.co2     1 ATP        -0.8727
      8 O3B         1.1165    2.1697   -6.6273 O.3       1 ATP        -0.8330
      9 PA          2.7407    0.3769   -4.4297 P.3       1 ATP         1.6036
     10 O1A         3.6422    1.3305   -5.1835 O.co2     1 ATP        -0.9062
     11 O2A         2.7080   -1.0952   -4.7784 O.co2     1 ATP        -0.9062
     12 O3A         1.2115    0.9503   -4.4784 O.3       1 ATP        -0.8166
     13 O5'         3.0213    0.5153   -2.8245 O.3       1 ATP        -0.5510
     14 C5'         2.2816   -0.2918   -1.9206 C.3       1 ATP         0.2099
     15 C4'         2.7248    0.0226   -0.4980 C.3       1 ATP         0.0598
     16 O4'         2.4697    1.4219   -0.2462 O.3       1 ATP        -0.3455
     17 C3'         1.9404   -0.7419    0.5596 C.3       1 ATP         0.0742
     18 O3'         2.7418   -0.8086    1.7389 O.3       1 ATP        -0.6025
     19 C2'         0.7477    0.1630    0.7858 C.3       1 ATP         0.1145
     20 O2'         0.1373   -0.0577    2.0407 O.3       1 ATP        -0.5835
     21 C1'         1.3733    1.5427    0.6747 C.3       1 ATP         0.3776
     22 N9          0.4520    2.5240    0.1767 N.pl3     1 ATP        -0.4429
     23 C8          0.2216    2.8192   -1.0985 C.ar      1 ATP         0.2964
     24 N7         -0.6906    3.7763   -1.2384 N.pl3     1 ATP        -0.4957
     25 C5         -1.0575    4.1037    0.0366 C.ar      1 ATP        -0.1346
     26 C6         -2.0291    5.0943    0.5330 C.ar      1 ATP         0.7213
     27 N6         -2.7093    5.8371   -0.2800 N.2       1 ATP        -0.8215
     28 N1         -2.1051    5.1136    1.9204 N.pl3     1 ATP        -0.8455
     29 C2         -1.3354    4.2774    2.7129 C.ar      1 ATP         0.6477
     30 N3         -0.4707    3.3945    2.2944 N.2       1 ATP        -0.5707
     31 C4         -0.3734    3.3525    0.9220 C.ar      1 ATP         0.2637
     32 HOG3        3.0385    3.2356   -8.3340 H         1 ATP         0.4378
     33 H5'1        1.2163   -0.0770   -2.0471 H         1 ATP         0.0340
     34 H5'2        2.4655   -1.3443   -2.1563 H         1 ATP         0.0340
     35 H4'         3.8044   -0.1397   -0.4040 H         1 ATP         0.0910
     36 H3'         1.6764   -1.7639    0.2728 H         1 ATP         0.0656
     37 HO3'        2.2232   -1.2979    2.3953 H         1 ATP         0.4386
     38 H2'        -0.0011    0.0027    0.0003 H         1 ATP         0.0788
     39 HO2'       -0.6141    0.5574    2.1082 H         1 ATP         0.4363
     40 H1'         1.7826    1.9024    1.6451 H         1 ATP         0.1225
     41 H8          0.7125    2.3429   -1.9292 H         1 ATP         0.3824
     42 HN62       -3.3217    6.4517    0.2629 H         1 ATP         0.4018
     43 H2         -1.5188    4.4223    3.7890 H         1 ATP         0.0652
     44 H44        -2.7470    5.7626    2.3665 H         1 ATP         0.4503
     45 H45        -1.0305    4.1680   -2.1054 H         1 ATP         0.5209
@<TRIPOS>BOND
     1    1    2 2
     2    1    3 1
     3    1    4 1
     4    1    8 1
     5    4   32 1
     6    5    6 2
     7    5    7 1
     8    5    8 1
     9    5   12 1
    10    9   10 2
    11    9   11 1
    12    9   12 1
    13    9   13 1
    14   13   14 1
    15   14   15 1
    16   14   33 1
    17   14   34 1
    18   15   16 1
    19   15   17 1
    20   15   35 1
    21   16   21 1
    22   17   18 1
    23   17   19 1
    24   17   36 1
    25   18   37 1
    26   19   20 1
    27   19   21 1
    28   19   38 1
    29   20   39 1
    30   21   22 1
    31   21   40 1
    32   22   23 ar
    33   22   31 ar
    34   23   24 ar
    35   23   41 1
    36   24   25 ar
    37   24   45 1
    38   25   26 ar
    39   25   31 ar
    40   26   27 2
    41   26   28 ar
    42   27   42 1
    43   28   29 ar
    44   28   44 1
    45   29   30 ar
    46   29   43 1
    47   30   31 ar
@<TRIPOS>SUBSTRUCTURE
     1 ATP         1 GROUP 0 A     ****
@<TRIPOS>MOLECULE
[[[3,4-dihydroxy-5-(6-imino-7,8-dihydro-1~{H}-purin-8-ylium-9-yl)tetrahydrofuran-2-yl]methoxy-oxido-phosphoryl]oxy-oxido-phosphoryl] hydrogen phosphate
   45    47     1     0     0
SMALL
USER_CHARGES

@<TRIPOS>ATOM
      1 PG          3.8420    5.8505   -5.0511 P.3       1 ATP         1.5631
      2 O1G         4.0949    6.9340   -4.0266 O.co2     1 ATP        -0.8806
      3 O2G         2.8386    6.0527   -6.1647 O.co2     1 ATP        -0.8806
      4 O3G         5.2708    5.4186   -5.7128 O.3       1 ATP        -0.8165
      5 PB          2.2078    4.0619   -3.3558 P.3       1 ATP         1.6877
      6 O1B         2.2377    4.8972   -2.0953 O.co2     1 ATP        -0.8727
      7 O2B         0.9794    4.0171   -4.2370 O.co2     1 ATP        -0.8727
      8 O3B         3.4978    4.4562   -4.2757 O.3       1 ATP        -0.8330
      9 PA          2.9232    1.2546   -3.9579 P.3       1 ATP         1.6036
     10 O1A         4.1497    1.5454   -4.7954 O.co2     1 ATP        -0.9062
     11 O2A         1.6176    0.8557   -4.6106 O.co2     1 ATP        -0.9062
     12 O3A         2.6393    2.5329   -2.9806 O.3       1 ATP        -0.8166
     13 O5'         3.2903    0.1346   -2.8241 O.3       1 ATP        -0.5510
     14 C5'         2.2816   -0.2918   -1.9206 C.3       1 ATP         0.2099
     15 C4'         2.7248    0.0226   -0.4980 C.3       1 ATP         0.0598
     16 O4'         2.4697    1.4219   -0.2462 O.3       1 ATP        -0.3455
     17 C3'         1.9404   -0.7419    0.5596 C.3       1 ATP         0.0742
     18 O3'         2.7418   -0.8086    1.7389 O.3       1 ATP        -0.6025
     19 C2'         0.7477    0.1630    0.7858 C.3       1 ATP         0.1145
     20 O2'         0.1373   -0.0577    2.0407 O.3       1 ATP        -0.5835
     21 C1'         1.3733    1.5427    0.6747 C.3       1 ATP         0.3776
     22 N9          0.4520    2.5240    0.1767 N.pl3     1 ATP        -0.4429
     23 C8         -0.2004    2.4829   -0.9804 C.ar      1 ATP         0.2964
     24 N7         -0.9830    3.5431   -1.1568 N.pl3     1 ATP        -0.4957
     25 C5         -0.8095    4.3012   -0.0331 C.ar      1 ATP        -0.1346
     26 C6         -1.4065    5.5904    0.3585 C.ar      1 ATP         0.7213
     27 N6         -2.2501    6.2030   -0.4084 N.2       1 ATP        -0.8215
     28 N1         -0.9585    6.0272    1.5994 N.pl3     1 ATP        -0.8455
     29 C2         -0.0508    5.3009    2.3532 C.ar      1 ATP         0.6477
     30 N3          0.4890    4.1592    2.0257 N.2       1 ATP        -0.5707
     31 C4          0.0637    3.7006    0.7995 C.ar      1 ATP         0.2637
     32 HOG3        5.2743    4.7197   -6.4012 H         1 ATP         0.4378
     33 H5'1        1.3514    0.2330   -2.1577 H         1 ATP         0.0340
     34 H5'2        2.1280   -1.3678   -2.0460 H         1 ATP         0.0340
     35 H4'         3.8044   -0.1397   -0.4040 H         1 ATP         0.0910
     36 H3'         1.6764   -1.7639    0.2728 H         1 ATP         0.0656
     37 HO3'        2.2232   -1.2979    2.3953 H         1 ATP         0.4386
     38 H2'        -0.0011    0.0027    0.0003 H         1 ATP         0.0788
     39 HO2'       -0.6141    0.5574    2.1082 H         1 ATP         0.4363
     40 H1'         1.7826    1.9024    1.6451 H         1 ATP         0.1225
     41 H8         -0.1116    1.6863   -1.6984 H         1 ATP         0.3824
     42 HN62       -2.5420    7.0730    0.0447 H         1 ATP         0.4018
     43 H2          0.1969    5.7893    3.3086 H         1 ATP         0.0652
     44 H44        -1.3097    6.9080    1.9642 H         1 ATP         0.4503
     45 H45        -1.5735    3.7351   -1.9538 H         1 ATP         0.5209
@<TRIPOS>BOND
     1    1    2 2
     2    1    3 1
     3    1    4 1
     4    1    8 1
     5    4   32 1
     6    5    6 2
     7    5    7 1
     8    5    8 1
     9    5   12 1
    10    9   10 2
    11    9   11 1
    12    9   12 1
    13    9   13 1
    14   13   14 1
    15   14   15 1
    16   14   33 1
    17   14   34 1
    18   15   16 1
    19   15   17 1
    20   15   35 1
    21   16   21 1
    22   17   18 1
    23   17   19 1
    24   17   36 1
    25   18   37 1
    26   19   20 1
    27   19   21 1
    28   19   38 1
    29   20   39 1
    30   21   22 1
    31   21   40 1
    32   22   23 ar
    33   22   31 ar
    34   23   24 ar
    35   23   41 1
    36   24   25 ar
    37   24   45 1
    38   25   26 ar
    39   25   31 ar
    40   26   27 2
    41   26   28 ar
    42   27   42 1
    43   28   29 ar
    44   28   44 1
    45   29   30 ar
    46   29   43 1
    47   30   31 ar
@<TRIPOS>SUBSTRUCTURE
     1 ATP         1 GROUP 0 A     ****
@<TRIPOS>MOLECULE
[[[3,4-dihydroxy-5-(6-imino-7,8-dihydro-1~{H}-purin-8-ylium-9-yl)tetrahydrofuran-2-yl]methoxy-oxido-phosphoryl]oxy-oxido-phosphoryl] hydrogen phosphate
   45    47     1     0     0
SMALL
USER_CHARGES

@<TRIPOS>ATOM
      1 PG          4.0396   -4.2560   -4.3315 P.3       1 ATP         1.5631
      2 O1G         2.8820   -5.0931   -4.8281 O.co2     1 ATP        -0.8806
      3 O2G         3.9649   -3.5364   -3.0032 O.co2     1 ATP        -0.8806
      4 O3G         5.3890   -5.1751   -4.3480 O.3       1 ATP        -0.8165
      5 PB          3.6265   -1.9107   -6.0843 P.3       1 ATP         1.6877
      6 O1B         4.5269   -1.1415   -7.0250 O.co2     1 ATP        -0.8727
      7 O2B         2.2583   -2.3844   -6.5218 O.co2     1 ATP        -0.8727
      8 O3B         4.4564   -3.1851   -5.4905 O.3       1 ATP        -0.8330
      9 PA          2.7407    0.3769   -4.4297 P.3       1 ATP         1.6036
     10 O1A         1.2546    0.2227   -4.6707 O.co2     1 ATP        -0.9062
     11 O2A         3.5325    1.4517   -5.1421 O.co2     1 ATP        -0.9062
     12 O3A         3.4685   -1.0610   -4.6995 O.3       1 ATP        -0.8166
     13 O5'         3.0213    0.5153   -2.8245 O.3       1 ATP        -0.5510
     14 C5'         2.2816   -0.2918   -1.9206 C.3       1 ATP         0.2099
     15 C4'         2.7248    0.0226   -0.4980 C.3       1 ATP         0.0598
     16 O4'         2.4697    1.4219   -0.2462 O.3       1 ATP        -0.3455
     17 C3'         1.9404   -0.7419    0.5596 C.3       1 ATP         0.0742
     18 O3'         2.7418   -0.8086    1.7389 O.3       1 ATP        -0.6025
     19 C2'         0.7477    0.1630    0.7858 C.3       1 ATP         0.1145
     20 O2'         0.1373   -0.0577    2.0407 O.3       1 ATP        -0.5835
     21 C1'         1.3733    1.5427    0.6747 C.3       1 ATP         0.3776
     22 N9          0.4520    2.5240    0.1767 N.pl3     1 ATP        -0.4429
     23 C8          0.2216    2.8192   -1.0985 C.ar      1 ATP         0.2964
     24 N7         -0.6906    3.7763   -1.2384 N.pl3     1 ATP        -0.4957
     25 C5         -1.0575    4.1037    0.0366 C.ar      1 ATP        -0.1346
     26 C6         -2.0291    5.0943    0.5330 C.ar      1 ATP         0.7213
     27 N6         -2.7093    5.8371   -0.2800 N.2       1 ATP        -0.8215
     28 N1         -2.1051    5.1136    1.9204 N.pl3     1 ATP        -0.8455
     29 C2         -1.3354    4.2774    2.7129 C.ar      1 ATP         0.6477
     30 N3         -0.4707    3.3945    2.2944 N.2       1 ATP        -0.5707
     31 C4         -0.3734    3.3525    0.9220 C.ar      1 ATP         0.2637
     32 HOG3        6.2324   -4.7716   -4.0510 H         1 ATP         0.4378
     33 H5'1        1.2163   -0.0770   -2.0471 H         1 ATP         0.0340
     34 H5'2        2.4655   -1.3443   -2.1563 H         1 ATP         0.0340
     35 H4'         3.8044   -0.1397   -0.4040 H         1 ATP         0.0910
     36 H3'         1.6764   -1.7639    0.2728 H         1 ATP         0.0656
     37 HO3'        2.2232   -1.2979    2.3953 H         1 ATP         0.4386
     38 H2'        -0.0011    0.0027    0.0003 H         1 ATP         0.0788
     39 HO2'       -0.6141    0.5574    2.1082 H         1 ATP         0.4363
     40 H1'         1.7826    1.9024    1.6451 H         1 ATP         0.1225
     41 H8          0.7125    2.3429   -1.9292 H         1 ATP         0.3824
     42 HN62       -3.3217    6.4517    0.2629 H         1 ATP         0.4018
     43 H2         -1.5188    4.4223    3.7890 H         1 ATP         0.0652
     44 H44        -2.7470    5.7626    2.3665 H         1 ATP         0.4503
     45 H45        -1.0305    4.1680   -2.1054 H         1 ATP         0.5209
@<TRIPOS>BOND
     1    1    2 2
     2    1    3 1
     3    1    4 1
     4    1    8 1
     5    4   32 1
     6    5    6 2
     7    5    7 1
     8    5    8 1
     9    5   12 1
    10    9   10 2
    11    9   11 1
    12    9   12 1
    13    9   13 1
    14   13   14 1
    15   14   15 1
    16   14   33 1
    17   14   34 1
    18   15   16 1
    19   15   17 1
    20   15   35 1
    21   16   21 1
    22   17   18 1
    23   17   19 1
    24   17   36 1
    25   18   37 1
    26   19   20 1
    27   19   21 1
    28   19   38 1
    29   20   39 1
    30   21   22 1
    31   21   40 1
    32   22   23 ar
    33   22   31 ar
    34   23   24 ar
    35   23   41 1
    36   24   25 ar
    37   24   45 1
    38   25   26 ar
    39   25   31 ar
    40   26   27 2
    41   26   28 ar
    42   27   42 1
    43   28   29 ar
    44   28   44 1
    45   29   30 ar
    46   29   43 1
    47   30   31 ar
@<TRIPOS>SUBSTRUCTURE
     1 ATP         1 GROUP 0 A     ****
@<TRIPOS>MOLECULE
[[[3,4-dihydroxy-5-(6-imino-7,8-dihydro-1~{H}-purin-8-ylium-9-yl)tetrahydrofuran-2-yl]methoxy-oxido-phosphoryl]oxy-oxido-phosphoryl] hydrogen phosphate
   45    47     1     0     0
SMALL
USER_CHARGES

@<TRIPOS>ATOM
      1 PG         -2.3619   -3.1465   -2.1891 P.3       1 ATP         1.5631
      2 O1G        -1.3861   -2.6501   -1.1457 O.co2     1 ATP        -0.8806
      3 O2G        -2.6436   -4.6239   -2.3494 O.co2     1 ATP        -0.8806
      4 O3G        -3.7820   -2.3673   -1.9834 O.3       1 ATP        -0.8165
      5 PB         -0.6289   -2.8068   -4.5607 P.3       1 ATP         1.6877
      6 O1B        -0.4885   -4.2988   -4.7648 O.co2     1 ATP        -0.8727
      7 O2B        -0.6446   -1.8535   -5.7348 O.co2     1 ATP        -0.8727
      8 O3B        -1.9483   -2.5262   -3.6410 O.3       1 ATP        -0.8330
      9 PA          2.1372   -2.2718   -3.6563 P.3       1 ATP         1.6036
     10 O1A         2.4977   -1.2667   -4.7287 O.co2     1 ATP        -0.9062
     11 O2A         2.6452   -3.6953   -3.7281 O.co2     1 ATP        -0.9062
     12 O3A         0.5112   -2.3140   -3.5013 O.3       1 ATP        -0.8166
     13 O5'         2.5245   -1.6648   -2.1878 O.3       1 ATP        -0.5510
     14 C5'         2.2816   -0.2918   -1.9206 C.3       1 ATP         0.2099
     15 C4'         2.7248    0.0226   -0.4980 C.3       1 ATP         0.0598
     16 O4'         2.4697    1.4219   -0.2462 O.3       1 ATP        -0.3455
     17 C3'         1.9404   -0.7419    0.5596 C.3       1 ATP         0.0742
     18 O3'         2.7418   -0.8086    1.7389 O.3       1 ATP        -0.6025
     19 C2'         0.7477    0.1630    0.7858 C.3       1 ATP         0.1145
     20 O2'         0.1373   -0.0577    2.0407 O.3       1 ATP        -0.5835
     21 C1'         1.3733    1.5427    0.6747 C.3       1 ATP         0.3776
     22 N9          0.4520    2.5240    0.1767 N.pl3     1 ATP        -0.4429
     23 C8          0.2216    2.8192   -1.0985 C.ar      1 ATP         0.2964
     24 N7         -0.6906    3.7763   -1.2384 N.pl3     1 ATP        -0.4957
     25 C5         -1.0575    4.1037    0.0366 C.ar      1 ATP        -0.1346
     26 C6         -2.0291    5.0943    0.5330 C.ar      1 ATP         0.7213
     27 N6         -2.7093    5.8371   -0.2800 N.2       1 ATP        -0.8215
     28 N1         -2.1051    5.1136    1.9204 N.pl3     1 ATP        -0.8455
     29 C2         -1.3354    4.2774    2.7129 C.ar      1 ATP         0.6477
     30 N3         -0.4707    3.3945    2.2944 N.2       1 ATP        -0.5707
     31 C4         -0.3734    3.3525    0.9220 C.ar      1 ATP         0.2637
     32 HOG3       -4.5238   -2.5810   -2.5887 H         1 ATP         0.4378
     33 H5'1        2.8432    0.3119   -2.6398 H         1 ATP         0.0340
     34 H5'2        1.2128   -0.0927   -2.0428 H         1 ATP         0.0340
     35 H4'         3.8044   -0.1397   -0.4040 H         1 ATP         0.0910
     36 H3'         1.6764   -1.7639    0.2728 H         1 ATP         0.0656
     37 HO3'        2.2232   -1.2979    2.3953 H         1 ATP         0.4386
     38 H2'        -0.0011    0.0027    0.0003 H         1 ATP         0.0788
     39 HO2'       -0.6141    0.5574    2.1082 H         1 ATP         0.4363
     40 H1'         1.7826    1.9024    1.6451 H         1 ATP         0.1225
     41 H8          0.7125    2.3429   -1.9292 H         1 ATP         0.3824
     42 HN62       -3.3217    6.4517    0.2629 H         1 ATP         0.4018
     43 H2         -1.5188    4.4223    3.7890 H         1 ATP         0.0652
     44 H44        -2.7470    5.7626    2.3665 H         1 ATP         0.4503
     45 H45        -1.0305    4.1680   -2.1054 H         1 ATP         0.5209
@<TRIPOS>BOND
     1    1    2 2
     2    1    3 1
     3    1    4 1
     4    1    8 1
     5    4   32 1
     6    5    6 2
     7    5    7 1
     8    5    8 1
     9    5   12 1
    10    9   10 2
    11    9   11 1
    12    9   12 1
    13    9   13 1
    14   13   14 1
    15   14   15 1
    16   14   33 1
    17   14   34 1
    18   15   16 1
    19   15   17 1
    20   15   35 1
    21   16   21 1
    22   17   18 1
    23   17   19 1
    24   17   36 1
    25   18   37 1
    26   19   20 1
    27   19   21 1
    28   19   38 1
    29   20   39 1
    30   21   22 1
    31   21   40 1
    32   22   23 ar
    33   22   31 ar
    34   23   24 ar
    35   23   41 1
    36   24   25 ar
    37   24   45 1
    38   25   26 ar
    39   25   31 ar
    40   26   27 2
    41   26   28 ar
    42   27   42 1
    43   28   29 ar
    44   28   44 1
    45   29   30 ar
    46   29   43 1
    47   30   31 ar
@<TRIPOS>SUBSTRUCTURE
     1 ATP         1 GROUP 0 A     ****
@<TRIPOS>MOLECULE
[[[3,4-dihydroxy-5-(6-imino-7,8-dihydro-1~{H}-purin-8-ylium-9-yl)tetrahydrofuran-2-yl]methoxy-oxido-phosphoryl]oxy-oxido-phosphoryl] hydrogen phosphate
   45    47     1     0     0
SMALL
USER_CHARGES

@<TRIPOS>ATOM
      1 PG          1.3311   -2.8902   -7.6703 P.3       1 ATP         1.5631
      2 O1G         1.6246   -4.3703   -7.5685 O.co2     1 ATP        -0.8806
      3 O2G         1.6192   -2.1264   -8.9436 O.co2     1 ATP        -0.8806
      4 O3G        -0.2291   -2.6412   -7.2583 O.3       1 ATP        -0.8165
      5 PB          3.6265   -1.9107   -6.0843 P.3       1 ATP         1.6877
      6 O1B         4.2358   -3.2566   -5.7605 O.co2     1 ATP        -0.8727
      7 O2B         4.2302   -1.0109   -7.1395 O.co2     1 ATP        -0.8727
      8 O3B         2.0423   -2.1203   -6.4192 O.3       1 ATP        -0.8330
      9 PA          2.7407    0.3769   -4.4297 P.3       1 ATP         1.6036
     10 O1A         1.2546    0.2227   -4.6707 O.co2     1 ATP        -0.9062
     11 O2A         3.5325    1.4517   -5.1421 O.co2     1 ATP        -0.9062
     12 O3A         3.4685   -1.0610   -4.6995 O.3       1 ATP        -0.8166
     13 O5'         3.0213    0.5153   -2.8245 O.3       1 ATP        -0.5510
     14 C5'         2.2816   -0.2918   -1.9206 C.3       1 ATP         0.2099
     15 C4'         2.7248    0.0226   -0.4980 C.3       1 ATP         0.0598
     16 O4'         2.4697    1.4219   -0.2462 O.3       1 ATP        -0.3455
     17 C3'         1.9404   -0.7419    0.5596 C.3       1 ATP         0.0742
     18 O3'         2.7418   -0.8086    1.7389 O.3       1 ATP        -0.6025
     19 C2'         0.7477    0.1630    0.7858 C.3       1 ATP         0.1145
     20 O2'         0.1373   -0.0577    2.0407 O.3       1 ATP        -0.5835
     21 C1'         1.3733    1.5427    0.6747 C.3       1 ATP         0.3776
     22 N9          0.4520    2.5240    0.1767 N.pl3     1 ATP        -0.4429
     23 C8          0.2216    2.8192   -1.0985 C.ar      1 ATP         0.2964
     24 N7         -0.6906    3.7763   -1.2384 N.pl3     1 ATP        -0.4957
     25 C5         -1.0575    4.1037    0.0366 C.ar      1 ATP        -0.1346
     26 C6         -2.0291    5.0943    0.5330 C.ar      1 ATP         0.7213
     27 N6         -2.7093    5.8371   -0.2800 N.2       1 ATP        -0.8215
     28 N1         -2.1051    5.1136    1.9204 N.pl3     1 ATP        -0.8455
     29 C2         -1.3354    4.2774    2.7129 C.ar      1 ATP         0.6477
     30 N3         -0.4707    3.3945    2.2944 N.2       1 ATP        -0.5707
     31 C4         -0.3734    3.3525    0.9220 C.ar      1 ATP         0.2637
     32 HOG3       -0.5757   -1.7237   -7.2746 H         1 ATP         0.4378
     33 H5'1        1.2163   -0.0770   -2.0471 H         1 ATP         0.0340
     34 H5'2        2.4655   -1.3443   -2.1563 H         1 ATP         0.0340
     35 H4'         3.8044   -0.1397   -0.4040 H         1 ATP         0.0910
     36 H3'         1.6764   -1.7639    0.2728 H         1 ATP         0.0656
     37 HO3'        2.2232   -1.2979    2.3953 H         1 ATP         0.4386
     38 H2'        -0.0011    0.0027    0.0003 H         1 ATP         0.0788
     39 HO2'       -0.6141    0.5574    2.1082 H         1 ATP         0.4363
     40 H1'         1.7826    1.9024    1.6451 H         1 ATP         0.1225
     41 H8          0.7125    2.3429   -1.9292 H         1 ATP         0.3824
     42 HN62       -3.3217    6.4517    0.2629 H         1 ATP         0.4018
     43 H2         -1.5188    4.4223    3.7890 H         1 ATP         0.0652
     44 H44        -2.7470    5.7626    2.3665 H         1 ATP         0.4503
     45 H45        -1.0305    4.1680   -2.1054 H         1 ATP         0.5209
@<TRIPOS>BOND
     1    1    2 2
     2    1    3 1
     3    1    4 1
     4    1    8 1
     5    4   32 1
     6    5    6 2
     7    5    7 1
     8    5    8 1
     9    5   12 1
    10    9   10 2
    11    9   11 1
    12    9   12 1
    13    9   13 1
    14   13   14 1
    15   14   15 1
    16   14   33 1
    17   14   34 1
    18   15   16 1
    19   15   17 1
    20   15   35 1
    21   16   21 1
    22   17   18 1
    23   17   19 1
    24   17   36 1
    25   18   37 1
    26   19   20 1
    27   19   21 1
    28   19   38 1
    29   20   39 1
    30   21   22 1
    31   21   40 1
    32   22   23 ar
    33   22   31 ar
    34   23   24 ar
    35   23   41 1
    36   24   25 ar
    37   24   45 1
    38   25   26 ar
    39   25   31 ar
    40   26   27 2
    41   26   28 ar
    42   27   42 1
    43   28   29 ar
    44   28   44 1
    45   29   30 ar
    46   29   43 1
    47   30   31 ar
@<TRIPOS>SUBSTRUCTURE
     1 ATP         1 GROUP 0 A     ****
@<TRIPOS>MOLECULE
[[[3,4-dihydroxy-5-(6-imino-7,8-dihydro-1~{H}-purin-8-ylium-9-yl)tetrahydrofuran-2-yl]methoxy-oxido-phosphoryl]oxy-oxido-phosphoryl] hydrogen phosphate
   45    47     1     0     0
SMALL
USER_CHARGES

@<TRIPOS>ATOM
      1 PG          5.0066   -0.8767   -8.4864 P.3       1 ATP         1.5631
      2 O1G         3.8299   -0.9172   -9.4357 O.co2     1 ATP        -0.8806
      3 O2G         6.1008   -1.9184   -8.5599 O.co2     1 ATP        -0.8806
      4 O3G         5.6924    0.6025   -8.5730 O.3       1 ATP        -0.8165
      5 PB          3.6265   -1.9107   -6.0843 P.3       1 ATP         1.6877
      6 O1B         2.2574   -2.0911   -6.7013 O.co2     1 ATP        -0.8727
      7 O2B         4.5318   -3.0946   -5.8267 O.co2     1 ATP        -0.8727
      8 O3B         4.4503   -0.8013   -6.9538 O.3       1 ATP        -0.8330
      9 PA          2.7407    0.3769   -4.4297 P.3       1 ATP         1.6036
     10 O1A         1.2546    0.2227   -4.6707 O.co2     1 ATP        -0.9062
     11 O2A         3.5325    1.4517   -5.1421 O.co2     1 ATP        -0.9062
     12 O3A         3.4685   -1.0610   -4.6995 O.3       1 ATP        -0.8166
     13 O5'         3.0213    0.5153   -2.8245 O.3       1 ATP        -0.5510
     14 C5'         2.2816   -0.2918   -1.9206 C.3       1 ATP         0.2099
     15 C4'         2.7248    0.0226   -0.4980 C.3       1 ATP         0.0598
     16 O4'         2.4697    1.4219   -0.2462 O.3       1 ATP        -0.3455
     17 C3'         1.9404   -0.7419    0.5596 C.3       1 ATP         0.0742
     18 O3'         2.7418   -0.8086    1.7389 O.3       1 ATP        -0.6025
     19 C2'         0.7477    0.1630    0.7858 C.3       1 ATP         0.1145
     20 O2'         0.1373   -0.0577    2.0407 O.3       1 ATP        -0.5835
     21 C1'         1.3733    1.5427    0.6747 C.3       1 ATP         0.3776
     22 N9          0.4520    2.5240    0.1767 N.pl3     1 ATP        -0.4429
     23 C8          0.2216    2.8192   -1.0985 C.ar      1 ATP         0.2964
     24 N7         -0.6906    3.7763   -1.2384 N.pl3     1 ATP        -0.4957
     25 C5         -1.0575    4.1037    0.0366 C.ar      1 ATP        -0.1346
     26 C6         -2.0291    5.0943    0.5330 C.ar      1 ATP         0.7213
     27 N6         -2.7093    5.8371   -0.2800 N.2       1 ATP        -0.8215
     28 N1         -2.1051    5.1136    1.9204 N.pl3     1 ATP        -0.8455
     29 C2         -1.3354    4.2774    2.7129 C.ar      1 ATP         0.6477
     30 N3         -0.4707    3.3945    2.2944 N.2       1 ATP        -0.5707
     31 C4         -0.3734    3.3525    0.9220 C.ar      1 ATP         0.2637
     32 HOG3        6.4749    0.7879   -8.0114 H         1 ATP         0.4378
     33 H5'1        1.2163   -0.0770   -2.0471 H         1 ATP         0.0340
     34 H5'2        2.4655   -1.3443   -2.1563 H         1 ATP         0.0340
     35 H4'         3.8044   -0.1397   -0.4040 H         1 ATP         0.0910
     36 H3'         1.6764   -1.7639    0.2728 H         1 ATP         0.0656
     37 HO3'        2.2232   -1.2979    2.3953 H         1 ATP         0.4386
     38 H2'        -0.0011    0.0027    0.0003 H         1 ATP         0.0788
     39 HO2'       -0.6141    0.5574    2.1082 H         1 ATP         0.4363
     40 H1'         1.7826    1.9024    1.6451 H         1 ATP         0.1225
     41 H8          0.7125    2.3429   -1.9292 H         1 ATP         0.3824
     42 HN62       -3.3217    6.4517    0.2629 H         1 ATP         0.4018
     43 H2         -1.5188    4.4223    3.7890 H         1 ATP         0.0652
     44 H44        -2.7470    5.7626    2.3665 H         1 ATP         0.4503
     45 H45        -1.0305    4.1680   -2.1054 H         1 ATP         0.5209
@<TRIPOS>BOND
     1    1    2 2
     2    1    3 1
     3    1    4 1
     4    1    8 1
     5    4   32 1
     6    5    6 2
     7    5    7 1
     8    5    8 1
     9    5   12 1
    10    9   10 2
    11    9   11 1
    12    9   12 1
    13    9   13 1
    14   13   14 1
    15   14   15 1
    16   14   33 1
    17   14   34 1
    18   15   16 1
    19   15   17 1
    20   15   35 1
    21   16   21 1
    22   17   18 1
    23   17   19 1
    24   17   36 1
    25   18   37 1
    26   19   20 1
    27   19   21 1
    28   19   38 1
    29   20   39 1
    30   21   22 1
    31   21   40 1
    32   22   23 ar
    33   22   31 ar
    34   23   24 ar
    35   23   41 1
    36   24   25 ar
    37   24   45 1
    38   25   26 ar
    39   25   31 ar
    40   26   27 2
    41   26   28 ar
    42   27   42 1
    43   28   29 ar
    44   28   44 1
    45   29   30 ar
    46   29   43 1
    47   30   31 ar
@<TRIPOS>SUBSTRUCTURE
     1 ATP         1 GROUP 0 A     ****
@<TRIPOS>MOLECULE
[[[3,4-dihydroxy-5-(6-imino-7,8-dihydro-1~{H}-purin-8-ylium-9-yl)tetrahydrofuran-2-yl]methoxy-oxido-phosphoryl]oxy-oxido-phosphoryl] hydrogen phosphate
   45    47     1     0     0
SMALL
USER_CHARGES

@<TRIPOS>ATOM
      1 PG         -1.2673    3.1956   -6.1252 P.3       1 ATP         1.5631
      2 O1G        -1.8513    4.1798   -5.1363 O.co2     1 ATP        -0.8806
      3 O2G        -2.1557    2.2297   -6.8772 O.co2     1 ATP        -0.8806
      4 O3G        -0.3659    4.0212   -7.2077 O.3       1 ATP        -0.8165
      5 PB          0.9889    1.2869   -6.0263 P.3       1 ATP         1.6877
      6 O1B         0.2301    0.0558   -6.4691 O.co2     1 ATP        -0.8727
      7 O2B         1.9135    2.0199   -6.9726 O.co2     1 ATP        -0.8727
      8 O3B        -0.0714    2.3571   -5.3969 O.3       1 ATP        -0.8330
      9 PA          3.0675   -0.0857   -4.4293 P.3       1 ATP         1.6036
     10 O1A         4.2683    0.4444   -5.1827 O.co2     1 ATP        -0.9062
     11 O2A         2.5798   -1.5012   -4.6487 O.co2     1 ATP        -0.9062
     12 O3A         1.8107    0.9323   -4.6611 O.3       1 ATP        -0.8166
     13 O5'         3.2903    0.1346   -2.8241 O.3       1 ATP        -0.5510
     14 C5'         2.2816   -0.2918   -1.9206 C.3       1 ATP         0.2099
     15 C4'         2.7248    0.0226   -0.4980 C.3       1 ATP         0.0598
     16 O4'         2.4697    1.4219   -0.2462 O.3       1 ATP        -0.3455
     17 C3'         1.9404   -0.7419    0.5596 C.3       1 ATP         0.0742
     18 O3'         2.7418   -0.8086    1.7389 O.3       1 ATP        -0.6025
     19 C2'         0.7477    0.1630    0.7858 C.3       1 ATP         0.1145
     20 O2'         0.1373   -0.0577    2.0407 O.3       1 ATP        -0.5835
     21 C1'         1.3733    1.5427    0.6747 C.3       1 ATP         0.3776
     22 N9          0.4520    2.5240    0.1767 N.pl3     1 ATP        -0.4429
     23 C8          0.2216    2.8192   -1.0985 C.ar      1 ATP         0.2964
     24 N7         -0.6906    3.7763   -1.2384 N.pl3     1 ATP        -0.4957
     25 C5         -1.0575    4.1037    0.0366 C.ar      1 ATP        -0.1346
     26 C6         -2.0291    5.0943    0.5330 C.ar      1 ATP         0.7213
     27 N6         -2.7093    5.8371   -0.2800 N.2       1 ATP        -0.8215
     28 N1         -2.1051    5.1136    1.9204 N.pl3     1 ATP        -0.8455
     29 C2         -1.3354    4.2774    2.7129 C.ar      1 ATP         0.6477
     30 N3         -0.4707    3.3945    2.2944 N.2       1 ATP        -0.5707
     31 C4         -0.3734    3.3525    0.9220 C.ar      1 ATP         0.2637
     32 HOG3        0.0836    3.5191   -7.9206 H         1 ATP         0.4378
     33 H5'1        1.3514    0.2330   -2.1577 H         1 ATP         0.0340
     34 H5'2        2.1280   -1.3678   -2.0460 H         1 ATP         0.0340
     35 H4'         3.8044   -0.1397   -0.4040 H         1 ATP         0.0910
     36 H3'         1.6764   -1.7639    0.2728 H         1 ATP         0.0656
     37 HO3'        2.2232   -1.2979    2.3953 H         1 ATP         0.4386
     38 H2'        -0.0011    0.0027    0.0003 H         1 ATP         0.0788
     39 HO2'       -0.6141    0.5574    2.1082 H         1 ATP         0.4363
     40 H1'         1.7826    1.9024    1.6451 H         1 ATP         0.1225
     41 H8          0.7125    2.3429   -1.9292 H         1 ATP         0.3824
     42 HN62       -3.3217    6.4517    0.2629 H         1 ATP         0.4018
     43 H2         -1.5188    4.4223    3.7890 H         1 ATP         0.0652
     44 H44        -2.7470    5.7626    2.3665 H         1 ATP         0.4503
     45 H45        -1.0305    4.1680   -2.1054 H         1 ATP         0.5209
@<TRIPOS>BOND
     1    1    2 2
     2    1    3 1
     3    1    4 1
     4    1    8 1
     5    4   32 1
     6    5    6 2
     7    5    7 1
     8    5    8 1
     9    5   12 1
    10    9   10 2
    11    9   11 1
    12    9   12 1
    13    9   13 1
    14   13   14 1
    15   14   15 1
    16   14   33 1
    17   14   34 1
    18   15   16 1
    19   15   17 1
    20   15   35 1
    21   16   21 1
    22   17   18 1
    23   17   19 1
    24   17   36 1
    25   18   37 1
    26   19   20 1
    27   19   21 1
    28   19   38 1
    29   20   39 1
    30   21   22 1
    31   21   40 1
    32   22   23 ar
    33   22   31 ar
    34   23   24 ar
    35   23   41 1
    36   24   25 ar
    37   24   45 1
    38   25   26 ar
    39   25   31 ar
    40   26   27 2
    41   26   28 ar
    42   27   42 1
    43   28   29 ar
    44   28   44 1
    45   29   30 ar
    46   29   43 1
    47   30   31 ar
@<TRIPOS>SUBSTRUCTURE
     1 ATP         1 GROUP 0 A     ****
@<TRIPOS>MOLECULE
[[[3,4-dihydroxy-5-(6-imino-7,8-dihydro-1~{H}-purin-8-ylium-9-yl)tetrahydrofuran-2-yl]methoxy-oxido-phosphoryl]oxy-oxido-phosphoryl] hydrogen phosphate
   45    47     1     0     0
SMALL
USER_CHARGES

@<TRIPOS>ATOM
      1 PG          7.3024   -2.2665   -2.7428 P.3       1 ATP         1.5631
      2 O1G         6.5700   -1.3856   -1.7554 O.co2     1 ATP        -0.8806
      3 O2G         8.4902   -1.7430   -3.5193 O.co2     1 ATP        -0.8806
      4 O3G         7.7456   -3.6415   -1.9820 O.3       1 ATP        -0.8165
      5 PB          5.3149   -2.1652   -4.9298 P.3       1 ATP         1.6877
      6 O1B         6.2224   -1.3429   -5.8173 O.co2     1 ATP        -0.8727
      7 O2B         4.3561   -3.1785   -5.5142 O.co2     1 ATP        -0.8727
      8 O3B         6.2237   -2.9011   -3.7905 O.3       1 ATP        -0.8330
      9 PA          3.3343   -0.0514   -4.3264 P.3       1 ATP         1.6036
     10 O1A         2.1154   -0.7746   -4.8569 O.co2     1 ATP        -0.9062
     11 O2A         3.9835    1.0584   -5.1242 O.co2     1 ATP        -0.9062
     12 O3A         4.4804   -1.1555   -3.9558 O.3       1 ATP        -0.8166
     13 O5'         3.0213    0.5153   -2.8245 O.3       1 ATP        -0.5510
     14 C5'         2.2816   -0.2918   -1.9206 C.3       1 ATP         0.2099
     15 C4'         2.7248    0.0226   -0.4980 C.3       1 ATP         0.0598
     16 O4'         2.4697    1.4219   -0.2462 O.3       1 ATP        -0.3455
     17 C3'         1.9404   -0.7419    0.5596 C.3       1 ATP         0.0742
     18 O3'         2.7418   -0.8086    1.7389 O.3       1 ATP        -0.6025
     19 C2'         0.7477    0.1630    0.7858 C.3       1 ATP         0.1145
     20 O2'         0.1373   -0.0577    2.0407 O.3       1 ATP        -0.5835
     21 C1'         1.3733    1.5427    0.6747 C.3       1 ATP         0.3776
     22 N9          0.4520    2.5240    0.1767 N.pl3     1 ATP        -0.4429
     23 C8          0.2216    2.8192   -1.0985 C.ar      1 ATP         0.2964
     24 N7         -0.6906    3.7763   -1.2384 N.pl3     1 ATP        -0.4957
     25 C5         -1.0575    4.1037    0.0366 C.ar      1 ATP        -0.1346
     26 C6         -2.0291    5.0943    0.5330 C.ar      1 ATP         0.7213
     27 N6         -2.7093    5.8371   -0.2800 N.2       1 ATP        -0.8215
     28 N1         -2.1051    5.1136    1.9204 N.pl3     1 ATP        -0.8455
     29 C2         -1.3354    4.2774    2.7129 C.ar      1 ATP         0.6477
     30 N3         -0.4707    3.3945    2.2944 N.2       1 ATP        -0.5707
     31 C4         -0.3734    3.3525    0.9220 C.ar      1 ATP         0.2637
     32 HOG3        8.2345   -4.3212   -2.4931 H         1 ATP         0.4378
     33 H5'1        1.2163   -0.0770   -2.0471 H         1 ATP         0.0340
     34 H5'2        2.4655   -1.3443   -2.1563 H         1 ATP         0.0340
     35 H4'         3.8044   -0.1397   -0.4040 H         1 ATP         0.0910
     36 H3'         1.6764   -1.7639    0.2728 H         1 ATP         0.0656
     37 HO3'        2.2232   -1.2979    2.3953 H         1 ATP         0.4386
     38 H2'        -0.0011    0.0027    0.0003 H         1 ATP         0.0788
     39 HO2'       -0.6141    0.5574    2.1082 H         1 ATP         0.4363
     40 H1'         1.7826    1.9024    1.6451 H         1 ATP         0.1225
     41 H8          0.7125    2.3429   -1.9292 H         1 ATP         0.3824
     42 HN62       -3.3217    6.4517    0.2629 H         1 ATP         0.4018
     43 H2         -1.5188    4.4223    3.7890 H         1 ATP         0.0652
     44 H44        -2.7470    5.7626    2.3665 H         1 ATP         0.4503
     45 H45        -1.0305    4.1680   -2.1054 H         1 ATP         0.5209
@<TRIPOS>BOND
     1    1    2 2
     2    1    3 1
     3    1    4 1
     4    1    8 1
     5    4   32 1
     6    5    6 2
     7    5    7 1
     8    5    8 1
     9    5   12 1
    10    9   10 2
    11    9   11 1
    12    9   12 1
    13    9   13 1
    14   13   14 1
    15   14   15 1
    16   14   33 1
    17   14   34 1
    18   15   16 1
    19   15   17 1
    20   15   35 1
    21   16   21 1
    22   17   18 1
    23   17   19 1
    24   17   36 1
    25   18   37 1
    26   19   20 1
    27   19   21 1
    28   19   38 1
    29   20   39 1
    30   21   22 1
    31   21   40 1
    32   22   23 ar
    33   22   31 ar
    34   23   24 ar
    35   23   41 1
    36   24   25 ar
    37   24   45 1
    38   25   26 ar
    39   25   31 ar
    40   26   27 2
    41   26   28 ar
    42   27   42 1
    43   28   29 ar
    44   28   44 1
    45   29   30 ar
    46   29   43 1
    47   30   31 ar
@<TRIPOS>SUBSTRUCTURE
     1 ATP         1 GROUP 0 A     ****
@<TRIPOS>MOLECULE
[[[3,4-dihydroxy-5-(6-imino-7,8-dihydro-1~{H}-purin-8-ylium-9-yl)tetrahydrofuran-2-yl]methoxy-oxido-phosphoryl]oxy-oxido-phosphoryl] hydrogen phosphate
   45    47     1     0     0
SMALL
USER_CHARGES

@<TRIPOS>ATOM
      1 PG         -2.9798   -2.3975   -4.8527 P.3       1 ATP         1.5631
      2 O1G        -4.1740   -1.9922   -4.0178 O.co2     1 ATP        -0.8806
      3 O2G        -2.9855   -3.6872   -5.6429 O.co2     1 ATP        -0.8806
      4 O3G        -2.6149   -1.1703   -5.8660 O.3       1 ATP        -0.8165
      5 PB         -1.2231   -3.2846   -2.6458 P.3       1 ATP         1.6877
      6 O1B        -2.1740   -2.9988   -1.5049 O.co2     1 ATP        -0.8727
      7 O2B        -0.9862   -4.6967   -3.1330 O.co2     1 ATP        -0.8727
      8 O3B        -1.6407   -2.3541   -3.9207 O.3       1 ATP        -0.8330
      9 PA          1.5544   -2.4558   -3.2404 P.3       1 ATP         1.6036
     10 O1A         1.2372   -1.5514   -4.4116 O.co2     1 ATP        -0.9062
     11 O2A         2.1275   -3.8383   -3.4637 O.co2     1 ATP        -0.9062
     12 O3A         0.2190   -2.5976   -2.3096 O.3       1 ATP        -0.8166
     13 O5'         2.5245   -1.6648   -2.1878 O.3       1 ATP        -0.5510
     14 C5'         2.2816   -0.2918   -1.9206 C.3       1 ATP         0.2099
     15 C4'         2.7248    0.0226   -0.4980 C.3       1 ATP         0.0598
     16 O4'         2.4697    1.4219   -0.2462 O.3       1 ATP        -0.3455
     17 C3'         1.9404   -0.7419    0.5596 C.3       1 ATP         0.0742
     18 O3'         2.7418   -0.8086    1.7389 O.3       1 ATP        -0.6025
     19 C2'         0.7477    0.1630    0.7858 C.3       1 ATP         0.1145
     20 O2'         0.1373   -0.0577    2.0407 O.3       1 ATP        -0.5835
     21 C1'         1.3733    1.5427    0.6747 C.3       1 ATP         0.3776
     22 N9          0.4520    2.5240    0.1767 N.pl3     1 ATP        -0.4429
     23 C8          0.2216    2.8192   -1.0985 C.ar      1 ATP         0.2964
     24 N7         -0.6906    3.7763   -1.2384 N.pl3     1 ATP        -0.4957
     25 C5         -1.0575    4.1037    0.0366 C.ar      1 ATP        -0.1346
     26 C6         -2.0291    5.0943    0.5330 C.ar      1 ATP         0.7213
     27 N6         -2.7093    5.8371   -0.2800 N.2       1 ATP        -0.8215
     28 N1         -2.1051    5.1136    1.9204 N.pl3     1 ATP        -0.8455
     29 C2         -1.3354    4.2774    2.7129 C.ar      1 ATP         0.6477
     30 N3         -0.4707    3.3945    2.2944 N.2       1 ATP        -0.5707
     31 C4         -0.3734    3.3525    0.9220 C.ar      1 ATP         0.2637
     32 HOG3       -1.8568   -1.2804   -6.4787 H         1 ATP         0.4378
     33 H5'1        2.8432    0.3119   -2.6398 H         1 ATP         0.0340
     34 H5'2        1.2128   -0.0927   -2.0428 H         1 ATP         0.0340
     35 H4'         3.8044   -0.1397   -0.4040 H         1 ATP         0.0910
     36 H3'         1.6764   -1.7639    0.2728 H         1 ATP         0.0656
     37 HO3'        2.2232   -1.2979    2.3953 H         1 ATP         0.4386
     38 H2'        -0.0011    0.0027    0.0003 H         1 ATP         0.0788
     39 HO2'       -0.6141    0.5574    2.1082 H         1 ATP         0.4363
     40 H1'         1.7826    1.9024    1.6451 H         1 ATP         0.1225
     41 H8          0.7125    2.3429   -1.9292 H         1 ATP         0.3824
     42 HN62       -3.3217    6.4517    0.2629 H         1 ATP         0.4018
     43 H2         -1.5188    4.4223    3.7890 H         1 ATP         0.0652
     44 H44        -2.7470    5.7626    2.3665 H         1 ATP         0.4503
     45 H45        -1.0305    4.1680   -2.1054 H         1 ATP         0.5209
@<TRIPOS>BOND
     1    1    2 2
     2    1    3 1
     3    1    4 1
     4    1    8 1
     5    4   32 1
     6    5    6 2
     7    5    7 1
     8    5    8 1
     9    5   12 1
    10    9   10 2
    11    9   11 1
    12    9   12 1
    13    9   13 1
    14   13   14 1
    15   14   15 1
    16   14   33 1
    17   14   34 1
    18   15   16 1
    19   15   17 1
    20   15   35 1
    21   16   21 1
    22   17   18 1
    23   17   19 1
    24   17   36 1
    25   18   37 1
    26   19   20 1
    27   19   21 1
    28   19   38 1
    29   20   39 1
    30   21   22 1
    31   21   40 1
    32   22   23 ar
    33   22   31 ar
    34   23   24 ar
    35   23   41 1
    36   24   25 ar
    37   24   45 1
    38   25   26 ar
    39   25   31 ar
    40   26   27 2
    41   26   28 ar
    42   27   42 1
    43   28   29 ar
    44   28   44 1
    45   29   30 ar
    46   29   43 1
    47   30   31 ar
@<TRIPOS>SUBSTRUCTURE
     1 ATP         1 GROUP 0 A     ****
@<TRIPOS>MOLECULE
[[[3,4-dihydroxy-5-(6-imino-7,8-dihydro-1~{H}-purin-8-ylium-9-yl)tetrahydrofuran-2-yl]methoxy-oxido-phosphoryl]oxy-oxido-phosphoryl] hydrogen phosphate
   45    47     1     0     0
SMALL
USER_CHARGES

@<TRIPOS>ATOM
      1 PG         -3.4715   -3.3838   -0.7279 P.3       1 ATP         1.5631
      2 O1G        -4.4660   -2.8615   -1.7406 O.co2     1 ATP        -0.8806
      3 O2G        -3.6094   -3.0494    0.7408 O.co2     1 ATP        -0.8806
      4 O3G        -3.3765   -5.0063   -0.8835 O.3       1 ATP        -0.8165
      5 PB         -1.2231   -3.2846   -2.6458 P.3       1 ATP         1.6877
      6 O1B        -1.0254   -4.7760   -2.8008 O.co2     1 ATP        -0.8727
      7 O2B        -1.9104   -2.4698   -3.7188 O.co2     1 ATP        -0.8727
      8 O3B        -1.9629   -3.0003   -1.2183 O.3       1 ATP        -0.8330
      9 PA          1.5544   -2.4558   -3.2404 P.3       1 ATP         1.6036
     10 O1A         1.2372   -1.5514   -4.4116 O.co2     1 ATP        -0.9062
     11 O2A         2.1275   -3.8383   -3.4637 O.co2     1 ATP        -0.9062
     12 O3A         0.2190   -2.5976   -2.3096 O.3       1 ATP        -0.8166
     13 O5'         2.5245   -1.6648   -2.1878 O.3       1 ATP        -0.5510
     14 C5'         2.2816   -0.2918   -1.9206 C.3       1 ATP         0.2099
     15 C4'         2.7248    0.0226   -0.4980 C.3       1 ATP         0.0598
     16 O4'         2.4697    1.4219   -0.2462 O.3       1 ATP        -0.3455
     17 C3'         1.9404   -0.7419    0.5596 C.3       1 ATP         0.0742
     18 O3'         2.7418   -0.8086    1.7389 O.3       1 ATP        -0.6025
     19 C2'         0.7477    0.1630    0.7858 C.3       1 ATP         0.1145
     20 O2'         0.1373   -0.0577    2.0407 O.3       1 ATP        -0.5835
     21 C1'         1.3733    1.5427    0.6747 C.3       1 ATP         0.3776
     22 N9          0.4520    2.5240    0.1767 N.pl3     1 ATP        -0.4429
     23 C8          0.2216    2.8192   -1.0985 C.ar      1 ATP         0.2964
     24 N7         -0.6906    3.7763   -1.2384 N.pl3     1 ATP        -0.4957
     25 C5         -1.0575    4.1037    0.0366 C.ar      1 ATP        -0.1346
     26 C6         -2.0291    5.0943    0.5330 C.ar      1 ATP         0.7213
     27 N6         -2.7093    5.8371   -0.2800 N.2       1 ATP        -0.8215
     28 N1         -2.1051    5.1136    1.9204 N.pl3     1 ATP        -0.8455
     29 C2         -1.3354    4.2774    2.7129 C.ar      1 ATP         0.6477
     30 N3         -0.4707    3.3945    2.2944 N.2       1 ATP        -0.5707
     31 C4         -0.3734    3.3525    0.9220 C.ar      1 ATP         0.2637
     32 HOG3       -2.7679   -5.4973   -0.2912 H         1 ATP         0.4378
     33 H5'1        2.8432    0.3119   -2.6398 H         1 ATP         0.0340
     34 H5'2        1.2128   -0.0927   -2.0428 H         1 ATP         0.0340
     35 H4'         3.8044   -0.1397   -0.4040 H         1 ATP         0.0910
     36 H3'         1.6764   -1.7639    0.2728 H         1 ATP         0.0656
     37 HO3'        2.2232   -1.2979    2.3953 H         1 ATP         0.4386
     38 H2'        -0.0011    0.0027    0.0003 H         1 ATP         0.0788
     39 HO2'       -0.6141    0.5574    2.1082 H         1 ATP         0.4363
     40 H1'         1.7826    1.9024    1.6451 H         1 ATP         0.1225
     41 H8          0.7125    2.3429   -1.9292 H         1 ATP         0.3824
     42 HN62       -3.3217    6.4517    0.2629 H         1 ATP         0.4018
     43 H2         -1.5188    4.4223    3.7890 H         1 ATP         0.0652
     44 H44        -2.7470    5.7626    2.3665 H         1 ATP         0.4503
     45 H45        -1.0305    4.1680   -2.1054 H         1 ATP         0.5209
@<TRIPOS>BOND
     1    1    2 2
     2    1    3 1
     3    1    4 1
     4    1    8 1
     5    4   32 1
     6    5    6 2
     7    5    7 1
     8    5    8 1
     9    5   12 1
    10    9   10 2
    11    9   11 1
    12    9   12 1
    13    9   13 1
    14   13   14 1
    15   14   15 1
    16   14   33 1
    17   14   34 1
    18   15   16 1
    19   15   17 1
    20   15   35 1
    21   16   21 1
    22   17   18 1
    23   17   19 1
    24   17   36 1
    25   18   37 1
    26   19   20 1
    27   19   21 1
    28   19   38 1
    29   20   39 1
    30   21   22 1
    31   21   40 1
    32   22   23 ar
    33   22   31 ar
    34   23   24 ar
    35   23   41 1
    36   24   25 ar
    37   24   45 1
    38   25   26 ar
    39   25   31 ar
    40   26   27 2
    41   26   28 ar
    42   27   42 1
    43   28   29 ar
    44   28   44 1
    45   29   30 ar
    46   29   43 1
    47   30   31 ar
@<TRIPOS>SUBSTRUCTURE
     1 ATP         1 GROUP 0 A     ****
@<TRIPOS>MOLECULE
[[[3,4-dihydroxy-5-(6-imino-7,8-dihydro-1~{H}-purin-8-ylium-9-yl)tetrahydrofuran-2-yl]methoxy-oxido-phosphoryl]oxy-oxido-phosphoryl] hydrogen phosphate
   45    47     1     0     0
SMALL
USER_CHARGES

@<TRIPOS>ATOM
      1 PG         -2.4904   -1.1322   -2.9877 P.3       1 ATP         1.5631
      2 O1G        -2.9251   -0.2039   -4.0998 O.co2     1 ATP        -0.8806
      3 O2G        -1.5114   -0.6732   -1.9301 O.co2     1 ATP        -0.8806
      4 O3G        -3.8239   -1.7105   -2.2438 O.3       1 ATP        -0.8165
      5 PB         -0.6289   -2.8068   -4.5607 P.3       1 ATP         1.6877
      6 O1B        -0.4885   -4.2988   -4.7648 O.co2     1 ATP        -0.8727
      7 O2B        -0.6446   -1.8535   -5.7348 O.co2     1 ATP        -0.8727
      8 O3B        -1.9483   -2.5262   -3.6410 O.3       1 ATP        -0.8330
      9 PA          2.1372   -2.2718   -3.6563 P.3       1 ATP         1.6036
     10 O1A         2.4977   -1.2667   -4.7287 O.co2     1 ATP        -0.9062
     11 O2A         2.6452   -3.6953   -3.7281 O.co2     1 ATP        -0.9062
     12 O3A         0.5112   -2.3140   -3.5013 O.3       1 ATP        -0.8166
     13 O5'         2.5245   -1.6648   -2.1878 O.3       1 ATP        -0.5510
     14 C5'         2.2816   -0.2918   -1.9206 C.3       1 ATP         0.2099
     15 C4'         2.7248    0.0226   -0.4980 C.3       1 ATP         0.0598
     16 O4'         2.4697    1.4219   -0.2462 O.3       1 ATP        -0.3455
     17 C3'         1.9404   -0.7419    0.5596 C.3       1 ATP         0.0742
     18 O3'         2.7418   -0.8086    1.7389 O.3       1 ATP        -0.6025
     19 C2'         0.7477    0.1630    0.7858 C.3       1 ATP         0.1145
     20 O2'         0.1373   -0.0577    2.0407 O.3       1 ATP        -0.5835
     21 C1'         1.3733    1.5427    0.6747 C.3       1 ATP         0.3776
     22 N9          0.4520    2.5240    0.1767 N.pl3     1 ATP        -0.4429
     23 C8          0.2216    2.8192   -1.0985 C.ar      1 ATP         0.2964
     24 N7         -0.6906    3.7763   -1.2384 N.pl3     1 ATP        -0.4957
     25 C5         -1.0575    4.1037    0.0366 C.ar      1 ATP        -0.1346
     26 C6         -2.0291    5.0943    0.5330 C.ar      1 ATP         0.7213
     27 N6         -2.7093    5.8371   -0.2800 N.2       1 ATP        -0.8215
     28 N1         -2.1051    5.1136    1.9204 N.pl3     1 ATP        -0.8455
     29 C2         -1.3354    4.2774    2.7129 C.ar      1 ATP         0.6477
     30 N3         -0.4707    3.3945    2.2944 N.2       1 ATP        -0.5707
     31 C4         -0.3734    3.3525    0.9220 C.ar      1 ATP         0.2637
     32 HOG3       -3.7076   -2.3320   -1.4938 H         1 ATP         0.4378
     33 H5'1        2.8432    0.3119   -2.6398 H         1 ATP         0.0340
     34 H5'2        1.2128   -0.0927   -2.0428 H         1 ATP         0.0340
     35 H4'         3.8044   -0.1397   -0.4040 H         1 ATP         0.0910
     36 H3'         1.6764   -1.7639    0.2728 H         1 ATP         0.0656
     37 HO3'        3.5554   -1.2733    1.4914 H         1 ATP         0.4386
     38 H2'        -0.0011    0.0027    0.0003 H         1 ATP         0.0788
     39 HO2'       -0.1563   -0.9855    2.0596 H         1 ATP         0.4363
     40 H1'         1.7826    1.9024    1.6451 H         1 ATP         0.1225
     41 H8          0.7125    2.3429   -1.9292 H         1 ATP         0.3824
     42 HN62       -3.3217    6.4517    0.2629 H         1 ATP         0.4018
     43 H2         -1.5188    4.4223    3.7890 H         1 ATP         0.0652
     44 H44        -2.7470    5.7626    2.3665 H         1 ATP         0.4503
     45 H45        -1.0305    4.1680   -2.1054 H         1 ATP         0.5209
@<TRIPOS>BOND
     1    1    2 2
     2    1    3 1
     3    1    4 1
     4    1    8 1
     5    4   32 1
     6    5    6 2
     7    5    7 1
     8    5    8 1
     9    5   12 1
    10    9   10 2
    11    9   11 1
    12    9   12 1
    13    9   13 1
    14   13   14 1
    15   14   15 1
    16   14   33 1
    17   14   34 1
    18   15   16 1
    19   15   17 1
    20   15   35 1
    21   16   21 1
    22   17   18 1
    23   17   19 1
    24   17   36 1
    25   18   37 1
    26   19   20 1
    27   19   21 1
    28   19   38 1
    29   20   39 1
    30   21   22 1
    31   21   40 1
    32   22   23 ar
    33   22   31 ar
    34   23   24 ar
    35   23   41 1
    36   24   25 ar
    37   24   45 1
    38   25   26 ar
    39   25   31 ar
    40   26   27 2
    41   26   28 ar
    42   27   42 1
    43   28   29 ar
    44   28   44 1
    45   29   30 ar
    46   29   43 1
    47   30   31 ar
@<TRIPOS>SUBSTRUCTURE
     1 ATP         1 GROUP 0 A     ****
@<TRIPOS>MOLECULE
[[[3,4-dihydroxy-5-(6-imino-7,8-dihydro-1~{H}-purin-8-ylium-9-yl)tetrahydrofuran-2-yl]methoxy-oxido-phosphoryl]oxy-oxido-phosphoryl] hydrogen phosphate
   45    47     1     0     0
SMALL
USER_CHARGES

@<TRIPOS>ATOM
      1 PG          5.0159   -4.5154   -6.2527 P.3       1 ATP         1.5631
      2 O1G         5.5708   -5.4754   -5.2241 O.co2     1 ATP        -0.8806
      3 O2G         5.8454   -4.0863   -7.4425 O.co2     1 ATP        -0.8806
      4 O3G         3.5937   -5.1041   -6.7975 O.3       1 ATP        -0.8165
      5 PB          3.6265   -1.9107   -6.0843 P.3       1 ATP         1.6877
      6 O1B         4.5269   -1.1415   -7.0250 O.co2     1 ATP        -0.8727
      7 O2B         2.2583   -2.3844   -6.5218 O.co2     1 ATP        -0.8727
      8 O3B         4.4564   -3.1851   -5.4905 O.3       1 ATP        -0.8330
      9 PA          2.7407    0.3769   -4.4297 P.3       1 ATP         1.6036
     10 O1A         1.2546    0.2227   -4.6707 O.co2     1 ATP        -0.9062
     11 O2A         3.5325    1.4517   -5.1421 O.co2     1 ATP        -0.9062
     12 O3A         3.4685   -1.0610   -4.6995 O.3       1 ATP        -0.8166
     13 O5'         3.0213    0.5153   -2.8245 O.3       1 ATP        -0.5510
     14 C5'         2.2816   -0.2918   -1.9206 C.3       1 ATP         0.2099
     15 C4'         2.7248    0.0226   -0.4980 C.3       1 ATP         0.0598
     16 O4'         2.4697    1.4219   -0.2462 O.3       1 ATP        -0.3455
     17 C3'         1.9404   -0.7419    0.5596 C.3       1 ATP         0.0742
     18 O3'         2.7418   -0.8086    1.7389 O.3       1 ATP        -0.6025
     19 C2'         0.7477    0.1630    0.7858 C.3       1 ATP         0.1145
     20 O2'         0.1373   -0.0577    2.0407 O.3       1 ATP        -0.5835
     21 C1'         1.3733    1.5427    0.6747 C.3       1 ATP         0.3776
     22 N9          0.4520    2.5240    0.1767 N.pl3     1 ATP        -0.4429
     23 C8          0.2216    2.8192   -1.0985 C.ar      1 ATP         0.2964
     24 N7         -0.6906    3.7763   -1.2384 N.pl3     1 ATP        -0.4957
     25 C5         -1.0575    4.1037    0.0366 C.ar      1 ATP        -0.1346
     26 C6         -2.0291    5.0943    0.5330 C.ar      1 ATP         0.7213
     27 N6         -2.7093    5.8371   -0.2800 N.2       1 ATP        -0.8215
     28 N1         -2.1051    5.1136    1.9204 N.pl3     1 ATP        -0.8455
     29 C2         -1.3354    4.2774    2.7129 C.ar      1 ATP         0.6477
     30 N3         -0.4707    3.3945    2.2944 N.2       1 ATP        -0.5707
     31 C4         -0.3734    3.3525    0.9220 C.ar      1 ATP         0.2637
     32 HOG3        3.1050   -4.5907   -7.4756 H         1 ATP         0.4378
     33 H5'1        1.2163   -0.0770   -2.0471 H         1 ATP         0.0340
     34 H5'2        2.4655   -1.3443   -2.1563 H         1 ATP         0.0340
     35 H4'         3.8044   -0.1397   -0.4040 H         1 ATP         0.0910
     36 H3'         1.6764   -1.7639    0.2728 H         1 ATP         0.0656
     37 HO3'        2.2232   -1.2979    2.3953 H         1 ATP         0.4386
     38 H2'        -0.0011    0.0027    0.0003 H         1 ATP         0.0788
     39 HO2'       -0.6141    0.5574    2.1082 H         1 ATP         0.4363
     40 H1'         1.7826    1.9024    1.6451 H         1 ATP         0.1225
     41 H8          0.7125    2.3429   -1.9292 H         1 ATP         0.3824
     42 HN62       -3.3217    6.4517    0.2629 H         1 ATP         0.4018
     43 H2         -1.5188    4.4223    3.7890 H         1 ATP         0.0652
     44 H44        -2.7470    5.7626    2.3665 H         1 ATP         0.4503
     45 H45        -1.0305    4.1680   -2.1054 H         1 ATP         0.5209
@<TRIPOS>BOND
     1    1    2 2
     2    1    3 1
     3    1    4 1
     4    1    8 1
     5    4   32 1
     6    5    6 2
     7    5    7 1
     8    5    8 1
     9    5   12 1
    10    9   10 2
    11    9   11 1
    12    9   12 1
    13    9   13 1
    14   13   14 1
    15   14   15 1
    16   14   33 1
    17   14   34 1
    18   15   16 1
    19   15   17 1
    20   15   35 1
    21   16   21 1
    22   17   18 1
    23   17   19 1
    24   17   36 1
    25   18   37 1
    26   19   20 1
    27   19   21 1
    28   19   38 1
    29   20   39 1
    30   21   22 1
    31   21   40 1
    32   22   23 ar
    33   22   31 ar
    34   23   24 ar
    35   23   41 1
    36   24   25 ar
    37   24   45 1
    38   25   26 ar
    39   25   31 ar
    40   26   27 2
    41   26   28 ar
    42   27   42 1
    43   28   29 ar
    44   28   44 1
    45   29   30 ar
    46   29   43 1
    47   30   31 ar
@<TRIPOS>SUBSTRUCTURE
     1 ATP         1 GROUP 0 A     ****
@<TRIPOS>MOLECULE
[[[3,4-dihydroxy-5-(6-imino-7,8-dihydro-1~{H}-purin-8-ylium-9-yl)tetrahydrofuran-2-yl]methoxy-oxido-phosphoryl]oxy-oxido-phosphoryl] hydrogen phosphate
   45    47     1     0     0
SMALL
USER_CHARGES

@<TRIPOS>ATOM
      1 PG         -1.5464   -6.1343   -3.3657 P.3       1 ATP         1.5631
      2 O1G        -2.1256   -5.9349   -4.7485 O.co2     1 ATP        -0.8806
      3 O2G        -2.4272   -6.5414   -2.2054 O.co2     1 ATP        -0.8806
      4 O3G        -0.3057   -7.1905   -3.4703 O.3       1 ATP        -0.8165
      5 PB         -1.2231   -3.2846   -2.6458 P.3       1 ATP         1.6877
      6 O1B        -1.7550   -2.6910   -3.9312 O.co2     1 ATP        -0.8727
      7 O2B        -2.0589   -3.2999   -1.3853 O.co2     1 ATP        -0.8727
      8 O3B        -0.7016   -4.8022   -2.9465 O.3       1 ATP        -0.8330
      9 PA          1.5544   -2.4558   -3.2404 P.3       1 ATP         1.6036
     10 O1A         1.2372   -1.5514   -4.4116 O.co2     1 ATP        -0.9062
     11 O2A         2.1275   -3.8383   -3.4637 O.co2     1 ATP        -0.9062
     12 O3A         0.2190   -2.5976   -2.3096 O.3       1 ATP        -0.8166
     13 O5'         2.5245   -1.6648   -2.1878 O.3       1 ATP        -0.5510
     14 C5'         2.2816   -0.2918   -1.9206 C.3       1 ATP         0.2099
     15 C4'         2.7248    0.0226   -0.4980 C.3       1 ATP         0.0598
     16 O4'         2.4697    1.4219   -0.2462 O.3       1 ATP        -0.3455
     17 C3'         1.9404   -0.7419    0.5596 C.3       1 ATP         0.0742
     18 O3'         2.7418   -0.8086    1.7389 O.3       1 ATP        -0.6025
     19 C2'         0.7477    0.1630    0.7858 C.3       1 ATP         0.1145
     20 O2'         0.1373   -0.0577    2.0407 O.3       1 ATP        -0.5835
     21 C1'         1.3733    1.5427    0.6747 C.3       1 ATP         0.3776
     22 N9          0.4520    2.5240    0.1767 N.pl3     1 ATP        -0.4429
     23 C8          0.2216    2.8192   -1.0985 C.ar      1 ATP         0.2964
     24 N7         -0.6906    3.7763   -1.2384 N.pl3     1 ATP        -0.4957
     25 C5         -1.0575    4.1037    0.0366 C.ar      1 ATP        -0.1346
     26 C6         -2.0291    5.0943    0.5330 C.ar      1 ATP         0.7213
     27 N6         -2.7093    5.8371   -0.2800 N.2       1 ATP        -0.8215
     28 N1         -2.1051    5.1136    1.9204 N.pl3     1 ATP        -0.8455
     29 C2         -1.3354    4.2774    2.7129 C.ar      1 ATP         0.6477
     30 N3         -0.4707    3.3945    2.2944 N.2       1 ATP        -0.5707
     31 C4         -0.3734    3.3525    0.9220 C.ar      1 ATP         0.2637
     32 HOG3        0.1778   -7.4255   -2.6498 H         1 ATP         0.4378
     33 H5'1        2.8432    0.3119   -2.6398 H         1 ATP         0.0340
     34 H5'2        1.2128   -0.0927   -2.0428 H         1 ATP         0.0340
     35 H4'         3.8044   -0.1397   -0.4040 H         1 ATP         0.0910
     36 H3'         1.6764   -1.7639    0.2728 H         1 ATP         0.0656
     37 HO3'        2.2232   -1.2979    2.3953 H         1 ATP         0.4386
     38 H2'        -0.0011    0.0027    0.0003 H         1 ATP         0.0788
     39 HO2'       -0.6141    0.5574    2.1082 H         1 ATP         0.4363
     40 H1'         1.7826    1.9024    1.6451 H         1 ATP         0.1225
     41 H8          0.7125    2.3429   -1.9292 H         1 ATP         0.3824
     42 HN62       -3.3217    6.4517    0.2629 H         1 ATP         0.4018
     43 H2         -1.5188    4.4223    3.7890 H         1 ATP         0.0652
     44 H44        -2.7470    5.7626    2.3665 H         1 ATP         0.4503
     45 H45        -1.0305    4.1680   -2.1054 H         1 ATP         0.5209
@<TRIPOS>BOND
     1    1    2 2
     2    1    3 1
     3    1    4 1
     4    1    8 1
     5    4   32 1
     6    5    6 2
     7    5    7 1
     8    5    8 1
     9    5   12 1
    10    9   10 2
    11    9   11 1
    12    9   12 1
    13    9   13 1
    14   13   14 1
    15   14   15 1
    16   14   33 1
    17   14   34 1
    18   15   16 1
    19   15   17 1
    20   15   35 1
    21   16   21 1
    22   17   18 1
    23   17   19 1
    24   17   36 1
    25   18   37 1
    26   19   20 1
    27   19   21 1
    28   19   38 1
    29   20   39 1
    30   21   22 1
    31   21   40 1
    32   22   23 ar
    33   22   31 ar
    34   23   24 ar
    35   23   41 1
    36   24   25 ar
    37   24   45 1
    38   25   26 ar
    39   25   31 ar
    40   26   27 2
    41   26   28 ar
    42   27   42 1
    43   28   29 ar
    44   28   44 1
    45   29   30 ar
    46   29   43 1
    47   30   31 ar
@<TRIPOS>SUBSTRUCTURE
     1 ATP         1 GROUP 0 A     ****
@<TRIPOS>MOLECULE
[[[3,4-dihydroxy-5-(6-imino-7,8-dihydro-1~{H}-purin-8-ylium-9-yl)tetrahydrofuran-2-yl]methoxy-oxido-phosphoryl]oxy-oxido-phosphoryl] hydrogen phosphate
   45    47     1     0     0
SMALL
USER_CHARGES

@<TRIPOS>ATOM
      1 PG         -2.5389    2.2171   -5.5128 P.3       1 ATP         1.5631
      2 O1G        -2.3365    3.2039   -6.6409 O.co2     1 ATP        -0.8806
      3 O2G        -3.4348    2.5498   -4.3404 O.co2     1 ATP        -0.8806
      4 O3G        -3.0250    0.7942   -6.1492 O.3       1 ATP        -0.8165
      5 PB          0.2043    1.1390   -5.7491 P.3       1 ATP         1.6877
      6 O1B        -0.1622   -0.2273   -6.2843 O.co2     1 ATP        -0.8727
      7 O2B         0.7640    2.2115   -6.6569 O.co2     1 ATP        -0.8727
      8 O3B        -1.0808    1.7494   -4.9481 O.3       1 ATP        -0.8330
      9 PA          2.7407    0.3769   -4.4297 P.3       1 ATP         1.6036
     10 O1A         3.6422    1.3305   -5.1835 O.co2     1 ATP        -0.9062
     11 O2A         2.7080   -1.0952   -4.7784 O.co2     1 ATP        -0.9062
     12 O3A         1.2115    0.9503   -4.4784 O.3       1 ATP        -0.8166
     13 O5'         3.0213    0.5153   -2.8245 O.3       1 ATP        -0.5510
     14 C5'         2.2816   -0.2918   -1.9206 C.3       1 ATP         0.2099
     15 C4'         2.7248    0.0226   -0.4980 C.3       1 ATP         0.0598
     16 O4'         2.4697    1.4219   -0.2462 O.3       1 ATP        -0.3455
     17 C3'         1.9404   -0.7419    0.5596 C.3       1 ATP         0.0742
     18 O3'         2.7418   -0.8086    1.7389 O.3       1 ATP        -0.6025
     19 C2'         0.7477    0.1630    0.7858 C.3       1 ATP         0.1145
     20 O2'         0.1373   -0.0577    2.0407 O.3       1 ATP        -0.5835
     21 C1'         1.3733    1.5427    0.6747 C.3       1 ATP         0.3776
     22 N9          0.4520    2.5240    0.1767 N.pl3     1 ATP        -0.4429
     23 C8         -0.2004    2.4829   -0.9804 C.ar      1 ATP         0.2964
     24 N7         -0.9830    3.5431   -1.1568 N.pl3     1 ATP        -0.4957
     25 C5         -0.8095    4.3012   -0.0331 C.ar      1 ATP        -0.1346
     26 C6         -1.4065    5.5904    0.3585 C.ar      1 ATP         0.7213
     27 N6         -2.2501    6.2030   -0.4084 N.2       1 ATP        -0.8215
     28 N1         -0.9585    6.0272    1.5994 N.pl3     1 ATP        -0.8455
     29 C2         -0.0508    5.3009    2.3532 C.ar      1 ATP         0.6477
     30 N3          0.4890    4.1592    2.0257 N.2       1 ATP        -0.5707
     31 C4          0.0637    3.7006    0.7995 C.ar      1 ATP         0.2637
     32 HOG3       -3.1997    0.0455   -5.5399 H         1 ATP         0.4378
     33 H5'1        1.2163   -0.0770   -2.0471 H         1 ATP         0.0340
     34 H5'2        2.4655   -1.3443   -2.1563 H         1 ATP         0.0340
     35 H4'         3.8044   -0.1397   -0.4040 H         1 ATP         0.0910
     36 H3'         1.6764   -1.7639    0.2728 H         1 ATP         0.0656
     37 HO3'        2.2232   -1.2979    2.3953 H         1 ATP         0.4386
     38 H2'        -0.0011    0.0027    0.0003 H         1 ATP         0.0788
     39 HO2'       -0.1563   -0.9855    2.0596 H         1 ATP         0.4363
     40 H1'         1.7826    1.9024    1.6451 H         1 ATP         0.1225
     41 H8         -0.1116    1.6863   -1.6984 H         1 ATP         0.3824
     42 HN62       -2.5420    7.0730    0.0447 H         1 ATP         0.4018
     43 H2          0.1969    5.7893    3.3086 H         1 ATP         0.0652
     44 H44        -1.3097    6.9080    1.9642 H         1 ATP         0.4503
     45 H45        -1.5735    3.7351   -1.9538 H         1 ATP         0.5209
@<TRIPOS>BOND
     1    1    2 2
     2    1    3 1
     3    1    4 1
     4    1    8 1
     5    4   32 1
     6    5    6 2
     7    5    7 1
     8    5    8 1
     9    5   12 1
    10    9   10 2
    11    9   11 1
    12    9   12 1
    13    9   13 1
    14   13   14 1
    15   14   15 1
    16   14   33 1
    17   14   34 1
    18   15   16 1
    19   15   17 1
    20   15   35 1
    21   16   21 1
    22   17   18 1
    23   17   19 1
    24   17   36 1
    25   18   37 1
    26   19   20 1
    27   19   21 1
    28   19   38 1
    29   20   39 1
    30   21   22 1
    31   21   40 1
    32   22   23 ar
    33   22   31 ar
    34   23   24 ar
    35   23   41 1
    36   24   25 ar
    37   24   45 1
    38   25   26 ar
    39   25   31 ar
    40   26   27 2
    41   26   28 ar
    42   27   42 1
    43   28   29 ar
    44   28   44 1
    45   29   30 ar
    46   29   43 1
    47   30   31 ar
@<TRIPOS>SUBSTRUCTURE
     1 ATP         1 GROUP 0 A     ****
@<TRIPOS>MOLECULE
[[[3,4-dihydroxy-5-(6-imino-7,8-dihydro-1~{H}-purin-8-ylium-9-yl)tetrahydrofuran-2-yl]methoxy-oxido-phosphoryl]oxy-oxido-phosphoryl] hydrogen phosphate
   45    47     1     0     0
SMALL
USER_CHARGES

@<TRIPOS>ATOM
      1 PG         -2.5389    2.2171   -5.5128 P.3       1 ATP         1.5631
      2 O1G        -3.3154    2.8688   -4.3904 O.co2     1 ATP        -0.8806
      3 O2G        -3.1385    1.0859   -6.3182 O.co2     1 ATP        -0.8806
      4 O3G        -2.0422    3.3814   -6.5441 O.3       1 ATP        -0.8165
      5 PB          0.2043    1.1390   -5.7491 P.3       1 ATP         1.6877
      6 O1B        -0.1622   -0.2273   -6.2843 O.co2     1 ATP        -0.8727
      7 O2B         0.7640    2.2115   -6.6569 O.co2     1 ATP        -0.8727
      8 O3B        -1.0808    1.7494   -4.9481 O.3       1 ATP        -0.8330
      9 PA          2.7407    0.3769   -4.4297 P.3       1 ATP         1.6036
     10 O1A         3.6422    1.3305   -5.1835 O.co2     1 ATP        -0.9062
     11 O2A         2.7080   -1.0952   -4.7784 O.co2     1 ATP        -0.9062
     12 O3A         1.2115    0.9503   -4.4784 O.3       1 ATP        -0.8166
     13 O5'         3.0213    0.5153   -2.8245 O.3       1 ATP        -0.5510
     14 C5'         2.2816   -0.2918   -1.9206 C.3       1 ATP         0.2099
     15 C4'         2.7248    0.0226   -0.4980 C.3       1 ATP         0.0598
     16 O4'         2.4697    1.4219   -0.2462 O.3       1 ATP        -0.3455
     17 C3'         1.9404   -0.7419    0.5596 C.3       1 ATP         0.0742
     18 O3'         2.7418   -0.8086    1.7389 O.3       1 ATP        -0.6025
     19 C2'         0.7477    0.1630    0.7858 C.3       1 ATP         0.1145
     20 O2'         0.1373   -0.0577    2.0407 O.3       1 ATP        -0.5835
     21 C1'         1.3733    1.5427    0.6747 C.3       1 ATP         0.3776
     22 N9          0.4520    2.5240    0.1767 N.pl3     1 ATP        -0.4429
     23 C8         -0.6821    2.9098    0.7521 C.ar      1 ATP         0.2964
     24 N7         -1.3175    3.8384    0.0437 N.pl3     1 ATP        -0.4957
     25 C5         -0.5274    4.0494   -1.0512 C.ar      1 ATP        -0.1346
     26 C6         -0.6966    4.9597   -2.1977 C.ar      1 ATP         0.7213
     27 N6         -1.7259    5.7385   -2.2937 N.2       1 ATP        -0.8215
     28 N1          0.3493    4.8663   -3.1079 N.pl3     1 ATP        -0.8455
     29 C2          1.4148    4.0005   -2.9208 C.ar      1 ATP         0.6477
     30 N3          1.5838    3.1876   -1.9144 N.2       1 ATP        -0.5707
     31 C4          0.5619    3.2578   -0.9949 C.ar      1 ATP         0.2637
     32 HOG3       -1.5210    3.1161   -7.3317 H         1 ATP         0.4378
     33 H5'1        1.2163   -0.0770   -2.0471 H         1 ATP         0.0340
     34 H5'2        2.4655   -1.3443   -2.1563 H         1 ATP         0.0340
     35 H4'         3.8044   -0.1397   -0.4040 H         1 ATP         0.0910
     36 H3'         1.6764   -1.7639    0.2728 H         1 ATP         0.0656
     37 HO3'        2.2232   -1.2979    2.3953 H         1 ATP         0.4386
     38 H2'        -0.0011    0.0027    0.0003 H         1 ATP         0.0788
     39 HO2'       -0.1563   -0.9855    2.0596 H         1 ATP         0.4363
     40 H1'         1.7826    1.9024    1.6451 H         1 ATP         0.1225
     41 H8         -1.0516    2.5207    1.6849 H         1 ATP         0.3824
     42 HN62       -1.6520    6.2842   -3.1564 H         1 ATP         0.4018
     43 H2          2.1542    4.0525   -3.7351 H         1 ATP         0.0652
     44 H44         0.3306    5.4533   -3.9370 H         1 ATP         0.4503
     45 H45        -2.1941    4.2838    0.2756 H         1 ATP         0.5209
@<TRIPOS>BOND
     1    1    2 2
     2    1    3 1
     3    1    4 1
     4    1    8 1
     5    4   32 1
     6    5    6 2
     7    5    7 1
     8    5    8 1
     9    5   12 1
    10    9   10 2
    11    9   11 1
    12    9   12 1
    13    9   13 1
    14   13   14 1
    15   14   15 1
    16   14   33 1
    17   14   34 1
    18   15   16 1
    19   15   17 1
    20   15   35 1
    21   16   21 1
    22   17   18 1
    23   17   19 1
    24   17   36 1
    25   18   37 1
    26   19   20 1
    27   19   21 1
    28   19   38 1
    29   20   39 1
    30   21   22 1
    31   21   40 1
    32   22   23 ar
    33   22   31 ar
    34   23   24 ar
    35   23   41 1
    36   24   25 ar
    37   24   45 1
    38   25   26 ar
    39   25   31 ar
    40   26   27 2
    41   26   28 ar
    42   27   42 1
    43   28   29 ar
    44   28   44 1
    45   29   30 ar
    46   29   43 1
    47   30   31 ar
@<TRIPOS>SUBSTRUCTURE
     1 ATP         1 GROUP 0 A     ****
@<TRIPOS>MOLECULE
[[[3,4-dihydroxy-5-(6-imino-7,8-dihydro-1~{H}-purin-8-ylium-9-yl)tetrahydrofuran-2-yl]methoxy-oxido-phosphoryl]oxy-oxido-phosphoryl] hydrogen phosphate
   45    47     1     0     0
SMALL
USER_CHARGES

@<TRIPOS>ATOM
      1 PG         -0.2757    4.7488   -4.8062 P.3       1 ATP         1.5631
      2 O1G        -0.6654    5.8111   -3.8026 O.co2     1 ATP        -0.8806
      3 O2G        -1.3286    3.9327   -5.5226 O.co2     1 ATP        -0.8806
      4 O3G         0.7048    5.4250   -5.9229 O.3       1 ATP        -0.8165
      5 PB          2.2078    4.0619   -3.3558 P.3       1 ATP         1.6877
      6 O1B         3.1895    4.6079   -4.3686 O.co2     1 ATP        -0.8727
      7 O2B         1.9059    4.8089   -2.0758 O.co2     1 ATP        -0.8727
      8 O3B         0.8001    3.7344   -4.1152 O.3       1 ATP        -0.8330
      9 PA          2.9232    1.2546   -3.9579 P.3       1 ATP         1.6036
     10 O1A         4.1497    1.5454   -4.7954 O.co2     1 ATP        -0.9062
     11 O2A         1.6176    0.8557   -4.6106 O.co2     1 ATP        -0.9062
     12 O3A         2.6393    2.5329   -2.9806 O.3       1 ATP        -0.8166
     13 O5'         3.2903    0.1346   -2.8241 O.3       1 ATP        -0.5510
     14 C5'         2.2816   -0.2918   -1.9206 C.3       1 ATP         0.2099
     15 C4'         2.7248    0.0226   -0.4980 C.3       1 ATP         0.0598
     16 O4'         2.4697    1.4219   -0.2462 O.3       1 ATP        -0.3455
     17 C3'         1.9404   -0.7419    0.5596 C.3       1 ATP         0.0742
     18 O3'         2.7418   -0.8086    1.7389 O.3       1 ATP        -0.6025
     19 C2'         0.7477    0.1630    0.7858 C.3       1 ATP         0.1145
     20 O2'         0.1373   -0.0577    2.0407 O.3       1 ATP        -0.5835
     21 C1'         1.3733    1.5427    0.6747 C.3       1 ATP         0.3776
     22 N9          0.4520    2.5240    0.1767 N.pl3     1 ATP        -0.4429
     23 C8         -0.2004    2.4829   -0.9804 C.ar      1 ATP         0.2964
     24 N7         -0.9830    3.5431   -1.1568 N.pl3     1 ATP        -0.4957
     25 C5         -0.8095    4.3012   -0.0331 C.ar      1 ATP        -0.1346
     26 C6         -1.4065    5.5904    0.3585 C.ar      1 ATP         0.7213
     27 N6         -2.2501    6.2030   -0.4084 N.2       1 ATP        -0.8215
     28 N1         -0.9585    6.0272    1.5994 N.pl3     1 ATP        -0.8455
     29 C2         -0.0508    5.3009    2.3532 C.ar      1 ATP         0.6477
     30 N3          0.4890    4.1592    2.0257 N.2       1 ATP        -0.5707
     31 C4          0.0637    3.7006    0.7995 C.ar      1 ATP         0.2637
     32 HOG3        1.5499    5.8226   -5.6228 H         1 ATP         0.4378
     33 H5'1        1.3514    0.2330   -2.1577 H         1 ATP         0.0340
     34 H5'2        2.1280   -1.3678   -2.0460 H         1 ATP         0.0340
     35 H4'         3.8044   -0.1397   -0.4040 H         1 ATP         0.0910
     36 H3'         1.6764   -1.7639    0.2728 H         1 ATP         0.0656
     37 HO3'        3.5554   -1.2733    1.4914 H         1 ATP         0.4386
     38 H2'        -0.0011    0.0027    0.0003 H         1 ATP         0.0788
     39 HO2'       -0.1563   -0.9855    2.0596 H         1 ATP         0.4363
     40 H1'         1.7826    1.9024    1.6451 H         1 ATP         0.1225
     41 H8         -0.1116    1.6863   -1.6984 H         1 ATP         0.3824
     42 HN62       -2.5420    7.0730    0.0447 H         1 ATP         0.4018
     43 H2          0.1969    5.7893    3.3086 H         1 ATP         0.0652
     44 H44        -1.3097    6.9080    1.9642 H         1 ATP         0.4503
     45 H45        -1.5735    3.7351   -1.9538 H         1 ATP         0.5209
@<TRIPOS>BOND
     1    1    2 2
     2    1    3 1
     3    1    4 1
     4    1    8 1
     5    4   32 1
     6    5    6 2
     7    5    7 1
     8    5    8 1
     9    5   12 1
    10    9   10 2
    11    9   11 1
    12    9   12 1
    13    9   13 1
    14   13   14 1
    15   14   15 1
    16   14   33 1
    17   14   34 1
    18   15   16 1
    19   15   17 1
    20   15   35 1
    21   16   21 1
    22   17   18 1
    23   17   19 1
    24   17   36 1
    25   18   37 1
    26   19   20 1
    27   19   21 1
    28   19   38 1
    29   20   39 1
    30   21   22 1
    31   21   40 1
    32   22   23 ar
    33   22   31 ar
    34   23   24 ar
    35   23   41 1
    36   24   25 ar
    37   24   45 1
    38   25   26 ar
    39   25   31 ar
    40   26   27 2
    41   26   28 ar
    42   27   42 1
    43   28   29 ar
    44   28   44 1
    45   29   30 ar
    46   29   43 1
    47   30   31 ar
@<TRIPOS>SUBSTRUCTURE
     1 ATP         1 GROUP 0 A     ****
@<TRIPOS>MOLECULE
[[[3,4-dihydroxy-5-(6-imino-7,8-dihydro-1~{H}-purin-8-ylium-9-yl)tetrahydrofuran-2-yl]methoxy-oxido-phosphoryl]oxy-oxido-phosphoryl] hydrogen phosphate
   45    47     1     0     0
SMALL
USER_CHARGES

@<TRIPOS>ATOM
      1 PG         -2.4992   -1.1194   -3.0765 P.3       1 ATP         1.5631
      2 O1G        -1.7302   -0.3539   -4.1301 O.co2     1 ATP        -0.8806
      3 O2G        -2.6861   -0.5538   -1.6862 O.co2     1 ATP        -0.8806
      4 O3G        -3.9663   -1.5032   -3.6816 O.3       1 ATP        -0.8165
      5 PB         -0.4171   -3.1149   -2.4234 P.3       1 ATP         1.6877
      6 O1B        -0.1802   -2.5286   -1.0495 O.co2     1 ATP        -0.8727
      7 O2B        -0.2816   -4.6001   -2.6754 O.co2     1 ATP        -0.8727
      8 O3B        -1.8805   -2.6249   -2.9563 O.3       1 ATP        -0.8330
      9 PA          2.1372   -2.2718   -3.6563 P.3       1 ATP         1.6036
     10 O1A         2.4977   -1.2667   -4.7287 O.co2     1 ATP        -0.9062
     11 O2A         2.6452   -3.6953   -3.7281 O.co2     1 ATP        -0.9062
     12 O3A         0.5112   -2.3140   -3.5013 O.3       1 ATP        -0.8166
     13 O5'         2.5245   -1.6648   -2.1878 O.3       1 ATP        -0.5510
     14 C5'         2.2816   -0.2918   -1.9206 C.3       1 ATP         0.2099
     15 C4'         2.7248    0.0226   -0.4980 C.3       1 ATP         0.0598
     16 O4'         2.4697    1.4219   -0.2462 O.3       1 ATP        -0.3455
     17 C3'         1.9404   -0.7419    0.5596 C.3       1 ATP         0.0742
     18 O3'         2.7418   -0.8086    1.7389 O.3       1 ATP        -0.6025
     19 C2'         0.7477    0.1630    0.7858 C.3       1 ATP         0.1145
     20 O2'         0.1373   -0.0577    2.0407 O.3       1 ATP        -0.5835
     21 C1'         1.3733    1.5427    0.6747 C.3       1 ATP         0.3776
     22 N9          0.4520    2.5240    0.1767 N.pl3     1 ATP        -0.4429
     23 C8          0.2216    2.8192   -1.0985 C.ar      1 ATP         0.2964
     24 N7         -0.6906    3.7763   -1.2384 N.pl3     1 ATP        -0.4957
     25 C5         -1.0575    4.1037    0.0366 C.ar      1 ATP        -0.1346
     26 C6         -2.0291    5.0943    0.5330 C.ar      1 ATP         0.7213
     27 N6         -2.7093    5.8371   -0.2800 N.2       1 ATP        -0.8215
     28 N1         -2.1051    5.1136    1.9204 N.pl3     1 ATP        -0.8455
     29 C2         -1.3354    4.2774    2.7129 C.ar      1 ATP         0.6477
     30 N3         -0.4707    3.3945    2.2944 N.2       1 ATP        -0.5707
     31 C4         -0.3734    3.3525    0.9220 C.ar      1 ATP         0.2637
     32 HOG3       -4.5887   -2.0055   -3.1137 H         1 ATP         0.4378
     33 H5'1        2.8432    0.3119   -2.6398 H         1 ATP         0.0340
     34 H5'2        1.2128   -0.0927   -2.0428 H         1 ATP         0.0340
     35 H4'         3.8044   -0.1397   -0.4040 H         1 ATP         0.0910
     36 H3'         1.6764   -1.7639    0.2728 H         1 ATP         0.0656
     37 HO3'        2.2232   -1.2979    2.3953 H         1 ATP         0.4386
     38 H2'        -0.0011    0.0027    0.0003 H         1 ATP         0.0788
     39 HO2'       -0.6141    0.5574    2.1082 H         1 ATP         0.4363
     40 H1'         1.7826    1.9024    1.6451 H         1 ATP         0.1225
     41 H8          0.7125    2.3429   -1.9292 H         1 ATP         0.3824
     42 HN62       -3.3217    6.4517    0.2629 H         1 ATP         0.4018
     43 H2         -1.5188    4.4223    3.7890 H         1 ATP         0.0652
     44 H44        -2.7470    5.7626    2.3665 H         1 ATP         0.4503
     45 H45        -1.0305    4.1680   -2.1054 H         1 ATP         0.5209
@<TRIPOS>BOND
     1    1    2 2
     2    1    3 1
     3    1    4 1
     4    1    8 1
     5    4   32 1
     6    5    6 2
     7    5    7 1
     8    5    8 1
     9    5   12 1
    10    9   10 2
    11    9   11 1
    12    9   12 1
    13    9   13 1
    14   13   14 1
    15   14   15 1
    16   14   33 1
    17   14   34 1
    18   15   16 1
    19   15   17 1
    20   15   35 1
    21   16   21 1
    22   17   18 1
    23   17   19 1
    24   17   36 1
    25   18   37 1
    26   19   20 1
    27   19   21 1
    28   19   38 1
    29   20   39 1
    30   21   22 1
    31   21   40 1
    32   22   23 ar
    33   22   31 ar
    34   23   24 ar
    35   23   41 1
    36   24   25 ar
    37   24   45 1
    38   25   26 ar
    39   25   31 ar
    40   26   27 2
    41   26   28 ar
    42   27   42 1
    43   28   29 ar
    44   28   44 1
    45   29   30 ar
    46   29   43 1
    47   30   31 ar
@<TRIPOS>SUBSTRUCTURE
     1 ATP         1 GROUP 0 A     ****
@<TRIPOS>MOLECULE
[[[3,4-dihydroxy-5-(6-imino-7,8-dihydro-1~{H}-purin-8-ylium-9-yl)tetrahydrofuran-2-yl]methoxy-oxido-phosphoryl]oxy-oxido-phosphoryl] hydrogen phosphate
   45    47     1     0     0
SMALL
USER_CHARGES

@<TRIPOS>ATOM
      1 PG          6.1498   -0.4199   -5.5613 P.3       1 ATP         1.5631
      2 O1G         6.9673   -1.5456   -6.1546 O.co2     1 ATP        -0.8806
      3 O2G         5.9779   -0.2895   -4.0642 O.co2     1 ATP        -0.8806
      4 O3G         6.7177    0.9960   -6.1432 O.3       1 ATP        -0.8165
      5 PB          3.4664   -1.4950   -6.1831 P.3       1 ATP         1.6877
      6 O1B         2.2520   -0.9254   -6.8820 O.co2     1 ATP        -0.8727
      7 O2B         4.0141   -2.8564   -6.5492 O.co2     1 ATP        -0.8727
      8 O3B         4.6779   -0.4037   -6.2661 O.3       1 ATP        -0.8330
      9 PA          2.1372   -2.2718   -3.6563 P.3       1 ATP         1.6036
     10 O1A         2.4859   -3.7437   -3.7017 O.co2     1 ATP        -0.9062
     11 O2A         0.7459   -1.7951   -4.0125 O.co2     1 ATP        -0.9062
     12 O3A         3.2120   -1.4489   -4.5713 O.3       1 ATP        -0.8166
     13 O5'         2.5245   -1.6648   -2.1878 O.3       1 ATP        -0.5510
     14 C5'         2.2816   -0.2918   -1.9206 C.3       1 ATP         0.2099
     15 C4'         2.7248    0.0226   -0.4980 C.3       1 ATP         0.0598
     16 O4'         2.4697    1.4219   -0.2462 O.3       1 ATP        -0.3455
     17 C3'         1.9404   -0.7419    0.5596 C.3       1 ATP         0.0742
     18 O3'         2.7418   -0.8086    1.7389 O.3       1 ATP        -0.6025
     19 C2'         0.7477    0.1630    0.7858 C.3       1 ATP         0.1145
     20 O2'         0.1373   -0.0577    2.0407 O.3       1 ATP        -0.5835
     21 C1'         1.3733    1.5427    0.6747 C.3       1 ATP         0.3776
     22 N9          0.4520    2.5240    0.1767 N.pl3     1 ATP        -0.4429
     23 C8          0.2216    2.8192   -1.0985 C.ar      1 ATP         0.2964
     24 N7         -0.6906    3.7763   -1.2384 N.pl3     1 ATP        -0.4957
     25 C5         -1.0575    4.1037    0.0366 C.ar      1 ATP        -0.1346
     26 C6         -2.0291    5.0943    0.5330 C.ar      1 ATP         0.7213
     27 N6         -2.7093    5.8371   -0.2800 N.2       1 ATP        -0.8215
     28 N1         -2.1051    5.1136    1.9204 N.pl3     1 ATP        -0.8455
     29 C2         -1.3354    4.2774    2.7129 C.ar      1 ATP         0.6477
     30 N3         -0.4707    3.3945    2.2944 N.2       1 ATP        -0.5707
     31 C4         -0.3734    3.3525    0.9220 C.ar      1 ATP         0.2637
     32 HOG3        6.2878    1.8274   -5.8496 H         1 ATP         0.4378
     33 H5'1        2.8432    0.3119   -2.6398 H         1 ATP         0.0340
     34 H5'2        1.2128   -0.0927   -2.0428 H         1 ATP         0.0340
     35 H4'         3.8044   -0.1397   -0.4040 H         1 ATP         0.0910
     36 H3'         1.6764   -1.7639    0.2728 H         1 ATP         0.0656
     37 HO3'        2.2232   -1.2979    2.3953 H         1 ATP         0.4386
     38 H2'        -0.0011    0.0027    0.0003 H         1 ATP         0.0788
     39 HO2'       -0.6141    0.5574    2.1082 H         1 ATP         0.4363
     40 H1'         1.7826    1.9024    1.6451 H         1 ATP         0.1225
     41 H8          0.7125    2.3429   -1.9292 H         1 ATP         0.3824
     42 HN62       -3.3217    6.4517    0.2629 H         1 ATP         0.4018
     43 H2         -1.5188    4.4223    3.7890 H         1 ATP         0.0652
     44 H44        -2.7470    5.7626    2.3665 H         1 ATP         0.4503
     45 H45        -1.0305    4.1680   -2.1054 H         1 ATP         0.5209
@<TRIPOS>BOND
     1    1    2 2
     2    1    3 1
     3    1    4 1
     4    1    8 1
     5    4   32 1
     6    5    6 2
     7    5    7 1
     8    5    8 1
     9    5   12 1
    10    9   10 2
    11    9   11 1
    12    9   12 1
    13    9   13 1
    14   13   14 1
    15   14   15 1
    16   14   33 1
    17   14   34 1
    18   15   16 1
    19   15   17 1
    20   15   35 1
    21   16   21 1
    22   17   18 1
    23   17   19 1
    24   17   36 1
    25   18   37 1
    26   19   20 1
    27   19   21 1
    28   19   38 1
    29   20   39 1
    30   21   22 1
    31   21   40 1
    32   22   23 ar
    33   22   31 ar
    34   23   24 ar
    35   23   41 1
    36   24   25 ar
    37   24   45 1
    38   25   26 ar
    39   25   31 ar
    40   26   27 2
    41   26   28 ar
    42   27   42 1
    43   28   29 ar
    44   28   44 1
    45   29   30 ar
    46   29   43 1
    47   30   31 ar
@<TRIPOS>SUBSTRUCTURE
     1 ATP         1 GROUP 0 A     ****
@<TRIPOS>MOLECULE
[[[3,4-dihydroxy-5-(6-imino-7,8-dihydro-1~{H}-purin-8-ylium-9-yl)tetrahydrofuran-2-yl]methoxy-oxido-phosphoryl]oxy-oxido-phosphoryl] hydrogen phosphate
   45    47     1     0     0
SMALL
USER_CHARGES

@<TRIPOS>ATOM
      1 PG          4.6412    1.1678   -5.9054 P.3       1 ATP         1.5631
      2 O1G         5.3363    2.0181   -4.8655 O.co2     1 ATP        -0.8806
      3 O2G         3.1370    1.2029   -6.0592 O.co2     1 ATP        -0.8806
      4 O3G         5.3182    1.4709   -7.3600 O.3       1 ATP        -0.8165
      5 PB          4.8431   -1.4299   -4.5074 P.3       1 ATP         1.6877
      6 O1B         5.3599   -2.7929   -4.9108 O.co2     1 ATP        -0.8727
      7 O2B         5.2704   -0.7830   -3.2088 O.co2     1 ATP        -0.8727
      8 O3B         5.1189   -0.3828   -5.7294 O.3       1 ATP        -0.8330
      9 PA          2.1372   -2.2718   -3.6563 P.3       1 ATP         1.6036
     10 O1A         2.4859   -3.7437   -3.7017 O.co2     1 ATP        -0.9062
     11 O2A         0.7459   -1.7951   -4.0125 O.co2     1 ATP        -0.9062
     12 O3A         3.2120   -1.4489   -4.5713 O.3       1 ATP        -0.8166
     13 O5'         2.5245   -1.6648   -2.1878 O.3       1 ATP        -0.5510
     14 C5'         2.2816   -0.2918   -1.9206 C.3       1 ATP         0.2099
     15 C4'         2.7248    0.0226   -0.4980 C.3       1 ATP         0.0598
     16 O4'         2.4697    1.4219   -0.2462 O.3       1 ATP        -0.3455
     17 C3'         1.9404   -0.7419    0.5596 C.3       1 ATP         0.0742
     18 O3'         2.7418   -0.8086    1.7389 O.3       1 ATP        -0.6025
     19 C2'         0.7477    0.1630    0.7858 C.3       1 ATP         0.1145
     20 O2'         0.1373   -0.0577    2.0407 O.3       1 ATP        -0.5835
     21 C1'         1.3733    1.5427    0.6747 C.3       1 ATP         0.3776
     22 N9          0.4520    2.5240    0.1767 N.pl3     1 ATP        -0.4429
     23 C8          0.2216    2.8192   -1.0985 C.ar      1 ATP         0.2964
     24 N7         -0.6906    3.7763   -1.2384 N.pl3     1 ATP        -0.4957
     25 C5         -1.0575    4.1037    0.0366 C.ar      1 ATP        -0.1346
     26 C6         -2.0291    5.0943    0.5330 C.ar      1 ATP         0.7213
     27 N6         -2.7093    5.8371   -0.2800 N.2       1 ATP        -0.8215
     28 N1         -2.1051    5.1136    1.9204 N.pl3     1 ATP        -0.8455
     29 C2         -1.3354    4.2774    2.7129 C.ar      1 ATP         0.6477
     30 N3         -0.4707    3.3945    2.2944 N.2       1 ATP        -0.5707
     31 C4         -0.3734    3.3525    0.9220 C.ar      1 ATP         0.2637
     32 HOG3        4.9739    0.9924   -8.1440 H         1 ATP         0.4378
     33 H5'1        2.8432    0.3119   -2.6398 H         1 ATP         0.0340
     34 H5'2        1.2128   -0.0927   -2.0428 H         1 ATP         0.0340
     35 H4'         3.8044   -0.1397   -0.4040 H         1 ATP         0.0910
     36 H3'         1.6764   -1.7639    0.2728 H         1 ATP         0.0656
     37 HO3'        2.2232   -1.2979    2.3953 H         1 ATP         0.4386
     38 H2'        -0.0011    0.0027    0.0003 H         1 ATP         0.0788
     39 HO2'       -0.6141    0.5574    2.1082 H         1 ATP         0.4363
     40 H1'         1.7826    1.9024    1.6451 H         1 ATP         0.1225
     41 H8          0.7125    2.3429   -1.9292 H         1 ATP         0.3824
     42 HN62       -3.3217    6.4517    0.2629 H         1 ATP         0.4018
     43 H2         -1.5188    4.4223    3.7890 H         1 ATP         0.0652
     44 H44        -2.7470    5.7626    2.3665 H         1 ATP         0.4503
     45 H45        -1.0305    4.1680   -2.1054 H         1 ATP         0.5209
@<TRIPOS>BOND
     1    1    2 2
     2    1    3 1
     3    1    4 1
     4    1    8 1
     5    4   32 1
     6    5    6 2
     7    5    7 1
     8    5    8 1
     9    5   12 1
    10    9   10 2
    11    9   11 1
    12    9   12 1
    13    9   13 1
    14   13   14 1
    15   14   15 1
    16   14   33 1
    17   14   34 1
    18   15   16 1
    19   15   17 1
    20   15   35 1
    21   16   21 1
    22   17   18 1
    23   17   19 1
    24   17   36 1
    25   18   37 1
    26   19   20 1
    27   19   21 1
    28   19   38 1
    29   20   39 1
    30   21   22 1
    31   21   40 1
    32   22   23 ar
    33   22   31 ar
    34   23   24 ar
    35   23   41 1
    36   24   25 ar
    37   24   45 1
    38   25   26 ar
    39   25   31 ar
    40   26   27 2
    41   26   28 ar
    42   27   42 1
    43   28   29 ar
    44   28   44 1
    45   29   30 ar
    46   29   43 1
    47   30   31 ar
@<TRIPOS>SUBSTRUCTURE
     1 ATP         1 GROUP 0 A     ****
@<TRIPOS>MOLECULE
[[[3,4-dihydroxy-5-(6-imino-7,8-dihydro-1~{H}-purin-8-ylium-9-yl)tetrahydrofuran-2-yl]methoxy-oxido-phosphoryl]oxy-oxido-phosphoryl] hydrogen phosphate
   45    47     1     0     0
SMALL
USER_CHARGES

@<TRIPOS>ATOM
      1 PG         -6.9952   -3.7178    0.2613 P.3       1 ATP         1.5631
      2 O1G        -7.7366   -3.1686    1.4597 O.co2     1 ATP        -0.8806
      3 O2G        -7.6101   -4.7923   -0.6076 O.co2     1 ATP        -0.8806
      4 O3G        -6.5544   -2.4686   -0.6931 O.3       1 ATP        -0.8165
      5 PB         -5.0753   -5.4290    1.7204 P.3       1 ATP         1.6877
      6 O1B        -5.5496   -5.1137    3.1215 O.co2     1 ATP        -0.8727
      7 O2B        -5.4255   -6.7394    1.0512 O.co2     1 ATP        -0.8727
      8 O3B        -5.5102   -4.2041    0.7325 O.3       1 ATP        -0.8330
      9 PA         -2.2652   -6.0681    2.3913 P.3       1 ATP         1.6036
     10 O1A        -2.2513   -7.4754    1.8349 O.co2     1 ATP        -0.9062
     11 O2A        -2.3602   -5.8267    3.8821 O.co2     1 ATP        -0.9062
     12 O3A        -3.4569   -5.2249    1.6575 O.3       1 ATP        -0.8166
     13 O5'        -0.9724   -5.2440    1.8220 O.3       1 ATP        -0.5510
     14 C5'        -0.7840   -3.8935    2.2172 C.3       1 ATP         0.2099
     15 C4'        -0.0724   -3.1466    1.1027 C.3       1 ATP         0.0598
     16 O4'        -0.8674   -3.1929   -0.0945 O.3       1 ATP        -0.3455
     17 C3'         0.1338   -1.6715    1.4027 C.3       1 ATP         0.0742
     18 O3'         1.2893   -1.4445    2.1808 O.3       1 ATP        -0.6025
     19 C2'         0.2158   -1.0724    0.0128 C.3       1 ATP         0.1145
     20 O2'         1.5141   -1.2448   -0.5513 O.3       1 ATP        -0.5835
     21 C1'        -0.7897   -1.9176   -0.7583 C.3       1 ATP         0.3776
     22 N9         -2.1040   -1.3333   -0.7704 N.pl3     1 ATP        -0.4429
     23 C8         -3.0590   -1.5123    0.1363 C.ar      1 ATP         0.2964
     24 N7         -4.1655   -0.8354   -0.1554 N.pl3     1 ATP        -0.4957
     25 C5         -3.8852   -0.1874   -1.3253 C.ar      1 ATP        -0.1346
     26 C6         -4.7113    0.7160   -2.1458 C.ar      1 ATP         0.7213
     27 N6         -5.9213    1.0209   -1.8021 N.2       1 ATP        -0.8215
     28 N1         -4.0411    1.1673   -3.2764 N.pl3     1 ATP        -0.8455
     29 C2         -2.7403    0.7865   -3.5638 C.ar      1 ATP         0.6477
     30 N3         -1.9921   -0.0108   -2.8519 N.2       1 ATP        -0.5707
     31 C4         -2.6302   -0.4747   -1.7239 C.ar      1 ATP         0.2637
     32 HOG3       -6.0604   -2.6628   -1.5180 H         1 ATP         0.4378
     33 H5'1       -1.7618   -3.4448    2.4164 H         1 ATP         0.0340
     34 H5'2       -0.1874   -3.8744    3.1341 H         1 ATP         0.0340
     35 H4'         0.8874   -3.6466    0.8805 H         1 ATP         0.0910
     36 H3'        -0.7376   -1.2333    1.9867 H         1 ATP         0.0656
     37 HO3'        1.3408   -0.4870    2.3219 H         1 ATP         0.4386
     38 H2'        -0.0384   -0.0310    0.0096 H         1 ATP         0.0788
     39 HO2'        2.1463   -0.7958    0.0370 H         1 ATP         0.4363
     40 H1'        -0.4769   -2.1002   -1.8093 H         1 ATP         0.1225
     41 H8         -2.9569   -2.1323    1.0098 H         1 ATP         0.3824
     42 HN62       -6.3169    1.6552   -2.5012 H         1 ATP         0.4018
     43 H2         -2.3612    1.2343   -4.4957 H         1 ATP         0.0652
     44 H44        -4.5223    1.7976   -3.9117 H         1 ATP         0.4503
     45 H45        -5.0218   -0.8132    0.3804 H         1 ATP         0.5209
@<TRIPOS>BOND
     1    1    2 2
     2    1    3 1
     3    1    4 1
     4    1    8 1
     5    4   32 1
     6    5    6 2
     7    5    7 1
     8    5    8 1
     9    5   12 1
    10    9   10 2
    11    9   11 1
    12    9   12 1
    13    9   13 1
    14   13   14 1
    15   14   15 1
    16   14   33 1
    17   14   34 1
    18   15   16 1
    19   15   17 1
    20   15   35 1
    21   16   21 1
    22   17   18 1
    23   17   19 1
    24   17   36 1
    25   18   37 1
    26   19   20 1
    27   19   21 1
    28   19   38 1
    29   20   39 1
    30   21   22 1
    31   21   40 1
    32   22   23 ar
    33   22   31 ar
    34   23   24 ar
    35   23   41 1
    36   24   25 ar
    37   24   45 1
    38   25   26 ar
    39   25   31 ar
    40   26   27 2
    41   26   28 ar
    42   27   42 1
    43   28   29 ar
    44   28   44 1
    45   29   30 ar
    46   29   43 1
    47   30   31 ar
@<TRIPOS>SUBSTRUCTURE
     1 ATP         1 GROUP 0 A     ****
@<TRIPOS>MOLECULE
[[[3,4-dihydroxy-5-(6-imino-7,8-dihydro-1~{H}-purin-8-ylium-9-yl)tetrahydrofuran-2-yl]methoxy-oxido-phosphoryl]oxy-oxido-phosphoryl] hydrogen phosphate
   45    47     1     0     0
SMALL
USER_CHARGES

@<TRIPOS>ATOM
      1 PG          3.7351   -5.6169   -5.6103 P.3       1 ATP         1.5631
      2 O1G         4.9492   -5.6842   -6.5097 O.co2     1 ATP        -0.8806
      3 O2G         2.3803   -6.0803   -6.0974 O.co2     1 ATP        -0.8806
      4 O3G         4.0786   -6.3945   -4.2163 O.3       1 ATP        -0.8165
      5 PB          3.2549   -2.7049   -5.7930 P.3       1 ATP         1.6877
      6 O1B         4.4052   -2.3691   -6.7158 O.co2     1 ATP        -0.8727
      7 O2B         1.8330   -2.7677   -6.3046 O.co2     1 ATP        -0.8727
      8 O3B         3.5951   -4.1019   -5.0195 O.3       1 ATP        -0.8330
      9 PA          3.0675   -0.0857   -4.4293 P.3       1 ATP         1.6036
     10 O1A         1.6267    0.2117   -4.7841 O.co2     1 ATP        -0.9062
     11 O2A         4.2015    0.5978   -5.1618 O.co2     1 ATP        -0.9062
     12 O3A         3.3051   -1.7004   -4.5072 O.3       1 ATP        -0.8166
     13 O5'         3.2903    0.1346   -2.8241 O.3       1 ATP        -0.5510
     14 C5'         2.2816   -0.2918   -1.9206 C.3       1 ATP         0.2099
     15 C4'         2.7248    0.0226   -0.4980 C.3       1 ATP         0.0598
     16 O4'         2.4697    1.4219   -0.2462 O.3       1 ATP        -0.3455
     17 C3'         1.9404   -0.7419    0.5596 C.3       1 ATP         0.0742
     18 O3'         2.7418   -0.8086    1.7389 O.3       1 ATP        -0.6025
     19 C2'         0.7477    0.1630    0.7858 C.3       1 ATP         0.1145
     20 O2'         0.1373   -0.0577    2.0407 O.3       1 ATP        -0.5835
     21 C1'         1.3733    1.5427    0.6747 C.3       1 ATP         0.3776
     22 N9          0.4520    2.5240    0.1767 N.pl3     1 ATP        -0.4429
     23 C8          0.2216    2.8192   -1.0985 C.ar      1 ATP         0.2964
     24 N7         -0.6906    3.7763   -1.2384 N.pl3     1 ATP        -0.4957
     25 C5         -1.0575    4.1037    0.0366 C.ar      1 ATP        -0.1346
     26 C6         -2.0291    5.0943    0.5330 C.ar      1 ATP         0.7213
     27 N6         -2.7093    5.8371   -0.2800 N.2       1 ATP        -0.8215
     28 N1         -2.1051    5.1136    1.9204 N.pl3     1 ATP        -0.8455
     29 C2         -1.3354    4.2774    2.7129 C.ar      1 ATP         0.6477
     30 N3         -0.4707    3.3945    2.2944 N.2       1 ATP        -0.5707
     31 C4         -0.3734    3.3525    0.9220 C.ar      1 ATP         0.2637
     32 HOG3        3.3857   -6.4387   -3.5233 H         1 ATP         0.4378
     33 H5'1        1.3514    0.2330   -2.1577 H         1 ATP         0.0340
     34 H5'2        2.1280   -1.3678   -2.0460 H         1 ATP         0.0340
     35 H4'         3.8044   -0.1397   -0.4040 H         1 ATP         0.0910
     36 H3'         1.6764   -1.7639    0.2728 H         1 ATP         0.0656
     37 HO3'        2.2232   -1.2979    2.3953 H         1 ATP         0.4386
     38 H2'        -0.0011    0.0027    0.0003 H         1 ATP         0.0788
     39 HO2'       -0.1563   -0.9855    2.0596 H         1 ATP         0.4363
     40 H1'         1.7826    1.9024    1.6451 H         1 ATP         0.1225
     41 H8          0.7125    2.3429   -1.9292 H         1 ATP         0.3824
     42 HN62       -3.3217    6.4517    0.2629 H         1 ATP         0.4018
     43 H2         -1.5188    4.4223    3.7890 H         1 ATP         0.0652
     44 H44        -2.7470    5.7626    2.3665 H         1 ATP         0.4503
     45 H45        -1.0305    4.1680   -2.1054 H         1 ATP         0.5209
@<TRIPOS>BOND
     1    1    2 2
     2    1    3 1
     3    1    4 1
     4    1    8 1
     5    4   32 1
     6    5    6 2
     7    5    7 1
     8    5    8 1
     9    5   12 1
    10    9   10 2
    11    9   11 1
    12    9   12 1
    13    9   13 1
    14   13   14 1
    15   14   15 1
    16   14   33 1
    17   14   34 1
    18   15   16 1
    19   15   17 1
    20   15   35 1
    21   16   21 1
    22   17   18 1
    23   17   19 1
    24   17   36 1
    25   18   37 1
    26   19   20 1
    27   19   21 1
    28   19   38 1
    29   20   39 1
    30   21   22 1
    31   21   40 1
    32   22   23 ar
    33   22   31 ar
    34   23   24 ar
    35   23   41 1
    36   24   25 ar
    37   24   45 1
    38   25   26 ar
    39   25   31 ar
    40   26   27 2
    41   26   28 ar
    42   27   42 1
    43   28   29 ar
    44   28   44 1
    45   29   30 ar
    46   29   43 1
    47   30   31 ar
@<TRIPOS>SUBSTRUCTURE
     1 ATP         1 GROUP 0 A     ****
@<TRIPOS>MOLECULE
[[[3,4-dihydroxy-5-(6-imino-7,8-dihydro-1~{H}-purin-8-ylium-9-yl)tetrahydrofuran-2-yl]methoxy-oxido-phosphoryl]oxy-oxido-phosphoryl] hydrogen phosphate
   45    47     1     0     0
SMALL
USER_CHARGES

@<TRIPOS>ATOM
      1 PG          1.3972   -0.8149   -8.1831 P.3       1 ATP         1.5631
      2 O1G         1.3297   -2.1571   -8.8769 O.co2     1 ATP        -0.8806
      3 O2G         2.1072    0.3566   -8.8242 O.co2     1 ATP        -0.8806
      4 O3G        -0.1208   -0.3534   -7.7977 O.3       1 ATP        -0.8165
      5 PB          3.4664   -1.4950   -6.1831 P.3       1 ATP         1.6877
      6 O1B         3.6827   -2.9330   -6.5989 O.co2     1 ATP        -0.8727
      7 O2B         4.4611   -0.4158   -6.5485 O.co2     1 ATP        -0.8727
      8 O3B         1.9815   -1.0260   -6.6738 O.3       1 ATP        -0.8330
      9 PA          2.1372   -2.2718   -3.6563 P.3       1 ATP         1.6036
     10 O1A         2.4859   -3.7437   -3.7017 O.co2     1 ATP        -0.9062
     11 O2A         0.7459   -1.7951   -4.0125 O.co2     1 ATP        -0.9062
     12 O3A         3.2120   -1.4489   -4.5713 O.3       1 ATP        -0.8166
     13 O5'         2.5245   -1.6648   -2.1878 O.3       1 ATP        -0.5510
     14 C5'         2.2816   -0.2918   -1.9206 C.3       1 ATP         0.2099
     15 C4'         2.7248    0.0226   -0.4980 C.3       1 ATP         0.0598
     16 O4'         2.4697    1.4219   -0.2462 O.3       1 ATP        -0.3455
     17 C3'         1.9404   -0.7419    0.5596 C.3       1 ATP         0.0742
     18 O3'         2.7418   -0.8086    1.7389 O.3       1 ATP        -0.6025
     19 C2'         0.7477    0.1630    0.7858 C.3       1 ATP         0.1145
     20 O2'         0.1373   -0.0577    2.0407 O.3       1 ATP        -0.5835
     21 C1'         1.3733    1.5427    0.6747 C.3       1 ATP         0.3776
     22 N9          0.4520    2.5240    0.1767 N.pl3     1 ATP        -0.4429
     23 C8          0.2216    2.8192   -1.0985 C.ar      1 ATP         0.2964
     24 N7         -0.6906    3.7763   -1.2384 N.pl3     1 ATP        -0.4957
     25 C5         -1.0575    4.1037    0.0366 C.ar      1 ATP        -0.1346
     26 C6         -2.0291    5.0943    0.5330 C.ar      1 ATP         0.7213
     27 N6         -2.7093    5.8371   -0.2800 N.2       1 ATP        -0.8215
     28 N1         -2.1051    5.1136    1.9204 N.pl3     1 ATP        -0.8455
     29 C2         -1.3354    4.2774    2.7129 C.ar      1 ATP         0.6477
     30 N3         -0.4707    3.3945    2.2944 N.2       1 ATP        -0.5707
     31 C4         -0.3734    3.3525    0.9220 C.ar      1 ATP         0.2637
     32 HOG3       -0.2456    0.5043   -7.3383 H         1 ATP         0.4378
     33 H5'1        2.8432    0.3119   -2.6398 H         1 ATP         0.0340
     34 H5'2        1.2128   -0.0927   -2.0428 H         1 ATP         0.0340
     35 H4'         3.8044   -0.1397   -0.4040 H         1 ATP         0.0910
     36 H3'         1.6764   -1.7639    0.2728 H         1 ATP         0.0656
     37 HO3'        2.2232   -1.2979    2.3953 H         1 ATP         0.4386
     38 H2'        -0.0011    0.0027    0.0003 H         1 ATP         0.0788
     39 HO2'       -0.6141    0.5574    2.1082 H         1 ATP         0.4363
     40 H1'         1.7826    1.9024    1.6451 H         1 ATP         0.1225
     41 H8          0.7125    2.3429   -1.9292 H         1 ATP         0.3824
     42 HN62       -3.3217    6.4517    0.2629 H         1 ATP         0.4018
     43 H2         -1.5188    4.4223    3.7890 H         1 ATP         0.0652
     44 H44        -2.7470    5.7626    2.3665 H         1 ATP         0.4503
     45 H45        -1.0305    4.1680   -2.1054 H         1 ATP         0.5209
@<TRIPOS>BOND
     1    1    2 2
     2    1    3 1
     3    1    4 1
     4    1    8 1
     5    4   32 1
     6    5    6 2
     7    5    7 1
     8    5    8 1
     9    5   12 1
    10    9   10 2
    11    9   11 1
    12    9   12 1
    13    9   13 1
    14   13   14 1
    15   14   15 1
    16   14   33 1
    17   14   34 1
    18   15   16 1
    19   15   17 1
    20   15   35 1
    21   16   21 1
    22   17   18 1
    23   17   19 1
    24   17   36 1
    25   18   37 1
    26   19   20 1
    27   19   21 1
    28   19   38 1
    29   20   39 1
    30   21   22 1
    31   21   40 1
    32   22   23 ar
    33   22   31 ar
    34   23   24 ar
    35   23   41 1
    36   24   25 ar
    37   24   45 1
    38   25   26 ar
    39   25   31 ar
    40   26   27 2
    41   26   28 ar
    42   27   42 1
    43   28   29 ar
    44   28   44 1
    45   29   30 ar
    46   29   43 1
    47   30   31 ar
@<TRIPOS>SUBSTRUCTURE
     1 ATP         1 GROUP 0 A     ****
@<TRIPOS>MOLECULE
[[[3,4-dihydroxy-5-(6-imino-7,8-dihydro-1~{H}-purin-8-ylium-9-yl)tetrahydrofuran-2-yl]methoxy-oxido-phosphoryl]oxy-oxido-phosphoryl] hydrogen phosphate
   45    47     1     0     0
SMALL
USER_CHARGES

@<TRIPOS>ATOM
      1 PG         -0.9577    2.2963   -6.7250 P.3       1 ATP         1.5631
      2 O1G        -1.7820    1.0431   -6.9186 O.co2     1 ATP        -0.8806
      3 O2G        -0.3289    3.0031   -7.9051 O.co2     1 ATP        -0.8806
      4 O3G        -1.8482    3.3784   -5.8870 O.3       1 ATP        -0.8165
      5 PB          1.2543    3.0325   -4.9061 P.3       1 ATP         1.6877
      6 O1B         2.2261    3.5186   -5.9582 O.co2     1 ATP        -0.8727
      7 O2B         0.4864    4.0057   -4.0397 O.co2     1 ATP        -0.8727
      8 O3B         0.1949    2.0065   -5.6064 O.3       1 ATP        -0.8330
      9 PA          2.8621    0.6170   -4.3270 P.3       1 ATP         1.6036
     10 O1A         4.0995    1.0217   -5.0986 O.co2     1 ATP        -0.9062
     11 O2A         1.8962   -0.4011   -4.8927 O.co2     1 ATP        -0.9062
     12 O3A         2.0209    1.9632   -3.9398 O.3       1 ATP        -0.8166
     13 O5'         3.2903    0.1346   -2.8241 O.3       1 ATP        -0.5510
     14 C5'         2.2816   -0.2918   -1.9206 C.3       1 ATP         0.2099
     15 C4'         2.7248    0.0226   -0.4980 C.3       1 ATP         0.0598
     16 O4'         2.4697    1.4219   -0.2462 O.3       1 ATP        -0.3455
     17 C3'         1.9404   -0.7419    0.5596 C.3       1 ATP         0.0742
     18 O3'         2.7418   -0.8086    1.7389 O.3       1 ATP        -0.6025
     19 C2'         0.7477    0.1630    0.7858 C.3       1 ATP         0.1145
     20 O2'         0.1373   -0.0577    2.0407 O.3       1 ATP        -0.5835
     21 C1'         1.3733    1.5427    0.6747 C.3       1 ATP         0.3776
     22 N9          0.4520    2.5240    0.1767 N.pl3     1 ATP        -0.4429
     23 C8         -0.2004    2.4829   -0.9804 C.ar      1 ATP         0.2964
     24 N7         -0.9830    3.5431   -1.1568 N.pl3     1 ATP        -0.4957
     25 C5         -0.8095    4.3012   -0.0331 C.ar      1 ATP        -0.1346
     26 C6         -1.4065    5.5904    0.3585 C.ar      1 ATP         0.7213
     27 N6         -2.2501    6.2030   -0.4084 N.2       1 ATP        -0.8215
     28 N1         -0.9585    6.0272    1.5994 N.pl3     1 ATP        -0.8455
     29 C2         -0.0508    5.3009    2.3532 C.ar      1 ATP         0.6477
     30 N3          0.4890    4.1592    2.0257 N.2       1 ATP        -0.5707
     31 C4          0.0637    3.7006    0.7995 C.ar      1 ATP         0.2637
     32 HOG3       -1.4493    4.2502   -5.6792 H         1 ATP         0.4378
     33 H5'1        1.3514    0.2330   -2.1577 H         1 ATP         0.0340
     34 H5'2        2.1280   -1.3678   -2.0460 H         1 ATP         0.0340
     35 H4'         3.8044   -0.1397   -0.4040 H         1 ATP         0.0910
     36 H3'         1.6764   -1.7639    0.2728 H         1 ATP         0.0656
     37 HO3'        2.2232   -1.2979    2.3953 H         1 ATP         0.4386
     38 H2'        -0.0011    0.0027    0.0003 H         1 ATP         0.0788
     39 HO2'       -0.6141    0.5574    2.1082 H         1 ATP         0.4363
     40 H1'         1.7826    1.9024    1.6451 H         1 ATP         0.1225
     41 H8         -0.1116    1.6863   -1.6984 H         1 ATP         0.3824
     42 HN62       -2.5420    7.0730    0.0447 H         1 ATP         0.4018
     43 H2          0.1969    5.7893    3.3086 H         1 ATP         0.0652
     44 H44        -1.3097    6.9080    1.9642 H         1 ATP         0.4503
     45 H45        -1.5735    3.7351   -1.9538 H         1 ATP         0.5209
@<TRIPOS>BOND
     1    1    2 2
     2    1    3 1
     3    1    4 1
     4    1    8 1
     5    4   32 1
     6    5    6 2
     7    5    7 1
     8    5    8 1
     9    5   12 1
    10    9   10 2
    11    9   11 1
    12    9   12 1
    13    9   13 1
    14   13   14 1
    15   14   15 1
    16   14   33 1
    17   14   34 1
    18   15   16 1
    19   15   17 1
    20   15   35 1
    21   16   21 1
    22   17   18 1
    23   17   19 1
    24   17   36 1
    25   18   37 1
    26   19   20 1
    27   19   21 1
    28   19   38 1
    29   20   39 1
    30   21   22 1
    31   21   40 1
    32   22   23 ar
    33   22   31 ar
    34   23   24 ar
    35   23   41 1
    36   24   25 ar
    37   24   45 1
    38   25   26 ar
    39   25   31 ar
    40   26   27 2
    41   26   28 ar
    42   27   42 1
    43   28   29 ar
    44   28   44 1
    45   29   30 ar
    46   29   43 1
    47   30   31 ar
@<TRIPOS>SUBSTRUCTURE
     1 ATP         1 GROUP 0 A     ****
@<TRIPOS>MOLECULE
[[[3,4-dihydroxy-5-(6-imino-7,8-dihydro-1~{H}-purin-8-ylium-9-yl)tetrahydrofuran-2-yl]methoxy-oxido-phosphoryl]oxy-oxido-phosphoryl] hydrogen phosphate
   45    47     1     0     0
SMALL
USER_CHARGES

@<TRIPOS>ATOM
      1 PG          4.2521   -3.9434   -7.6431 P.3       1 ATP         1.5631
      2 O1G         5.5831   -3.4538   -8.1687 O.co2     1 ATP        -0.8806
      3 O2G         3.0457   -4.0387   -8.5503 O.co2     1 ATP        -0.8806
      4 O3G         4.4787   -5.3935   -6.9277 O.3       1 ATP        -0.8165
      5 PB          3.4664   -1.4950   -6.1831 P.3       1 ATP         1.6877
      6 O1B         4.6910   -0.6677   -6.5046 O.co2     1 ATP        -0.8727
      7 O2B         2.1507   -1.2539   -6.8891 O.co2     1 ATP        -0.8727
      8 O3B         3.8518   -3.0756   -6.3200 O.3       1 ATP        -0.8330
      9 PA          2.1372   -2.2718   -3.6563 P.3       1 ATP         1.6036
     10 O1A         2.4859   -3.7437   -3.7017 O.co2     1 ATP        -0.9062
     11 O2A         0.7459   -1.7951   -4.0125 O.co2     1 ATP        -0.9062
     12 O3A         3.2120   -1.4489   -4.5713 O.3       1 ATP        -0.8166
     13 O5'         2.5245   -1.6648   -2.1878 O.3       1 ATP        -0.5510
     14 C5'         2.2816   -0.2918   -1.9206 C.3       1 ATP         0.2099
     15 C4'         2.7248    0.0226   -0.4980 C.3       1 ATP         0.0598
     16 O4'         2.4697    1.4219   -0.2462 O.3       1 ATP        -0.3455
     17 C3'         1.9404   -0.7419    0.5596 C.3       1 ATP         0.0742
     18 O3'         2.7418   -0.8086    1.7389 O.3       1 ATP        -0.6025
     19 C2'         0.7477    0.1630    0.7858 C.3       1 ATP         0.1145
     20 O2'         0.1373   -0.0577    2.0407 O.3       1 ATP        -0.5835
     21 C1'         1.3733    1.5427    0.6747 C.3       1 ATP         0.3776
     22 N9          0.4520    2.5240    0.1767 N.pl3     1 ATP        -0.4429
     23 C8          0.2216    2.8192   -1.0985 C.ar      1 ATP         0.2964
     24 N7         -0.6906    3.7763   -1.2384 N.pl3     1 ATP        -0.4957
     25 C5         -1.0575    4.1037    0.0366 C.ar      1 ATP        -0.1346
     26 C6         -2.0291    5.0943    0.5330 C.ar      1 ATP         0.7213
     27 N6         -2.7093    5.8371   -0.2800 N.2       1 ATP        -0.8215
     28 N1         -2.1051    5.1136    1.9204 N.pl3     1 ATP        -0.8455
     29 C2         -1.3354    4.2774    2.7129 C.ar      1 ATP         0.6477
     30 N3         -0.4707    3.3945    2.2944 N.2       1 ATP        -0.5707
     31 C4         -0.3734    3.3525    0.9220 C.ar      1 ATP         0.2637
     32 HOG3        3.7027   -5.8460   -6.5336 H         1 ATP         0.4378
     33 H5'1        2.8432    0.3119   -2.6398 H         1 ATP         0.0340
     34 H5'2        1.2128   -0.0927   -2.0428 H         1 ATP         0.0340
     35 H4'         3.8044   -0.1397   -0.4040 H         1 ATP         0.0910
     36 H3'         1.6764   -1.7639    0.2728 H         1 ATP         0.0656
     37 HO3'        2.2232   -1.2979    2.3953 H         1 ATP         0.4386
     38 H2'        -0.0011    0.0027    0.0003 H         1 ATP         0.0788
     39 HO2'       -0.6141    0.5574    2.1082 H         1 ATP         0.4363
     40 H1'         1.7826    1.9024    1.6451 H         1 ATP         0.1225
     41 H8          0.7125    2.3429   -1.9292 H         1 ATP         0.3824
     42 HN62       -3.3217    6.4517    0.2629 H         1 ATP         0.4018
     43 H2         -1.5188    4.4223    3.7890 H         1 ATP         0.0652
     44 H44        -2.7470    5.7626    2.3665 H         1 ATP         0.4503
     45 H45        -1.0305    4.1680   -2.1054 H         1 ATP         0.5209
@<TRIPOS>BOND
     1    1    2 2
     2    1    3 1
     3    1    4 1
     4    1    8 1
     5    4   32 1
     6    5    6 2
     7    5    7 1
     8    5    8 1
     9    5   12 1
    10    9   10 2
    11    9   11 1
    12    9   12 1
    13    9   13 1
    14   13   14 1
    15   14   15 1
    16   14   33 1
    17   14   34 1
    18   15   16 1
    19   15   17 1
    20   15   35 1
    21   16   21 1
    22   17   18 1
    23   17   19 1
    24   17   36 1
    25   18   37 1
    26   19   20 1
    27   19   21 1
    28   19   38 1
    29   20   39 1
    30   21   22 1
    31   21   40 1
    32   22   23 ar
    33   22   31 ar
    34   23   24 ar
    35   23   41 1
    36   24   25 ar
    37   24   45 1
    38   25   26 ar
    39   25   31 ar
    40   26   27 2
    41   26   28 ar
    42   27   42 1
    43   28   29 ar
    44   28   44 1
    45   29   30 ar
    46   29   43 1
    47   30   31 ar
@<TRIPOS>SUBSTRUCTURE
     1 ATP         1 GROUP 0 A     ****
@<TRIPOS>MOLECULE
[[[3,4-dihydroxy-5-(6-imino-7,8-dihydro-1~{H}-purin-8-ylium-9-yl)tetrahydrofuran-2-yl]methoxy-oxido-phosphoryl]oxy-oxido-phosphoryl] hydrogen phosphate
   45    47     1     0     0
SMALL
USER_CHARGES

@<TRIPOS>ATOM
      1 PG          7.3498   -4.0721   -3.9467 P.3       1 ATP         1.5631
      2 O1G         6.7512   -5.2318   -4.7109 O.co2     1 ATP        -0.8806
      3 O2G         8.0224   -4.2870   -2.6091 O.co2     1 ATP        -0.8806
      4 O3G         8.3896   -3.2849   -4.9292 O.3       1 ATP        -0.8165
      5 PB          5.3149   -2.1652   -4.9298 P.3       1 ATP         1.6877
      6 O1B         6.2224   -1.3429   -5.8173 O.co2     1 ATP        -0.8727
      7 O2B         4.3561   -3.1785   -5.5142 O.co2     1 ATP        -0.8727
      8 O3B         6.2237   -2.9011   -3.7905 O.3       1 ATP        -0.8330
      9 PA          3.3343   -0.0514   -4.3264 P.3       1 ATP         1.6036
     10 O1A         2.1154   -0.7746   -4.8569 O.co2     1 ATP        -0.9062
     11 O2A         3.9835    1.0584   -5.1242 O.co2     1 ATP        -0.9062
     12 O3A         4.4804   -1.1555   -3.9558 O.3       1 ATP        -0.8166
     13 O5'         3.0213    0.5153   -2.8245 O.3       1 ATP        -0.5510
     14 C5'         2.2816   -0.2918   -1.9206 C.3       1 ATP         0.2099
     15 C4'         2.7248    0.0226   -0.4980 C.3       1 ATP         0.0598
     16 O4'         2.4697    1.4219   -0.2462 O.3       1 ATP        -0.3455
     17 C3'         1.9404   -0.7419    0.5596 C.3       1 ATP         0.0742
     18 O3'         2.7418   -0.8086    1.7389 O.3       1 ATP        -0.6025
     19 C2'         0.7477    0.1630    0.7858 C.3       1 ATP         0.1145
     20 O2'         0.1373   -0.0577    2.0407 O.3       1 ATP        -0.5835
     21 C1'         1.3733    1.5427    0.6747 C.3       1 ATP         0.3776
     22 N9          0.4520    2.5240    0.1767 N.pl3     1 ATP        -0.4429
     23 C8          0.2216    2.8192   -1.0985 C.ar      1 ATP         0.2964
     24 N7         -0.6906    3.7763   -1.2384 N.pl3     1 ATP        -0.4957
     25 C5         -1.0575    4.1037    0.0366 C.ar      1 ATP        -0.1346
     26 C6         -2.0291    5.0943    0.5330 C.ar      1 ATP         0.7213
     27 N6         -2.7093    5.8371   -0.2800 N.2       1 ATP        -0.8215
     28 N1         -2.1051    5.1136    1.9204 N.pl3     1 ATP        -0.8455
     29 C2         -1.3354    4.2774    2.7129 C.ar      1 ATP         0.6477
     30 N3         -0.4707    3.3945    2.2944 N.2       1 ATP        -0.5707
     31 C4         -0.3734    3.3525    0.9220 C.ar      1 ATP         0.2637
     32 HOG3        8.8630   -2.5015   -4.5765 H         1 ATP         0.4378
     33 H5'1        1.2163   -0.0770   -2.0471 H         1 ATP         0.0340
     34 H5'2        2.4655   -1.3443   -2.1563 H         1 ATP         0.0340
     35 H4'         3.8044   -0.1397   -0.4040 H         1 ATP         0.0910
     36 H3'         1.6764   -1.7639    0.2728 H         1 ATP         0.0656
     37 HO3'        2.2232   -1.2979    2.3953 H         1 ATP         0.4386
     38 H2'        -0.0011    0.0027    0.0003 H         1 ATP         0.0788
     39 HO2'       -0.6141    0.5574    2.1082 H         1 ATP         0.4363
     40 H1'         1.7826    1.9024    1.6451 H         1 ATP         0.1225
     41 H8          0.7125    2.3429   -1.9292 H         1 ATP         0.3824
     42 HN62       -3.3217    6.4517    0.2629 H         1 ATP         0.4018
     43 H2         -1.5188    4.4223    3.7890 H         1 ATP         0.0652
     44 H44        -2.7470    5.7626    2.3665 H         1 ATP         0.4503
     45 H45        -1.0305    4.1680   -2.1054 H         1 ATP         0.5209
@<TRIPOS>BOND
     1    1    2 2
     2    1    3 1
     3    1    4 1
     4    1    8 1
     5    4   32 1
     6    5    6 2
     7    5    7 1
     8    5    8 1
     9    5   12 1
    10    9   10 2
    11    9   11 1
    12    9   12 1
    13    9   13 1
    14   13   14 1
    15   14   15 1
    16   14   33 1
    17   14   34 1
    18   15   16 1
    19   15   17 1
    20   15   35 1
    21   16   21 1
    22   17   18 1
    23   17   19 1
    24   17   36 1
    25   18   37 1
    26   19   20 1
    27   19   21 1
    28   19   38 1
    29   20   39 1
    30   21   22 1
    31   21   40 1
    32   22   23 ar
    33   22   31 ar
    34   23   24 ar
    35   23   41 1
    36   24   25 ar
    37   24   45 1
    38   25   26 ar
    39   25   31 ar
    40   26   27 2
    41   26   28 ar
    42   27   42 1
    43   28   29 ar
    44   28   44 1
    45   29   30 ar
    46   29   43 1
    47   30   31 ar
@<TRIPOS>SUBSTRUCTURE
     1 ATP         1 GROUP 0 A     ****
@<TRIPOS>MOLECULE
[[[3,4-dihydroxy-5-(6-imino-7,8-dihydro-1~{H}-purin-8-ylium-9-yl)tetrahydrofuran-2-yl]methoxy-oxido-phosphoryl]oxy-oxido-phosphoryl] hydrogen phosphate
   45    47     1     0     0
SMALL
USER_CHARGES

@<TRIPOS>ATOM
      1 PG          2.2477    2.4558   -8.4331 P.3       1 ATP         1.5631
      2 O1G         3.6796    2.7137   -8.8462 O.co2     1 ATP        -0.8806
      3 O2G         1.1967    3.5366   -8.5555 O.co2     1 ATP        -0.8806
      4 O3G         1.7148    1.1239   -9.2128 O.3       1 ATP        -0.8165
      5 PB          0.9889    1.2869   -6.0263 P.3       1 ATP         1.6877
      6 O1B         0.0273    2.4170   -5.7336 O.co2     1 ATP        -0.8727
      7 O2B         0.5130   -0.0036   -6.6553 O.co2     1 ATP        -0.8727
      8 O3B         2.2314    1.8724   -6.9089 O.3       1 ATP        -0.8330
      9 PA          3.0675   -0.0857   -4.4293 P.3       1 ATP         1.6036
     10 O1A         4.2683    0.4444   -5.1827 O.co2     1 ATP        -0.9062
     11 O2A         2.5798   -1.5012   -4.6487 O.co2     1 ATP        -0.9062
     12 O3A         1.8107    0.9323   -4.6611 O.3       1 ATP        -0.8166
     13 O5'         3.2903    0.1346   -2.8241 O.3       1 ATP        -0.5510
     14 C5'         2.2816   -0.2918   -1.9206 C.3       1 ATP         0.2099
     15 C4'         2.7248    0.0226   -0.4980 C.3       1 ATP         0.0598
     16 O4'         2.4697    1.4219   -0.2462 O.3       1 ATP        -0.3455
     17 C3'         1.9404   -0.7419    0.5596 C.3       1 ATP         0.0742
     18 O3'         2.7418   -0.8086    1.7389 O.3       1 ATP        -0.6025
     19 C2'         0.7477    0.1630    0.7858 C.3       1 ATP         0.1145
     20 O2'         0.1373   -0.0577    2.0407 O.3       1 ATP        -0.5835
     21 C1'         1.3733    1.5427    0.6747 C.3       1 ATP         0.3776
     22 N9          0.4520    2.5240    0.1767 N.pl3     1 ATP        -0.4429
     23 C8          0.2216    2.8192   -1.0985 C.ar      1 ATP         0.2964
     24 N7         -0.6906    3.7763   -1.2384 N.pl3     1 ATP        -0.4957
     25 C5         -1.0575    4.1037    0.0366 C.ar      1 ATP        -0.1346
     26 C6         -2.0291    5.0943    0.5330 C.ar      1 ATP         0.7213
     27 N6         -2.7093    5.8371   -0.2800 N.2       1 ATP        -0.8215
     28 N1         -2.1051    5.1136    1.9204 N.pl3     1 ATP        -0.8455
     29 C2         -1.3354    4.2774    2.7129 C.ar      1 ATP         0.6477
     30 N3         -0.4707    3.3945    2.2944 N.2       1 ATP        -0.5707
     31 C4         -0.3734    3.3525    0.9220 C.ar      1 ATP         0.2637
     32 HOG3        0.7954    0.8236   -9.0492 H         1 ATP         0.4378
     33 H5'1        1.3514    0.2330   -2.1577 H         1 ATP         0.0340
     34 H5'2        2.1280   -1.3678   -2.0460 H         1 ATP         0.0340
     35 H4'         3.8044   -0.1397   -0.4040 H         1 ATP         0.0910
     36 H3'         1.6764   -1.7639    0.2728 H         1 ATP         0.0656
     37 HO3'        2.2232   -1.2979    2.3953 H         1 ATP         0.4386
     38 H2'        -0.0011    0.0027    0.0003 H         1 ATP         0.0788
     39 HO2'       -0.1563   -0.9855    2.0596 H         1 ATP         0.4363
     40 H1'         1.7826    1.9024    1.6451 H         1 ATP         0.1225
     41 H8          0.7125    2.3429   -1.9292 H         1 ATP         0.3824
     42 HN62       -3.3217    6.4517    0.2629 H         1 ATP         0.4018
     43 H2         -1.5188    4.4223    3.7890 H         1 ATP         0.0652
     44 H44        -2.7470    5.7626    2.3665 H         1 ATP         0.4503
     45 H45        -1.0305    4.1680   -2.1054 H         1 ATP         0.5209
@<TRIPOS>BOND
     1    1    2 2
     2    1    3 1
     3    1    4 1
     4    1    8 1
     5    4   32 1
     6    5    6 2
     7    5    7 1
     8    5    8 1
     9    5   12 1
    10    9   10 2
    11    9   11 1
    12    9   12 1
    13    9   13 1
    14   13   14 1
    15   14   15 1
    16   14   33 1
    17   14   34 1
    18   15   16 1
    19   15   17 1
    20   15   35 1
    21   16   21 1
    22   17   18 1
    23   17   19 1
    24   17   36 1
    25   18   37 1
    26   19   20 1
    27   19   21 1
    28   19   38 1
    29   20   39 1
    30   21   22 1
    31   21   40 1
    32   22   23 ar
    33   22   31 ar
    34   23   24 ar
    35   23   41 1
    36   24   25 ar
    37   24   45 1
    38   25   26 ar
    39   25   31 ar
    40   26   27 2
    41   26   28 ar
    42   27   42 1
    43   28   29 ar
    44   28   44 1
    45   29   30 ar
    46   29   43 1
    47   30   31 ar
@<TRIPOS>SUBSTRUCTURE
     1 ATP         1 GROUP 0 A     ****
@<TRIPOS>MOLECULE
[[[3,4-dihydroxy-5-(6-imino-7,8-dihydro-1~{H}-purin-8-ylium-9-yl)tetrahydrofuran-2-yl]methoxy-oxido-phosphoryl]oxy-oxido-phosphoryl] hydrogen phosphate
   45    47     1     0     0
SMALL
USER_CHARGES

@<TRIPOS>ATOM
      1 PG          0.2195   -2.8374   -5.4669 P.3       1 ATP         1.5631
      2 O1G         0.0008   -1.9783   -4.2415 O.co2     1 ATP        -0.8806
      3 O2G         0.5757   -4.3016   -5.3362 O.co2     1 ATP        -0.8806
      4 O3G        -1.0906   -2.7068   -6.4325 O.3       1 ATP        -0.8165
      5 PB          2.9040   -1.8329   -6.1936 P.3       1 ATP         1.6877
      6 O1B         3.5741   -3.1378   -5.8255 O.co2     1 ATP        -0.8727
      7 O2B         3.4248   -0.9771   -7.3267 O.co2     1 ATP        -0.8727
      8 O3B         1.3137   -2.1114   -6.4362 O.3       1 ATP        -0.8330
      9 PA          3.9554   -0.2064   -3.9565 P.3       1 ATP         1.6036
     10 O1A         4.6400    0.8514   -4.7948 O.co2     1 ATP        -0.9062
     11 O2A         4.7576   -1.2975   -3.2816 O.co2     1 ATP        -0.9062
     12 O3A         2.7840   -0.9098   -4.8526 O.3       1 ATP        -0.8166
     13 O5'         3.0213    0.5153   -2.8245 O.3       1 ATP        -0.5510
     14 C5'         2.2816   -0.2918   -1.9206 C.3       1 ATP         0.2099
     15 C4'         2.7248    0.0226   -0.4980 C.3       1 ATP         0.0598
     16 O4'         2.4697    1.4219   -0.2462 O.3       1 ATP        -0.3455
     17 C3'         1.9404   -0.7419    0.5596 C.3       1 ATP         0.0742
     18 O3'         2.7418   -0.8086    1.7389 O.3       1 ATP        -0.6025
     19 C2'         0.7477    0.1630    0.7858 C.3       1 ATP         0.1145
     20 O2'         0.1373   -0.0577    2.0407 O.3       1 ATP        -0.5835
     21 C1'         1.3733    1.5427    0.6747 C.3       1 ATP         0.3776
     22 N9          0.4520    2.5240    0.1767 N.pl3     1 ATP        -0.4429
     23 C8          0.2216    2.8192   -1.0985 C.ar      1 ATP         0.2964
     24 N7         -0.6906    3.7763   -1.2384 N.pl3     1 ATP        -0.4957
     25 C5         -1.0575    4.1037    0.0366 C.ar      1 ATP        -0.1346
     26 C6         -2.0291    5.0943    0.5330 C.ar      1 ATP         0.7213
     27 N6         -2.7093    5.8371   -0.2800 N.2       1 ATP        -0.8215
     28 N1         -2.1051    5.1136    1.9204 N.pl3     1 ATP        -0.8455
     29 C2         -1.3354    4.2774    2.7129 C.ar      1 ATP         0.6477
     30 N3         -0.4707    3.3945    2.2944 N.2       1 ATP        -0.5707
     31 C4         -0.3734    3.3525    0.9220 C.ar      1 ATP         0.2637
     32 HOG3       -1.1017   -3.2093   -7.2749 H         1 ATP         0.4378
     33 H5'1        1.2163   -0.0770   -2.0471 H         1 ATP         0.0340
     34 H5'2        2.4655   -1.3443   -2.1563 H         1 ATP         0.0340
     35 H4'         3.8044   -0.1397   -0.4040 H         1 ATP         0.0910
     36 H3'         1.6764   -1.7639    0.2728 H         1 ATP         0.0656
     37 HO3'        2.2232   -1.2979    2.3953 H         1 ATP         0.4386
     38 H2'        -0.0011    0.0027    0.0003 H         1 ATP         0.0788
     39 HO2'       -0.6141    0.5574    2.1082 H         1 ATP         0.4363
     40 H1'         1.7826    1.9024    1.6451 H         1 ATP         0.1225
     41 H8          0.7125    2.3429   -1.9292 H         1 ATP         0.3824
     42 HN62       -3.3217    6.4517    0.2629 H         1 ATP         0.4018
     43 H2         -1.5188    4.4223    3.7890 H         1 ATP         0.0652
     44 H44        -2.7470    5.7626    2.3665 H         1 ATP         0.4503
     45 H45        -1.0305    4.1680   -2.1054 H         1 ATP         0.5209
@<TRIPOS>BOND
     1    1    2 2
     2    1    3 1
     3    1    4 1
     4    1    8 1
     5    4   32 1
     6    5    6 2
     7    5    7 1
     8    5    8 1
     9    5   12 1
    10    9   10 2
    11    9   11 1
    12    9   12 1
    13    9   13 1
    14   13   14 1
    15   14   15 1
    16   14   33 1
    17   14   34 1
    18   15   16 1
    19   15   17 1
    20   15   35 1
    21   16   21 1
    22   17   18 1
    23   17   19 1
    24   17   36 1
    25   18   37 1
    26   19   20 1
    27   19   21 1
    28   19   38 1
    29   20   39 1
    30   21   22 1
    31   21   40 1
    32   22   23 ar
    33   22   31 ar
    34   23   24 ar
    35   23   41 1
    36   24   25 ar
    37   24   45 1
    38   25   26 ar
    39   25   31 ar
    40   26   27 2
    41   26   28 ar
    42   27   42 1
    43   28   29 ar
    44   28   44 1
    45   29   30 ar
    46   29   43 1
    47   30   31 ar
@<TRIPOS>SUBSTRUCTURE
     1 ATP         1 GROUP 0 A     ****
@<TRIPOS>MOLECULE
[[[3,4-dihydroxy-5-(6-imino-7,8-dihydro-1~{H}-purin-8-ylium-9-yl)tetrahydrofuran-2-yl]methoxy-oxido-phosphoryl]oxy-oxido-phosphoryl] hydrogen phosphate
   45    47     1     0     0
SMALL
USER_CHARGES

@<TRIPOS>ATOM
      1 PG          3.4914   -4.6465   -5.9056 P.3       1 ATP         1.5631
      2 O1G         4.6514   -4.7358   -6.8720 O.co2     1 ATP        -0.8806
      3 O2G         2.2200   -3.9190   -6.2825 O.co2     1 ATP        -0.8806
      4 O3G         3.1010   -6.1566   -5.4228 O.3       1 ATP        -0.8165
      5 PB          4.6174   -2.5857   -4.1087 P.3       1 ATP         1.6877
      6 O1B         4.8196   -2.5062   -2.6119 O.co2     1 ATP        -0.8727
      7 O2B         5.7374   -2.2528   -5.0692 O.co2     1 ATP        -0.8727
      8 O3B         4.0315   -4.0637   -4.4800 O.3       1 ATP        -0.8330
      9 PA          3.0675   -0.0857   -4.4293 P.3       1 ATP         1.6036
     10 O1A         1.6267    0.2117   -4.7841 O.co2     1 ATP        -0.9062
     11 O2A         4.2015    0.5978   -5.1618 O.co2     1 ATP        -0.9062
     12 O3A         3.3051   -1.7004   -4.5072 O.3       1 ATP        -0.8166
     13 O5'         3.2903    0.1346   -2.8241 O.3       1 ATP        -0.5510
     14 C5'         2.2816   -0.2918   -1.9206 C.3       1 ATP         0.2099
     15 C4'         2.7248    0.0226   -0.4980 C.3       1 ATP         0.0598
     16 O4'         2.4697    1.4219   -0.2462 O.3       1 ATP        -0.3455
     17 C3'         1.9404   -0.7419    0.5596 C.3       1 ATP         0.0742
     18 O3'         2.7418   -0.8086    1.7389 O.3       1 ATP        -0.6025
     19 C2'         0.7477    0.1630    0.7858 C.3       1 ATP         0.1145
     20 O2'         0.1373   -0.0577    2.0407 O.3       1 ATP        -0.5835
     21 C1'         1.3733    1.5427    0.6747 C.3       1 ATP         0.3776
     22 N9          0.4520    2.5240    0.1767 N.pl3     1 ATP        -0.4429
     23 C8          0.2216    2.8192   -1.0985 C.ar      1 ATP         0.2964
     24 N7         -0.6906    3.7763   -1.2384 N.pl3     1 ATP        -0.4957
     25 C5         -1.0575    4.1037    0.0366 C.ar      1 ATP        -0.1346
     26 C6         -2.0291    5.0943    0.5330 C.ar      1 ATP         0.7213
     27 N6         -2.7093    5.8371   -0.2800 N.2       1 ATP        -0.8215
     28 N1         -2.1051    5.1136    1.9204 N.pl3     1 ATP        -0.8455
     29 C2         -1.3354    4.2774    2.7129 C.ar      1 ATP         0.6477
     30 N3         -0.4707    3.3945    2.2944 N.2       1 ATP        -0.5707
     31 C4         -0.3734    3.3525    0.9220 C.ar      1 ATP         0.2637
     32 HOG3        2.3607   -6.2673   -4.7889 H         1 ATP         0.4378
     33 H5'1        1.3514    0.2330   -2.1577 H         1 ATP         0.0340
     34 H5'2        2.1280   -1.3678   -2.0460 H         1 ATP         0.0340
     35 H4'         3.8044   -0.1397   -0.4040 H         1 ATP         0.0910
     36 H3'         1.6764   -1.7639    0.2728 H         1 ATP         0.0656
     37 HO3'        3.5554   -1.2733    1.4914 H         1 ATP         0.4386
     38 H2'        -0.0011    0.0027    0.0003 H         1 ATP         0.0788
     39 HO2'       -0.6141    0.5574    2.1082 H         1 ATP         0.4363
     40 H1'         1.7826    1.9024    1.6451 H         1 ATP         0.1225
     41 H8          0.7125    2.3429   -1.9292 H         1 ATP         0.3824
     42 HN62       -3.3217    6.4517    0.2629 H         1 ATP         0.4018
     43 H2         -1.5188    4.4223    3.7890 H         1 ATP         0.0652
     44 H44        -2.7470    5.7626    2.3665 H         1 ATP         0.4503
     45 H45        -1.0305    4.1680   -2.1054 H         1 ATP         0.5209
@<TRIPOS>BOND
     1    1    2 2
     2    1    3 1
     3    1    4 1
     4    1    8 1
     5    4   32 1
     6    5    6 2
     7    5    7 1
     8    5    8 1
     9    5   12 1
    10    9   10 2
    11    9   11 1
    12    9   12 1
    13    9   13 1
    14   13   14 1
    15   14   15 1
    16   14   33 1
    17   14   34 1
    18   15   16 1
    19   15   17 1
    20   15   35 1
    21   16   21 1
    22   17   18 1
    23   17   19 1
    24   17   36 1
    25   18   37 1
    26   19   20 1
    27   19   21 1
    28   19   38 1
    29   20   39 1
    30   21   22 1
    31   21   40 1
    32   22   23 ar
    33   22   31 ar
    34   23   24 ar
    35   23   41 1
    36   24   25 ar
    37   24   45 1
    38   25   26 ar
    39   25   31 ar
    40   26   27 2
    41   26   28 ar
    42   27   42 1
    43   28   29 ar
    44   28   44 1
    45   29   30 ar
    46   29   43 1
    47   30   31 ar
@<TRIPOS>SUBSTRUCTURE
     1 ATP         1 GROUP 0 A     ****
@<TRIPOS>MOLECULE
[[[3,4-dihydroxy-5-(6-imino-7,8-dihydro-1~{H}-purin-8-ylium-9-yl)tetrahydrofuran-2-yl]methoxy-oxido-phosphoryl]oxy-oxido-phosphoryl] hydrogen phosphate
   45    47     1     0     0
SMALL
USER_CHARGES

@<TRIPOS>ATOM
      1 PG          6.0473   -4.2166   -5.0629 P.3       1 ATP         1.5631
      2 O1G         6.4877   -4.5813   -3.6627 O.co2     1 ATP        -0.8806
      3 O2G         7.0580   -3.8298   -6.1196 O.co2     1 ATP        -0.8806
      4 O3G         5.1234   -5.4289   -5.6482 O.3       1 ATP        -0.8165
      5 PB          5.0227   -1.5062   -4.4736 P.3       1 ATP         1.6877
      6 O1B         5.3188   -1.4975   -2.9904 O.co2     1 ATP        -0.8727
      7 O2B         5.8921   -0.7462   -5.4504 O.co2     1 ATP        -0.8727
      8 O3B         4.9037   -3.0555   -4.9745 O.3       1 ATP        -0.8330
      9 PA          2.7407    0.3769   -4.4297 P.3       1 ATP         1.6036
     10 O1A         1.2546    0.2227   -4.6707 O.co2     1 ATP        -0.9062
     11 O2A         3.5325    1.4517   -5.1421 O.co2     1 ATP        -0.9062
     12 O3A         3.4685   -1.0610   -4.6995 O.3       1 ATP        -0.8166
     13 O5'         3.0213    0.5153   -2.8245 O.3       1 ATP        -0.5510
     14 C5'         2.2816   -0.2918   -1.9206 C.3       1 ATP         0.2099
     15 C4'         2.7248    0.0226   -0.4980 C.3       1 ATP         0.0598
     16 O4'         2.4697    1.4219   -0.2462 O.3       1 ATP        -0.3455
     17 C3'         1.9404   -0.7419    0.5596 C.3       1 ATP         0.0742
     18 O3'         2.7418   -0.8086    1.7389 O.3       1 ATP        -0.6025
     19 C2'         0.7477    0.1630    0.7858 C.3       1 ATP         0.1145
     20 O2'         0.1373   -0.0577    2.0407 O.3       1 ATP        -0.5835
     21 C1'         1.3733    1.5427    0.6747 C.3       1 ATP         0.3776
     22 N9          0.4520    2.5240    0.1767 N.pl3     1 ATP        -0.4429
     23 C8         -0.2004    2.4829   -0.9804 C.ar      1 ATP         0.2964
     24 N7         -0.9830    3.5431   -1.1568 N.pl3     1 ATP        -0.4957
     25 C5         -0.8095    4.3012   -0.0331 C.ar      1 ATP        -0.1346
     26 C6         -1.4065    5.5904    0.3585 C.ar      1 ATP         0.7213
     27 N6         -2.2501    6.2030   -0.4084 N.2       1 ATP        -0.8215
     28 N1         -0.9585    6.0272    1.5994 N.pl3     1 ATP        -0.8455
     29 C2         -0.0508    5.3009    2.3532 C.ar      1 ATP         0.6477
     30 N3          0.4890    4.1592    2.0257 N.2       1 ATP        -0.5707
     31 C4          0.0637    3.7006    0.7995 C.ar      1 ATP         0.2637
     32 HOG3        4.7578   -5.3415   -6.5543 H         1 ATP         0.4378
     33 H5'1        1.2163   -0.0770   -2.0471 H         1 ATP         0.0340
     34 H5'2        2.4655   -1.3443   -2.1563 H         1 ATP         0.0340
     35 H4'         3.8044   -0.1397   -0.4040 H         1 ATP         0.0910
     36 H3'         1.6764   -1.7639    0.2728 H         1 ATP         0.0656
     37 HO3'        2.2232   -1.2979    2.3953 H         1 ATP         0.4386
     38 H2'        -0.0011    0.0027    0.0003 H         1 ATP         0.0788
     39 HO2'       -0.1563   -0.9855    2.0596 H         1 ATP         0.4363
     40 H1'         1.7826    1.9024    1.6451 H         1 ATP         0.1225
     41 H8         -0.1116    1.6863   -1.6984 H         1 ATP         0.3824
     42 HN62       -2.5420    7.0730    0.0447 H         1 ATP         0.4018
     43 H2          0.1969    5.7893    3.3086 H         1 ATP         0.0652
     44 H44        -1.3097    6.9080    1.9642 H         1 ATP         0.4503
     45 H45        -1.5735    3.7351   -1.9538 H         1 ATP         0.5209
@<TRIPOS>BOND
     1    1    2 2
     2    1    3 1
     3    1    4 1
     4    1    8 1
     5    4   32 1
     6    5    6 2
     7    5    7 1
     8    5    8 1
     9    5   12 1
    10    9   10 2
    11    9   11 1
    12    9   12 1
    13    9   13 1
    14   13   14 1
    15   14   15 1
    16   14   33 1
    17   14   34 1
    18   15   16 1
    19   15   17 1
    20   15   35 1
    21   16   21 1
    22   17   18 1
    23   17   19 1
    24   17   36 1
    25   18   37 1
    26   19   20 1
    27   19   21 1
    28   19   38 1
    29   20   39 1
    30   21   22 1
    31   21   40 1
    32   22   23 ar
    33   22   31 ar
    34   23   24 ar
    35   23   41 1
    36   24   25 ar
    37   24   45 1
    38   25   26 ar
    39   25   31 ar
    40   26   27 2
    41   26   28 ar
    42   27   42 1
    43   28   29 ar
    44   28   44 1
    45   29   30 ar
    46   29   43 1
    47   30   31 ar
@<TRIPOS>SUBSTRUCTURE
     1 ATP         1 GROUP 0 A     ****
@<TRIPOS>MOLECULE
[[[3,4-dihydroxy-5-(6-imino-7,8-dihydro-1~{H}-purin-8-ylium-9-yl)tetrahydrofuran-2-yl]methoxy-oxido-phosphoryl]oxy-oxido-phosphoryl] hydrogen phosphate
   45    47     1     0     0
SMALL
USER_CHARGES

@<TRIPOS>ATOM
      1 PG         -1.0165   -1.5881   -7.2268 P.3       1 ATP         1.5631
      2 O1G        -0.2340   -0.5843   -8.0438 O.co2     1 ATP        -0.8806
      3 O2G        -2.5080   -1.4347   -7.0279 O.co2     1 ATP        -0.8806
      4 O3G        -0.7235   -3.0808   -7.8200 O.3       1 ATP        -0.8165
      5 PB         -0.6289   -2.8068   -4.5607 P.3       1 ATP         1.6877
      6 O1B        -1.9921   -2.4827   -3.9915 O.co2     1 ATP        -0.8727
      7 O2B        -0.2866   -4.2044   -5.0266 O.co2     1 ATP        -0.8727
      8 O3B        -0.3032   -1.7578   -5.7687 O.3       1 ATP        -0.8330
      9 PA          2.1372   -2.2718   -3.6563 P.3       1 ATP         1.6036
     10 O1A         2.4977   -1.2667   -4.7287 O.co2     1 ATP        -0.9062
     11 O2A         2.6452   -3.6953   -3.7281 O.co2     1 ATP        -0.9062
     12 O3A         0.5112   -2.3140   -3.5013 O.3       1 ATP        -0.8166
     13 O5'         2.5245   -1.6648   -2.1878 O.3       1 ATP        -0.5510
     14 C5'         2.2816   -0.2918   -1.9206 C.3       1 ATP         0.2099
     15 C4'         2.7248    0.0226   -0.4980 C.3       1 ATP         0.0598
     16 O4'         2.4697    1.4219   -0.2462 O.3       1 ATP        -0.3455
     17 C3'         1.9404   -0.7419    0.5596 C.3       1 ATP         0.0742
     18 O3'         2.7418   -0.8086    1.7389 O.3       1 ATP        -0.6025
     19 C2'         0.7477    0.1630    0.7858 C.3       1 ATP         0.1145
     20 O2'         0.1373   -0.0577    2.0407 O.3       1 ATP        -0.5835
     21 C1'         1.3733    1.5427    0.6747 C.3       1 ATP         0.3776
     22 N9          0.4520    2.5240    0.1767 N.pl3     1 ATP        -0.4429
     23 C8          0.2216    2.8192   -1.0985 C.ar      1 ATP         0.2964
     24 N7         -0.6906    3.7763   -1.2384 N.pl3     1 ATP        -0.4957
     25 C5         -1.0575    4.1037    0.0366 C.ar      1 ATP        -0.1346
     26 C6         -2.0291    5.0943    0.5330 C.ar      1 ATP         0.7213
     27 N6         -2.7093    5.8371   -0.2800 N.2       1 ATP        -0.8215
     28 N1         -2.1051    5.1136    1.9204 N.pl3     1 ATP        -0.8455
     29 C2         -1.3354    4.2774    2.7129 C.ar      1 ATP         0.6477
     30 N3         -0.4707    3.3945    2.2944 N.2       1 ATP        -0.5707
     31 C4         -0.3734    3.3525    0.9220 C.ar      1 ATP         0.2637
     32 HOG3       -1.1623   -3.8473   -7.3932 H         1 ATP         0.4378
     33 H5'1        2.8432    0.3119   -2.6398 H         1 ATP         0.0340
     34 H5'2        1.2128   -0.0927   -2.0428 H         1 ATP         0.0340
     35 H4'         3.8044   -0.1397   -0.4040 H         1 ATP         0.0910
     36 H3'         1.6764   -1.7639    0.2728 H         1 ATP         0.0656
     37 HO3'        2.2232   -1.2979    2.3953 H         1 ATP         0.4386
     38 H2'        -0.0011    0.0027    0.0003 H         1 ATP         0.0788
     39 HO2'       -0.6141    0.5574    2.1082 H         1 ATP         0.4363
     40 H1'         1.7826    1.9024    1.6451 H         1 ATP         0.1225
     41 H8          0.7125    2.3429   -1.9292 H         1 ATP         0.3824
     42 HN62       -3.3217    6.4517    0.2629 H         1 ATP         0.4018
     43 H2         -1.5188    4.4223    3.7890 H         1 ATP         0.0652
     44 H44        -2.7470    5.7626    2.3665 H         1 ATP         0.4503
     45 H45        -1.0305    4.1680   -2.1054 H         1 ATP         0.5209
@<TRIPOS>BOND
     1    1    2 2
     2    1    3 1
     3    1    4 1
     4    1    8 1
     5    4   32 1
     6    5    6 2
     7    5    7 1
     8    5    8 1
     9    5   12 1
    10    9   10 2
    11    9   11 1
    12    9   12 1
    13    9   13 1
    14   13   14 1
    15   14   15 1
    16   14   33 1
    17   14   34 1
    18   15   16 1
    19   15   17 1
    20   15   35 1
    21   16   21 1
    22   17   18 1
    23   17   19 1
    24   17   36 1
    25   18   37 1
    26   19   20 1
    27   19   21 1
    28   19   38 1
    29   20   39 1
    30   21   22 1
    31   21   40 1
    32   22   23 ar
    33   22   31 ar
    34   23   24 ar
    35   23   41 1
    36   24   25 ar
    37   24   45 1
    38   25   26 ar
    39   25   31 ar
    40   26   27 2
    41   26   28 ar
    42   27   42 1
    43   28   29 ar
    44   28   44 1
    45   29   30 ar
    46   29   43 1
    47   30   31 ar
@<TRIPOS>SUBSTRUCTURE
     1 ATP         1 GROUP 0 A     ****
@<TRIPOS>MOLECULE
[[[3,4-dihydroxy-5-(6-imino-7,8-dihydro-1~{H}-purin-8-ylium-9-yl)tetrahydrofuran-2-yl]methoxy-oxido-phosphoryl]oxy-oxido-phosphoryl] hydrogen phosphate
   45    47     1     0     0
SMALL
USER_CHARGES

@<TRIPOS>ATOM
      1 PG          4.0377   -4.2139   -6.6373 P.3       1 ATP         1.5631
      2 O1G         2.6049   -4.5212   -7.0113 O.co2     1 ATP        -0.8806
      3 O2G         4.9678   -5.3067   -6.1593 O.co2     1 ATP        -0.8806
      4 O3G         4.7461   -3.4410   -7.8890 O.3       1 ATP        -0.8165
      5 PB          5.3149   -2.1652   -4.9298 P.3       1 ATP         1.6877
      6 O1B         6.1333   -3.1023   -4.0698 O.co2     1 ATP        -0.8727
      7 O2B         5.9558   -1.3546   -6.0342 O.co2     1 ATP        -0.8727
      8 O3B         4.0538   -2.9940   -5.5532 O.3       1 ATP        -0.8330
      9 PA          3.3343   -0.0514   -4.3264 P.3       1 ATP         1.6036
     10 O1A         2.1154   -0.7746   -4.8569 O.co2     1 ATP        -0.9062
     11 O2A         3.9835    1.0584   -5.1242 O.co2     1 ATP        -0.9062
     12 O3A         4.4804   -1.1555   -3.9558 O.3       1 ATP        -0.8166
     13 O5'         3.0213    0.5153   -2.8245 O.3       1 ATP        -0.5510
     14 C5'         2.2816   -0.2918   -1.9206 C.3       1 ATP         0.2099
     15 C4'         2.7248    0.0226   -0.4980 C.3       1 ATP         0.0598
     16 O4'         2.4697    1.4219   -0.2462 O.3       1 ATP        -0.3455
     17 C3'         1.9404   -0.7419    0.5596 C.3       1 ATP         0.0742
     18 O3'         2.7418   -0.8086    1.7389 O.3       1 ATP        -0.6025
     19 C2'         0.7477    0.1630    0.7858 C.3       1 ATP         0.1145
     20 O2'         0.1373   -0.0577    2.0407 O.3       1 ATP        -0.5835
     21 C1'         1.3733    1.5427    0.6747 C.3       1 ATP         0.3776
     22 N9          0.4520    2.5240    0.1767 N.pl3     1 ATP        -0.4429
     23 C8          0.2216    2.8192   -1.0985 C.ar      1 ATP         0.2964
     24 N7         -0.6906    3.7763   -1.2384 N.pl3     1 ATP        -0.4957
     25 C5         -1.0575    4.1037    0.0366 C.ar      1 ATP        -0.1346
     26 C6         -2.0291    5.0943    0.5330 C.ar      1 ATP         0.7213
     27 N6         -2.7093    5.8371   -0.2800 N.2       1 ATP        -0.8215
     28 N1         -2.1051    5.1136    1.9204 N.pl3     1 ATP        -0.8455
     29 C2         -1.3354    4.2774    2.7129 C.ar      1 ATP         0.6477
     30 N3         -0.4707    3.3945    2.2944 N.2       1 ATP        -0.5707
     31 C4         -0.3734    3.3525    0.9220 C.ar      1 ATP         0.2637
     32 HOG3        5.6853   -3.1719   -7.8003 H         1 ATP         0.4378
     33 H5'1        1.2163   -0.0770   -2.0471 H         1 ATP         0.0340
     34 H5'2        2.4655   -1.3443   -2.1563 H         1 ATP         0.0340
     35 H4'         3.8044   -0.1397   -0.4040 H         1 ATP         0.0910
     36 H3'         1.6764   -1.7639    0.2728 H         1 ATP         0.0656
     37 HO3'        2.2232   -1.2979    2.3953 H         1 ATP         0.4386
     38 H2'        -0.0011    0.0027    0.0003 H         1 ATP         0.0788
     39 HO2'       -0.6141    0.5574    2.1082 H         1 ATP         0.4363
     40 H1'         1.7826    1.9024    1.6451 H         1 ATP         0.1225
     41 H8          0.7125    2.3429   -1.9292 H         1 ATP         0.3824
     42 HN62       -3.3217    6.4517    0.2629 H         1 ATP         0.4018
     43 H2         -1.5188    4.4223    3.7890 H         1 ATP         0.0652
     44 H44        -2.7470    5.7626    2.3665 H         1 ATP         0.4503
     45 H45        -1.0305    4.1680   -2.1054 H         1 ATP         0.5209
@<TRIPOS>BOND
     1    1    2 2
     2    1    3 1
     3    1    4 1
     4    1    8 1
     5    4   32 1
     6    5    6 2
     7    5    7 1
     8    5    8 1
     9    5   12 1
    10    9   10 2
    11    9   11 1
    12    9   12 1
    13    9   13 1
    14   13   14 1
    15   14   15 1
    16   14   33 1
    17   14   34 1
    18   15   16 1
    19   15   17 1
    20   15   35 1
    21   16   21 1
    22   17   18 1
    23   17   19 1
    24   17   36 1
    25   18   37 1
    26   19   20 1
    27   19   21 1
    28   19   38 1
    29   20   39 1
    30   21   22 1
    31   21   40 1
    32   22   23 ar
    33   22   31 ar
    34   23   24 ar
    35   23   41 1
    36   24   25 ar
    37   24   45 1
    38   25   26 ar
    39   25   31 ar
    40   26   27 2
    41   26   28 ar
    42   27   42 1
    43   28   29 ar
    44   28   44 1
    45   29   30 ar
    46   29   43 1
    47   30   31 ar
@<TRIPOS>SUBSTRUCTURE
     1 ATP         1 GROUP 0 A     ****
@<TRIPOS>MOLECULE
[[[3,4-dihydroxy-5-(6-imino-7,8-dihydro-1~{H}-purin-8-ylium-9-yl)tetrahydrofuran-2-yl]methoxy-oxido-phosphoryl]oxy-oxido-phosphoryl] hydrogen phosphate
   45    47     1     0     0
SMALL
USER_CHARGES

@<TRIPOS>ATOM
      1 PG          6.3994    1.1163   -4.0109 P.3       1 ATP         1.5631
      2 O1G         5.5483    1.1420   -2.7609 O.co2     1 ATP        -0.8806
      3 O2G         6.1083    2.0450   -5.1687 O.co2     1 ATP        -0.8806
      4 O3G         7.9627    1.3019   -3.5778 O.3       1 ATP        -0.8165
      5 PB          5.3053   -1.3616   -5.1968 P.3       1 ATP         1.6877
      6 O1B         4.6308   -0.6130   -6.3247 O.co2     1 ATP        -0.8727
      7 O2B         5.8625   -2.7525   -5.4027 O.co2     1 ATP        -0.8727
      8 O3B         6.4782   -0.4156   -4.5685 O.3       1 ATP        -0.8330
      9 PA          2.8603   -2.1317   -3.7189 P.3       1 ATP         1.6036
     10 O1A         3.0799   -3.6286   -3.7531 O.co2     1 ATP        -0.9062
     11 O2A         1.8581   -1.4755   -4.6434 O.co2     1 ATP        -0.9062
     12 O3A         4.3010   -1.3849   -3.9101 O.3       1 ATP        -0.8166
     13 O5'         2.5245   -1.6648   -2.1878 O.3       1 ATP        -0.5510
     14 C5'         2.2816   -0.2918   -1.9206 C.3       1 ATP         0.2099
     15 C4'         2.7248    0.0226   -0.4980 C.3       1 ATP         0.0598
     16 O4'         2.4697    1.4219   -0.2462 O.3       1 ATP        -0.3455
     17 C3'         1.9404   -0.7419    0.5596 C.3       1 ATP         0.0742
     18 O3'         2.7418   -0.8086    1.7389 O.3       1 ATP        -0.6025
     19 C2'         0.7477    0.1630    0.7858 C.3       1 ATP         0.1145
     20 O2'         0.1373   -0.0577    2.0407 O.3       1 ATP        -0.5835
     21 C1'         1.3733    1.5427    0.6747 C.3       1 ATP         0.3776
     22 N9          0.4520    2.5240    0.1767 N.pl3     1 ATP        -0.4429
     23 C8          0.2216    2.8192   -1.0985 C.ar      1 ATP         0.2964
     24 N7         -0.6906    3.7763   -1.2384 N.pl3     1 ATP        -0.4957
     25 C5         -1.0575    4.1037    0.0366 C.ar      1 ATP        -0.1346
     26 C6         -2.0291    5.0943    0.5330 C.ar      1 ATP         0.7213
     27 N6         -2.7093    5.8371   -0.2800 N.2       1 ATP        -0.8215
     28 N1         -2.1051    5.1136    1.9204 N.pl3     1 ATP        -0.8455
     29 C2         -1.3354    4.2774    2.7129 C.ar      1 ATP         0.6477
     30 N3         -0.4707    3.3945    2.2944 N.2       1 ATP        -0.5707
     31 C4         -0.3734    3.3525    0.9220 C.ar      1 ATP         0.2637
     32 HOG3        8.6450    1.3067   -4.2825 H         1 ATP         0.4378
     33 H5'1        2.8432    0.3119   -2.6398 H         1 ATP         0.0340
     34 H5'2        1.2128   -0.0927   -2.0428 H         1 ATP         0.0340
     35 H4'         3.8044   -0.1397   -0.4040 H         1 ATP         0.0910
     36 H3'         1.6764   -1.7639    0.2728 H         1 ATP         0.0656
     37 HO3'        3.5554   -1.2733    1.4914 H         1 ATP         0.4386
     38 H2'        -0.0011    0.0027    0.0003 H         1 ATP         0.0788
     39 HO2'       -0.1563   -0.9855    2.0596 H         1 ATP         0.4363
     40 H1'         1.7826    1.9024    1.6451 H         1 ATP         0.1225
     41 H8          0.7125    2.3429   -1.9292 H         1 ATP         0.3824
     42 HN62       -3.3217    6.4517    0.2629 H         1 ATP         0.4018
     43 H2         -1.5188    4.4223    3.7890 H         1 ATP         0.0652
     44 H44        -2.7470    5.7626    2.3665 H         1 ATP         0.4503
     45 H45        -1.0305    4.1680   -2.1054 H         1 ATP         0.5209
@<TRIPOS>BOND
     1    1    2 2
     2    1    3 1
     3    1    4 1
     4    1    8 1
     5    4   32 1
     6    5    6 2
     7    5    7 1
     8    5    8 1
     9    5   12 1
    10    9   10 2
    11    9   11 1
    12    9   12 1
    13    9   13 1
    14   13   14 1
    15   14   15 1
    16   14   33 1
    17   14   34 1
    18   15   16 1
    19   15   17 1
    20   15   35 1
    21   16   21 1
    22   17   18 1
    23   17   19 1
    24   17   36 1
    25   18   37 1
    26   19   20 1
    27   19   21 1
    28   19   38 1
    29   20   39 1
    30   21   22 1
    31   21   40 1
    32   22   23 ar
    33   22   31 ar
    34   23   24 ar
    35   23   41 1
    36   24   25 ar
    37   24   45 1
    38   25   26 ar
    39   25   31 ar
    40   26   27 2
    41   26   28 ar
    42   27   42 1
    43   28   29 ar
    44   28   44 1
    45   29   30 ar
    46   29   43 1
    47   30   31 ar
@<TRIPOS>SUBSTRUCTURE
     1 ATP         1 GROUP 0 A     ****
@<TRIPOS>MOLECULE
[[[3,4-dihydroxy-5-(6-imino-7,8-dihydro-1~{H}-purin-8-ylium-9-yl)tetrahydrofuran-2-yl]methoxy-oxido-phosphoryl]oxy-oxido-phosphoryl] hydrogen phosphate
   45    47     1     0     0
SMALL
USER_CHARGES

@<TRIPOS>ATOM
      1 PG         -4.3420   -5.5129   -1.3817 P.3       1 ATP         1.5631
      2 O1G        -4.5469   -6.8234   -2.1084 O.co2     1 ATP        -0.8806
      3 O2G        -2.9772   -4.8639   -1.3192 O.co2     1 ATP        -0.8806
      4 O3G        -5.4079   -4.4232   -1.9668 O.3       1 ATP        -0.8165
      5 PB         -4.4154   -6.5644    1.3810 P.3       1 ATP         1.6877
      6 O1B        -5.2069   -6.1950    2.6157 O.co2     1 ATP        -0.8727
      7 O2B        -4.3119   -8.0003    0.9173 O.co2     1 ATP        -0.8727
      8 O3B        -4.9336   -5.6475    0.1334 O.3       1 ATP        -0.8330
      9 PA         -1.7128   -6.3370    2.5639 P.3       1 ATP         1.6036
     10 O1A        -1.2607   -7.7533    2.2812 O.co2     1 ATP        -0.9062
     11 O2A        -2.1423   -5.9253    3.9552 O.co2     1 ATP        -0.9062
     12 O3A        -2.9097   -5.9496    1.5213 O.3       1 ATP        -0.8166
     13 O5'        -0.5687   -5.2869    2.0510 O.3       1 ATP        -0.5510
     14 C5'        -0.7840   -3.8935    2.2172 C.3       1 ATP         0.2099
     15 C4'        -0.0724   -3.1466    1.1027 C.3       1 ATP         0.0598
     16 O4'        -0.8674   -3.1929   -0.0945 O.3       1 ATP        -0.3455
     17 C3'         0.1338   -1.6715    1.4027 C.3       1 ATP         0.0742
     18 O3'         1.2893   -1.4445    2.1808 O.3       1 ATP        -0.6025
     19 C2'         0.2158   -1.0724    0.0128 C.3       1 ATP         0.1145
     20 O2'         1.5141   -1.2448   -0.5513 O.3       1 ATP        -0.5835
     21 C1'        -0.7897   -1.9176   -0.7583 C.3       1 ATP         0.3776
     22 N9         -2.1040   -1.3333   -0.7704 N.pl3     1 ATP        -0.4429
     23 C8         -3.0590   -1.5123    0.1363 C.ar      1 ATP         0.2964
     24 N7         -4.1655   -0.8354   -0.1554 N.pl3     1 ATP        -0.4957
     25 C5         -3.8852   -0.1874   -1.3253 C.ar      1 ATP        -0.1346
     26 C6         -4.7113    0.7160   -2.1458 C.ar      1 ATP         0.7213
     27 N6         -5.9213    1.0209   -1.8021 N.2       1 ATP        -0.8215
     28 N1         -4.0411    1.1673   -3.2764 N.pl3     1 ATP        -0.8455
     29 C2         -2.7403    0.7865   -3.5638 C.ar      1 ATP         0.6477
     30 N3         -1.9921   -0.0108   -2.8519 N.2       1 ATP        -0.5707
     31 C4         -2.6302   -0.4747   -1.7239 C.ar      1 ATP         0.2637
     32 HOG3       -5.4008   -3.5161   -1.5934 H         1 ATP         0.4378
     33 H5'1       -1.8598   -3.6968    2.1850 H         1 ATP         0.0340
     34 H5'2       -0.3933   -3.5903    3.1931 H         1 ATP         0.0340
     35 H4'         0.8874   -3.6466    0.8805 H         1 ATP         0.0910
     36 H3'        -0.7376   -1.2333    1.9867 H         1 ATP         0.0656
     37 HO3'        1.3408   -0.4870    2.3219 H         1 ATP         0.4386
     38 H2'        -0.0384   -0.0310    0.0096 H         1 ATP         0.0788
     39 HO2'        2.1463   -0.7958    0.0370 H         1 ATP         0.4363
     40 H1'        -0.4769   -2.1002   -1.8093 H         1 ATP         0.1225
     41 H8         -2.9569   -2.1323    1.0098 H         1 ATP         0.3824
     42 HN62       -6.3169    1.6552   -2.5012 H         1 ATP         0.4018
     43 H2         -2.3612    1.2343   -4.4957 H         1 ATP         0.0652
     44 H44        -4.5223    1.7976   -3.9117 H         1 ATP         0.4503
     45 H45        -5.0218   -0.8132    0.3804 H         1 ATP         0.5209
@<TRIPOS>BOND
     1    1    2 2
     2    1    3 1
     3    1    4 1
     4    1    8 1
     5    4   32 1
     6    5    6 2
     7    5    7 1
     8    5    8 1
     9    5   12 1
    10    9   10 2
    11    9   11 1
    12    9   12 1
    13    9   13 1
    14   13   14 1
    15   14   15 1
    16   14   33 1
    17   14   34 1
    18   15   16 1
    19   15   17 1
    20   15   35 1
    21   16   21 1
    22   17   18 1
    23   17   19 1
    24   17   36 1
    25   18   37 1
    26   19   20 1
    27   19   21 1
    28   19   38 1
    29   20   39 1
    30   21   22 1
    31   21   40 1
    32   22   23 ar
    33   22   31 ar
    34   23   24 ar
    35   23   41 1
    36   24   25 ar
    37   24   45 1
    38   25   26 ar
    39   25   31 ar
    40   26   27 2
    41   26   28 ar
    42   27   42 1
    43   28   29 ar
    44   28   44 1
    45   29   30 ar
    46   29   43 1
    47   30   31 ar
@<TRIPOS>SUBSTRUCTURE
     1 ATP         1 GROUP 0 A     ****
@<TRIPOS>MOLECULE
[[[3,4-dihydroxy-5-(6-imino-7,8-dihydro-1~{H}-purin-8-ylium-9-yl)tetrahydrofuran-2-yl]methoxy-oxido-phosphoryl]oxy-oxido-phosphoryl] hydrogen phosphate
   45    47     1     0     0
SMALL
USER_CHARGES

@<TRIPOS>ATOM
      1 PG          1.4697   -3.8521   -5.4442 P.3       1 ATP         1.5631
      2 O1G         2.1370   -3.6588   -4.1008 O.co2     1 ATP        -0.8806
      3 O2G         2.2615   -4.3186   -6.6455 O.co2     1 ATP        -0.8806
      4 O3G         0.1895   -4.8466   -5.2491 O.3       1 ATP        -0.8165
      5 PB          1.2375   -1.0019   -6.1965 P.3       1 ATP         1.6877
      6 O1B         2.2668   -1.1311   -7.2970 O.co2     1 ATP        -0.8727
      7 O2B         0.0693   -0.0498   -6.3243 O.co2     1 ATP        -0.8727
      8 O3B         0.6646   -2.4882   -5.8385 O.3       1 ATP        -0.8330
      9 PA          2.8621    0.6170   -4.3270 P.3       1 ATP         1.6036
     10 O1A         1.9204    1.7976   -4.2287 O.co2     1 ATP        -0.9062
     11 O2A         4.1143    0.6947   -5.1729 O.co2     1 ATP        -0.9062
     12 O3A         2.0098   -0.6976   -4.7908 O.3       1 ATP        -0.8166
     13 O5'         3.2903    0.1346   -2.8241 O.3       1 ATP        -0.5510
     14 C5'         2.2816   -0.2918   -1.9206 C.3       1 ATP         0.2099
     15 C4'         2.7248    0.0226   -0.4980 C.3       1 ATP         0.0598
     16 O4'         2.4697    1.4219   -0.2462 O.3       1 ATP        -0.3455
     17 C3'         1.9404   -0.7419    0.5596 C.3       1 ATP         0.0742
     18 O3'         2.7418   -0.8086    1.7389 O.3       1 ATP        -0.6025
     19 C2'         0.7477    0.1630    0.7858 C.3       1 ATP         0.1145
     20 O2'         0.1373   -0.0577    2.0407 O.3       1 ATP        -0.5835
     21 C1'         1.3733    1.5427    0.6747 C.3       1 ATP         0.3776
     22 N9          0.4520    2.5240    0.1767 N.pl3     1 ATP        -0.4429
     23 C8          0.2216    2.8192   -1.0985 C.ar      1 ATP         0.2964
     24 N7         -0.6906    3.7763   -1.2384 N.pl3     1 ATP        -0.4957
     25 C5         -1.0575    4.1037    0.0366 C.ar      1 ATP        -0.1346
     26 C6         -2.0291    5.0943    0.5330 C.ar      1 ATP         0.7213
     27 N6         -2.7093    5.8371   -0.2800 N.2       1 ATP        -0.8215
     28 N1         -2.1051    5.1136    1.9204 N.pl3     1 ATP        -0.8455
     29 C2         -1.3354    4.2774    2.7129 C.ar      1 ATP         0.6477
     30 N3         -0.4707    3.3945    2.2944 N.2       1 ATP        -0.5707
     31 C4         -0.3734    3.3525    0.9220 C.ar      1 ATP         0.2637
     32 HOG3       -0.3514   -5.0712   -6.0360 H         1 ATP         0.4378
     33 H5'1        1.3514    0.2330   -2.1577 H         1 ATP         0.0340
     34 H5'2        2.1280   -1.3678   -2.0460 H         1 ATP         0.0340
     35 H4'         3.8044   -0.1397   -0.4040 H         1 ATP         0.0910
     36 H3'         1.6764   -1.7639    0.2728 H         1 ATP         0.0656
     37 HO3'        2.2232   -1.2979    2.3953 H         1 ATP         0.4386
     38 H2'        -0.0011    0.0027    0.0003 H         1 ATP         0.0788
     39 HO2'       -0.6141    0.5574    2.1082 H         1 ATP         0.4363
     40 H1'         1.7826    1.9024    1.6451 H         1 ATP         0.1225
     41 H8          0.7125    2.3429   -1.9292 H         1 ATP         0.3824
     42 HN62       -3.3217    6.4517    0.2629 H         1 ATP         0.4018
     43 H2         -1.5188    4.4223    3.7890 H         1 ATP         0.0652
     44 H44        -2.7470    5.7626    2.3665 H         1 ATP         0.4503
     45 H45        -1.0305    4.1680   -2.1054 H         1 ATP         0.5209
@<TRIPOS>BOND
     1    1    2 2
     2    1    3 1
     3    1    4 1
     4    1    8 1
     5    4   32 1
     6    5    6 2
     7    5    7 1
     8    5    8 1
     9    5   12 1
    10    9   10 2
    11    9   11 1
    12    9   12 1
    13    9   13 1
    14   13   14 1
    15   14   15 1
    16   14   33 1
    17   14   34 1
    18   15   16 1
    19   15   17 1
    20   15   35 1
    21   16   21 1
    22   17   18 1
    23   17   19 1
    24   17   36 1
    25   18   37 1
    26   19   20 1
    27   19   21 1
    28   19   38 1
    29   20   39 1
    30   21   22 1
    31   21   40 1
    32   22   23 ar
    33   22   31 ar
    34   23   24 ar
    35   23   41 1
    36   24   25 ar
    37   24   45 1
    38   25   26 ar
    39   25   31 ar
    40   26   27 2
    41   26   28 ar
    42   27   42 1
    43   28   29 ar
    44   28   44 1
    45   29   30 ar
    46   29   43 1
    47   30   31 ar
@<TRIPOS>SUBSTRUCTURE
     1 ATP         1 GROUP 0 A     ****
@<TRIPOS>MOLECULE
[[[3,4-dihydroxy-5-(6-imino-7,8-dihydro-1~{H}-purin-8-ylium-9-yl)tetrahydrofuran-2-yl]methoxy-oxido-phosphoryl]oxy-oxido-phosphoryl] hydrogen phosphate
   45    47     1     0     0
SMALL
USER_CHARGES

@<TRIPOS>ATOM
      1 PG          2.6193    4.6110   -7.0011 P.3       1 ATP         1.5631
      2 O1G         1.5967    4.2495   -8.0552 O.co2     1 ATP        -0.8806
      3 O2G         4.0703    4.8289   -7.3682 O.co2     1 ATP        -0.8806
      4 O3G         2.0867    5.9246   -6.1907 O.3       1 ATP        -0.8165
      5 PB          1.2543    3.0325   -4.9061 P.3       1 ATP         1.6877
      6 O1B         0.7746    4.1919   -4.0616 O.co2     1 ATP        -0.8727
      7 O2B         0.3061    2.2767   -5.8101 O.co2     1 ATP        -0.8727
      8 O3B         2.5384    3.5229   -5.7873 O.3       1 ATP        -0.8330
      9 PA          2.8621    0.6170   -4.3270 P.3       1 ATP         1.6036
     10 O1A         4.0995    1.0217   -5.0986 O.co2     1 ATP        -0.9062
     11 O2A         1.8962   -0.4011   -4.8927 O.co2     1 ATP        -0.9062
     12 O3A         2.0209    1.9632   -3.9398 O.3       1 ATP        -0.8166
     13 O5'         3.2903    0.1346   -2.8241 O.3       1 ATP        -0.5510
     14 C5'         2.2816   -0.2918   -1.9206 C.3       1 ATP         0.2099
     15 C4'         2.7248    0.0226   -0.4980 C.3       1 ATP         0.0598
     16 O4'         2.4697    1.4219   -0.2462 O.3       1 ATP        -0.3455
     17 C3'         1.9404   -0.7419    0.5596 C.3       1 ATP         0.0742
     18 O3'         2.7418   -0.8086    1.7389 O.3       1 ATP        -0.6025
     19 C2'         0.7477    0.1630    0.7858 C.3       1 ATP         0.1145
     20 O2'         0.1373   -0.0577    2.0407 O.3       1 ATP        -0.5835
     21 C1'         1.3733    1.5427    0.6747 C.3       1 ATP         0.3776
     22 N9          0.4520    2.5240    0.1767 N.pl3     1 ATP        -0.4429
     23 C8         -0.2004    2.4829   -0.9804 C.ar      1 ATP         0.2964
     24 N7         -0.9830    3.5431   -1.1568 N.pl3     1 ATP        -0.4957
     25 C5         -0.8095    4.3012   -0.0331 C.ar      1 ATP        -0.1346
     26 C6         -1.4065    5.5904    0.3585 C.ar      1 ATP         0.7213
     27 N6         -2.2501    6.2030   -0.4084 N.2       1 ATP        -0.8215
     28 N1         -0.9585    6.0272    1.5994 N.pl3     1 ATP        -0.8455
     29 C2         -0.0508    5.3009    2.3532 C.ar      1 ATP         0.6477
     30 N3          0.4890    4.1592    2.0257 N.2       1 ATP        -0.5707
     31 C4          0.0637    3.7006    0.7995 C.ar      1 ATP         0.2637
     32 HOG3        2.6438    6.2852   -5.4683 H         1 ATP         0.4378
     33 H5'1        1.3514    0.2330   -2.1577 H         1 ATP         0.0340
     34 H5'2        2.1280   -1.3678   -2.0460 H         1 ATP         0.0340
     35 H4'         3.8044   -0.1397   -0.4040 H         1 ATP         0.0910
     36 H3'         1.6764   -1.7639    0.2728 H         1 ATP         0.0656
     37 HO3'        2.2232   -1.2979    2.3953 H         1 ATP         0.4386
     38 H2'        -0.0011    0.0027    0.0003 H         1 ATP         0.0788
     39 HO2'       -0.6141    0.5574    2.1082 H         1 ATP         0.4363
     40 H1'         1.7826    1.9024    1.6451 H         1 ATP         0.1225
     41 H8         -0.1116    1.6863   -1.6984 H         1 ATP         0.3824
     42 HN62       -2.5420    7.0730    0.0447 H         1 ATP         0.4018
     43 H2          0.1969    5.7893    3.3086 H         1 ATP         0.0652
     44 H44        -1.3097    6.9080    1.9642 H         1 ATP         0.4503
     45 H45        -1.5735    3.7351   -1.9538 H         1 ATP         0.5209
@<TRIPOS>BOND
     1    1    2 2
     2    1    3 1
     3    1    4 1
     4    1    8 1
     5    4   32 1
     6    5    6 2
     7    5    7 1
     8    5    8 1
     9    5   12 1
    10    9   10 2
    11    9   11 1
    12    9   12 1
    13    9   13 1
    14   13   14 1
    15   14   15 1
    16   14   33 1
    17   14   34 1
    18   15   16 1
    19   15   17 1
    20   15   35 1
    21   16   21 1
    22   17   18 1
    23   17   19 1
    24   17   36 1
    25   18   37 1
    26   19   20 1
    27   19   21 1
    28   19   38 1
    29   20   39 1
    30   21   22 1
    31   21   40 1
    32   22   23 ar
    33   22   31 ar
    34   23   24 ar
    35   23   41 1
    36   24   25 ar
    37   24   45 1
    38   25   26 ar
    39   25   31 ar
    40   26   27 2
    41   26   28 ar
    42   27   42 1
    43   28   29 ar
    44   28   44 1
    45   29   30 ar
    46   29   43 1
    47   30   31 ar
@<TRIPOS>SUBSTRUCTURE
     1 ATP         1 GROUP 0 A     ****
@<TRIPOS>MOLECULE
[[[3,4-dihydroxy-5-(6-imino-7,8-dihydro-1~{H}-purin-8-ylium-9-yl)tetrahydrofuran-2-yl]methoxy-oxido-phosphoryl]oxy-oxido-phosphoryl] hydrogen phosphate
   45    47     1     0     0
SMALL
USER_CHARGES

@<TRIPOS>ATOM
      1 PG          2.3378    0.9013   -6.5984 P.3       1 ATP         1.5631
      2 O1G         2.9202    1.1568   -5.2262 O.co2     1 ATP        -0.8806
      3 O2G         1.0087    1.4997   -7.0024 O.co2     1 ATP        -0.8806
      4 O3G         3.4524    1.3100   -7.7193 O.3       1 ATP        -0.8165
      5 PB          1.4094   -1.8679   -6.1367 P.3       1 ATP         1.6877
      6 O1B        -0.0482   -1.4675   -6.1877 O.co2     1 ATP        -0.8727
      7 O2B         1.8688   -3.2184   -6.6394 O.co2     1 ATP        -0.8727
      8 O3B         2.2967   -0.7081   -6.8668 O.3       1 ATP        -0.8330
      9 PA          1.5544   -2.4558   -3.2404 P.3       1 ATP         1.6036
     10 O1A         2.0071   -3.8949   -3.3601 O.co2     1 ATP        -0.9062
     11 O2A         0.1180   -2.1225   -2.9010 O.co2     1 ATP        -0.9062
     12 O3A         1.9553   -1.6633   -4.6119 O.3       1 ATP        -0.8166
     13 O5'         2.5245   -1.6648   -2.1878 O.3       1 ATP        -0.5510
     14 C5'         2.2816   -0.2918   -1.9206 C.3       1 ATP         0.2099
     15 C4'         2.7248    0.0226   -0.4980 C.3       1 ATP         0.0598
     16 O4'         2.4697    1.4219   -0.2462 O.3       1 ATP        -0.3455
     17 C3'         1.9404   -0.7419    0.5596 C.3       1 ATP         0.0742
     18 O3'         2.7418   -0.8086    1.7389 O.3       1 ATP        -0.6025
     19 C2'         0.7477    0.1630    0.7858 C.3       1 ATP         0.1145
     20 O2'         0.1373   -0.0577    2.0407 O.3       1 ATP        -0.5835
     21 C1'         1.3733    1.5427    0.6747 C.3       1 ATP         0.3776
     22 N9          0.4520    2.5240    0.1767 N.pl3     1 ATP        -0.4429
     23 C8          0.2216    2.8192   -1.0985 C.ar      1 ATP         0.2964
     24 N7         -0.6906    3.7763   -1.2384 N.pl3     1 ATP        -0.4957
     25 C5         -1.0575    4.1037    0.0366 C.ar      1 ATP        -0.1346
     26 C6         -2.0291    5.0943    0.5330 C.ar      1 ATP         0.7213
     27 N6         -2.7093    5.8371   -0.2800 N.2       1 ATP        -0.8215
     28 N1         -2.1051    5.1136    1.9204 N.pl3     1 ATP        -0.8455
     29 C2         -1.3354    4.2774    2.7129 C.ar      1 ATP         0.6477
     30 N3         -0.4707    3.3945    2.2944 N.2       1 ATP        -0.5707
     31 C4         -0.3734    3.3525    0.9220 C.ar      1 ATP         0.2637
     32 HOG3        3.2235    1.2008   -8.6669 H         1 ATP         0.4378
     33 H5'1        2.8432    0.3119   -2.6398 H         1 ATP         0.0340
     34 H5'2        1.2128   -0.0927   -2.0428 H         1 ATP         0.0340
     35 H4'         3.8044   -0.1397   -0.4040 H         1 ATP         0.0910
     36 H3'         1.6764   -1.7639    0.2728 H         1 ATP         0.0656
     37 HO3'        2.2232   -1.2979    2.3953 H         1 ATP         0.4386
     38 H2'        -0.0011    0.0027    0.0003 H         1 ATP         0.0788
     39 HO2'       -0.6141    0.5574    2.1082 H         1 ATP         0.4363
     40 H1'         1.7826    1.9024    1.6451 H         1 ATP         0.1225
     41 H8          0.7125    2.3429   -1.9292 H         1 ATP         0.3824
     42 HN62       -3.3217    6.4517    0.2629 H         1 ATP         0.4018
     43 H2         -1.5188    4.4223    3.7890 H         1 ATP         0.0652
     44 H44        -2.7470    5.7626    2.3665 H         1 ATP         0.4503
     45 H45        -1.0305    4.1680   -2.1054 H         1 ATP         0.5209
@<TRIPOS>BOND
     1    1    2 2
     2    1    3 1
     3    1    4 1
     4    1    8 1
     5    4   32 1
     6    5    6 2
     7    5    7 1
     8    5    8 1
     9    5   12 1
    10    9   10 2
    11    9   11 1
    12    9   12 1
    13    9   13 1
    14   13   14 1
    15   14   15 1
    16   14   33 1
    17   14   34 1
    18   15   16 1
    19   15   17 1
    20   15   35 1
    21   16   21 1
    22   17   18 1
    23   17   19 1
    24   17   36 1
    25   18   37 1
    26   19   20 1
    27   19   21 1
    28   19   38 1
    29   20   39 1
    30   21   22 1
    31   21   40 1
    32   22   23 ar
    33   22   31 ar
    34   23   24 ar
    35   23   41 1
    36   24   25 ar
    37   24   45 1
    38   25   26 ar
    39   25   31 ar
    40   26   27 2
    41   26   28 ar
    42   27   42 1
    43   28   29 ar
    44   28   44 1
    45   29   30 ar
    46   29   43 1
    47   30   31 ar
@<TRIPOS>SUBSTRUCTURE
     1 ATP         1 GROUP 0 A     ****
@<TRIPOS>MOLECULE
[[[3,4-dihydroxy-5-(6-imino-7,8-dihydro-1~{H}-purin-8-ylium-9-yl)tetrahydrofuran-2-yl]methoxy-oxido-phosphoryl]oxy-oxido-phosphoryl] hydrogen phosphate
   45    47     1     0     0
SMALL
USER_CHARGES

@<TRIPOS>ATOM
      1 PG         -0.2662    1.6627   -6.1541 P.3       1 ATP         1.5631
      2 O1G         0.2035    2.4048   -7.3854 O.co2     1 ATP        -0.8806
      3 O2G         0.1743    2.0923   -4.7724 O.co2     1 ATP        -0.8806
      4 O3G        -1.8974    1.5944   -6.1804 O.3       1 ATP        -0.8165
      5 PB          1.4827   -0.7072   -6.4161 P.3       1 ATP         1.6877
      6 O1B         1.2241   -2.1973   -6.4227 O.co2     1 ATP        -0.8727
      7 O2B         2.3331   -0.0549   -7.4833 O.co2     1 ATP        -0.8727
      8 O3B         0.0502    0.0723   -6.3395 O.3       1 ATP        -0.8330
      9 PA          3.4844   -0.6652   -4.2374 P.3       1 ATP         1.6036
     10 O1A         4.6107   -0.0317   -5.0250 O.co2     1 ATP        -0.9062
     11 O2A         3.4852   -2.1497   -3.9439 O.co2     1 ATP        -0.9062
     12 O3A         2.0649   -0.2836   -4.9510 O.3       1 ATP        -0.8166
     13 O5'         3.2903    0.1346   -2.8241 O.3       1 ATP        -0.5510
     14 C5'         2.2816   -0.2918   -1.9206 C.3       1 ATP         0.2099
     15 C4'         2.7248    0.0226   -0.4980 C.3       1 ATP         0.0598
     16 O4'         2.4697    1.4219   -0.2462 O.3       1 ATP        -0.3455
     17 C3'         1.9404   -0.7419    0.5596 C.3       1 ATP         0.0742
     18 O3'         2.7418   -0.8086    1.7389 O.3       1 ATP        -0.6025
     19 C2'         0.7477    0.1630    0.7858 C.3       1 ATP         0.1145
     20 O2'         0.1373   -0.0577    2.0407 O.3       1 ATP        -0.5835
     21 C1'         1.3733    1.5427    0.6747 C.3       1 ATP         0.3776
     22 N9          0.4520    2.5240    0.1767 N.pl3     1 ATP        -0.4429
     23 C8          0.2216    2.8192   -1.0985 C.ar      1 ATP         0.2964
     24 N7         -0.6906    3.7763   -1.2384 N.pl3     1 ATP        -0.4957
     25 C5         -1.0575    4.1037    0.0366 C.ar      1 ATP        -0.1346
     26 C6         -2.0291    5.0943    0.5330 C.ar      1 ATP         0.7213
     27 N6         -2.7093    5.8371   -0.2800 N.2       1 ATP        -0.8215
     28 N1         -2.1051    5.1136    1.9204 N.pl3     1 ATP        -0.8455
     29 C2         -1.3354    4.2774    2.7129 C.ar      1 ATP         0.6477
     30 N3         -0.4707    3.3945    2.2944 N.2       1 ATP        -0.5707
     31 C4         -0.3734    3.3525    0.9220 C.ar      1 ATP         0.2637
     32 HOG3       -2.3576    1.1405   -5.4425 H         1 ATP         0.4378
     33 H5'1        1.3514    0.2330   -2.1577 H         1 ATP         0.0340
     34 H5'2        2.1280   -1.3678   -2.0460 H         1 ATP         0.0340
     35 H4'         3.8044   -0.1397   -0.4040 H         1 ATP         0.0910
     36 H3'         1.6764   -1.7639    0.2728 H         1 ATP         0.0656
     37 HO3'        2.2232   -1.2979    2.3953 H         1 ATP         0.4386
     38 H2'        -0.0011    0.0027    0.0003 H         1 ATP         0.0788
     39 HO2'       -0.6141    0.5574    2.1082 H         1 ATP         0.4363
     40 H1'         1.7826    1.9024    1.6451 H         1 ATP         0.1225
     41 H8          0.7125    2.3429   -1.9292 H         1 ATP         0.3824
     42 HN62       -3.3217    6.4517    0.2629 H         1 ATP         0.4018
     43 H2         -1.5188    4.4223    3.7890 H         1 ATP         0.0652
     44 H44        -2.7470    5.7626    2.3665 H         1 ATP         0.4503
     45 H45        -1.0305    4.1680   -2.1054 H         1 ATP         0.5209
@<TRIPOS>BOND
     1    1    2 2
     2    1    3 1
     3    1    4 1
     4    1    8 1
     5    4   32 1
     6    5    6 2
     7    5    7 1
     8    5    8 1
     9    5   12 1
    10    9   10 2
    11    9   11 1
    12    9   12 1
    13    9   13 1
    14   13   14 1
    15   14   15 1
    16   14   33 1
    17   14   34 1
    18   15   16 1
    19   15   17 1
    20   15   35 1
    21   16   21 1
    22   17   18 1
    23   17   19 1
    24   17   36 1
    25   18   37 1
    26   19   20 1
    27   19   21 1
    28   19   38 1
    29   20   39 1
    30   21   22 1
    31   21   40 1
    32   22   23 ar
    33   22   31 ar
    34   23   24 ar
    35   23   41 1
    36   24   25 ar
    37   24   45 1
    38   25   26 ar
    39   25   31 ar
    40   26   27 2
    41   26   28 ar
    42   27   42 1
    43   28   29 ar
    44   28   44 1
    45   29   30 ar
    46   29   43 1
    47   30   31 ar
@<TRIPOS>SUBSTRUCTURE
     1 ATP         1 GROUP 0 A     ****
@<TRIPOS>MOLECULE
[[[3,4-dihydroxy-5-(6-imino-7,8-dihydro-1~{H}-purin-8-ylium-9-yl)tetrahydrofuran-2-yl]methoxy-oxido-phosphoryl]oxy-oxido-phosphoryl] hydrogen phosphate
   45    47     1     0     0
SMALL
USER_CHARGES

@<TRIPOS>ATOM
      1 PG         -0.7639   -5.5501   -5.6558 P.3       1 ATP         1.5631
      2 O1G        -0.0429   -6.8414   -5.3390 O.co2     1 ATP        -0.8806
      3 O2G        -0.8913   -5.0605   -7.0812 O.co2     1 ATP        -0.8806
      4 O3G        -2.2552   -5.6129   -4.9940 O.3       1 ATP        -0.8165
      5 PB         -0.6289   -2.8068   -4.5607 P.3       1 ATP         1.6877
      6 O1B        -0.4217   -2.0779   -5.8696 O.co2     1 ATP        -0.8727
      7 O2B        -1.9720   -2.8019   -3.8654 O.co2     1 ATP        -0.8727
      8 O3B        -0.1376   -4.3535   -4.7395 O.3       1 ATP        -0.8330
      9 PA          2.1372   -2.2718   -3.6563 P.3       1 ATP         1.6036
     10 O1A         2.4977   -1.2667   -4.7287 O.co2     1 ATP        -0.9062
     11 O2A         2.6452   -3.6953   -3.7281 O.co2     1 ATP        -0.9062
     12 O3A         0.5112   -2.3140   -3.5013 O.3       1 ATP        -0.8166
     13 O5'         2.5245   -1.6648   -2.1878 O.3       1 ATP        -0.5510
     14 C5'         2.2816   -0.2918   -1.9206 C.3       1 ATP         0.2099
     15 C4'         2.7248    0.0226   -0.4980 C.3       1 ATP         0.0598
     16 O4'         2.4697    1.4219   -0.2462 O.3       1 ATP        -0.3455
     17 C3'         1.9404   -0.7419    0.5596 C.3       1 ATP         0.0742
     18 O3'         2.7418   -0.8086    1.7389 O.3       1 ATP        -0.6025
     19 C2'         0.7477    0.1630    0.7858 C.3       1 ATP         0.1145
     20 O2'         0.1373   -0.0577    2.0407 O.3       1 ATP        -0.5835
     21 C1'         1.3733    1.5427    0.6747 C.3       1 ATP         0.3776
     22 N9          0.4520    2.5240    0.1767 N.pl3     1 ATP        -0.4429
     23 C8          0.2216    2.8192   -1.0985 C.ar      1 ATP         0.2964
     24 N7         -0.6906    3.7763   -1.2384 N.pl3     1 ATP        -0.4957
     25 C5         -1.0575    4.1037    0.0366 C.ar      1 ATP        -0.1346
     26 C6         -2.0291    5.0943    0.5330 C.ar      1 ATP         0.7213
     27 N6         -2.7093    5.8371   -0.2800 N.2       1 ATP        -0.8215
     28 N1         -2.1051    5.1136    1.9204 N.pl3     1 ATP        -0.8455
     29 C2         -1.3354    4.2774    2.7129 C.ar      1 ATP         0.6477
     30 N3         -0.4707    3.3945    2.2944 N.2       1 ATP        -0.5707
     31 C4         -0.3734    3.3525    0.9220 C.ar      1 ATP         0.2637
     32 HOG3       -2.8514   -4.8430   -5.1125 H         1 ATP         0.4378
     33 H5'1        2.8432    0.3119   -2.6398 H         1 ATP         0.0340
     34 H5'2        1.2128   -0.0927   -2.0428 H         1 ATP         0.0340
     35 H4'         3.8044   -0.1397   -0.4040 H         1 ATP         0.0910
     36 H3'         1.6764   -1.7639    0.2728 H         1 ATP         0.0656
     37 HO3'        2.2232   -1.2979    2.3953 H         1 ATP         0.4386
     38 H2'        -0.0011    0.0027    0.0003 H         1 ATP         0.0788
     39 HO2'       -0.6141    0.5574    2.1082 H         1 ATP         0.4363
     40 H1'         1.7826    1.9024    1.6451 H         1 ATP         0.1225
     41 H8          0.7125    2.3429   -1.9292 H         1 ATP         0.3824
     42 HN62       -3.3217    6.4517    0.2629 H         1 ATP         0.4018
     43 H2         -1.5188    4.4223    3.7890 H         1 ATP         0.0652
     44 H44        -2.7470    5.7626    2.3665 H         1 ATP         0.4503
     45 H45        -1.0305    4.1680   -2.1054 H         1 ATP         0.5209
@<TRIPOS>BOND
     1    1    2 2
     2    1    3 1
     3    1    4 1
     4    1    8 1
     5    4   32 1
     6    5    6 2
     7    5    7 1
     8    5    8 1
     9    5   12 1
    10    9   10 2
    11    9   11 1
    12    9   12 1
    13    9   13 1
    14   13   14 1
    15   14   15 1
    16   14   33 1
    17   14   34 1
    18   15   16 1
    19   15   17 1
    20   15   35 1
    21   16   21 1
    22   17   18 1
    23   17   19 1
    24   17   36 1
    25   18   37 1
    26   19   20 1
    27   19   21 1
    28   19   38 1
    29   20   39 1
    30   21   22 1
    31   21   40 1
    32   22   23 ar
    33   22   31 ar
    34   23   24 ar
    35   23   41 1
    36   24   25 ar
    37   24   45 1
    38   25   26 ar
    39   25   31 ar
    40   26   27 2
    41   26   28 ar
    42   27   42 1
    43   28   29 ar
    44   28   44 1
    45   29   30 ar
    46   29   43 1
    47   30   31 ar
@<TRIPOS>SUBSTRUCTURE
     1 ATP         1 GROUP 0 A     ****
@<TRIPOS>MOLECULE
[[[3,4-dihydroxy-5-(6-imino-7,8-dihydro-1~{H}-purin-8-ylium-9-yl)tetrahydrofuran-2-yl]methoxy-oxido-phosphoryl]oxy-oxido-phosphoryl] hydrogen phosphate
   45    47     1     0     0
SMALL
USER_CHARGES

@<TRIPOS>ATOM
      1 PG          5.5130    0.1349   -7.5608 P.3       1 ATP         1.5631
      2 O1G         6.6456    1.0166   -7.0840 O.co2     1 ATP        -0.8806
      3 O2G         4.5352    0.6232   -8.6064 O.co2     1 ATP        -0.8806
      4 O3G         6.1385   -1.2881   -8.0604 O.3       1 ATP        -0.8165
      5 PB          3.4664   -1.4950   -6.1831 P.3       1 ATP         1.6877
      6 O1B         2.2520   -0.9254   -6.8820 O.co2     1 ATP        -0.8727
      7 O2B         4.0141   -2.8564   -6.5492 O.co2     1 ATP        -0.8727
      8 O3B         4.6779   -0.4037   -6.2661 O.3       1 ATP        -0.8330
      9 PA          2.1372   -2.2718   -3.6563 P.3       1 ATP         1.6036
     10 O1A         2.4859   -3.7437   -3.7017 O.co2     1 ATP        -0.9062
     11 O2A         0.7459   -1.7951   -4.0125 O.co2     1 ATP        -0.9062
     12 O3A         3.2120   -1.4489   -4.5713 O.3       1 ATP        -0.8166
     13 O5'         2.5245   -1.6648   -2.1878 O.3       1 ATP        -0.5510
     14 C5'         2.2816   -0.2918   -1.9206 C.3       1 ATP         0.2099
     15 C4'         2.7248    0.0226   -0.4980 C.3       1 ATP         0.0598
     16 O4'         2.4697    1.4219   -0.2462 O.3       1 ATP        -0.3455
     17 C3'         1.9404   -0.7419    0.5596 C.3       1 ATP         0.0742
     18 O3'         2.7418   -0.8086    1.7389 O.3       1 ATP        -0.6025
     19 C2'         0.7477    0.1630    0.7858 C.3       1 ATP         0.1145
     20 O2'         0.1373   -0.0577    2.0407 O.3       1 ATP        -0.5835
     21 C1'         1.3733    1.5427    0.6747 C.3       1 ATP         0.3776
     22 N9          0.4520    2.5240    0.1767 N.pl3     1 ATP        -0.4429
     23 C8          0.2216    2.8192   -1.0985 C.ar      1 ATP         0.2964
     24 N7         -0.6906    3.7763   -1.2384 N.pl3     1 ATP        -0.4957
     25 C5         -1.0575    4.1037    0.0366 C.ar      1 ATP        -0.1346
     26 C6         -2.0291    5.0943    0.5330 C.ar      1 ATP         0.7213
     27 N6         -2.7093    5.8371   -0.2800 N.2       1 ATP        -0.8215
     28 N1         -2.1051    5.1136    1.9204 N.pl3     1 ATP        -0.8455
     29 C2         -1.3354    4.2774    2.7129 C.ar      1 ATP         0.6477
     30 N3         -0.4707    3.3945    2.2944 N.2       1 ATP        -0.5707
     31 C4         -0.3734    3.3525    0.9220 C.ar      1 ATP         0.2637
     32 HOG3        5.5253   -1.9735   -8.4017 H         1 ATP         0.4378
     33 H5'1        2.8432    0.3119   -2.6398 H         1 ATP         0.0340
     34 H5'2        1.2128   -0.0927   -2.0428 H         1 ATP         0.0340
     35 H4'         3.8044   -0.1397   -0.4040 H         1 ATP         0.0910
     36 H3'         1.6764   -1.7639    0.2728 H         1 ATP         0.0656
     37 HO3'        2.2232   -1.2979    2.3953 H         1 ATP         0.4386
     38 H2'        -0.0011    0.0027    0.0003 H         1 ATP         0.0788
     39 HO2'       -0.6141    0.5574    2.1082 H         1 ATP         0.4363
     40 H1'         1.7826    1.9024    1.6451 H         1 ATP         0.1225
     41 H8          0.7125    2.3429   -1.9292 H         1 ATP         0.3824
     42 HN62       -3.3217    6.4517    0.2629 H         1 ATP         0.4018
     43 H2         -1.5188    4.4223    3.7890 H         1 ATP         0.0652
     44 H44        -2.7470    5.7626    2.3665 H         1 ATP         0.4503
     45 H45        -1.0305    4.1680   -2.1054 H         1 ATP         0.5209
@<TRIPOS>BOND
     1    1    2 2
     2    1    3 1
     3    1    4 1
     4    1    8 1
     5    4   32 1
     6    5    6 2
     7    5    7 1
     8    5    8 1
     9    5   12 1
    10    9   10 2
    11    9   11 1
    12    9   12 1
    13    9   13 1
    14   13   14 1
    15   14   15 1
    16   14   33 1
    17   14   34 1
    18   15   16 1
    19   15   17 1
    20   15   35 1
    21   16   21 1
    22   17   18 1
    23   17   19 1
    24   17   36 1
    25   18   37 1
    26   19   20 1
    27   19   21 1
    28   19   38 1
    29   20   39 1
    30   21   22 1
    31   21   40 1
    32   22   23 ar
    33   22   31 ar
    34   23   24 ar
    35   23   41 1
    36   24   25 ar
    37   24   45 1
    38   25   26 ar
    39   25   31 ar
    40   26   27 2
    41   26   28 ar
    42   27   42 1
    43   28   29 ar
    44   28   44 1
    45   29   30 ar
    46   29   43 1
    47   30   31 ar
@<TRIPOS>SUBSTRUCTURE
     1 ATP         1 GROUP 0 A     ****
@<TRIPOS>MOLECULE
[[[3,4-dihydroxy-5-(6-imino-7,8-dihydro-1~{H}-purin-8-ylium-9-yl)tetrahydrofuran-2-yl]methoxy-oxido-phosphoryl]oxy-oxido-phosphoryl] hydrogen phosphate
   45    47     1     0     0
SMALL
USER_CHARGES

@<TRIPOS>ATOM
      1 PG         -3.5277   -2.7610   -3.9791 P.3       1 ATP         1.5631
      2 O1G        -4.3622   -2.1845   -2.8572 O.co2     1 ATP        -0.8806
      3 O2G        -3.7236   -4.1885   -4.4390 O.co2     1 ATP        -0.8806
      4 O3G        -3.6512   -1.7768   -5.2760 O.3       1 ATP        -0.8165
      5 PB         -0.6289   -2.8068   -4.5607 P.3       1 ATP         1.6877
      6 O1B        -0.4885   -4.2988   -4.7648 O.co2     1 ATP        -0.8727
      7 O2B        -0.6446   -1.8535   -5.7348 O.co2     1 ATP        -0.8727
      8 O3B        -1.9483   -2.5262   -3.6410 O.3       1 ATP        -0.8330
      9 PA          2.1372   -2.2718   -3.6563 P.3       1 ATP         1.6036
     10 O1A         2.4977   -1.2667   -4.7287 O.co2     1 ATP        -0.9062
     11 O2A         2.6452   -3.6953   -3.7281 O.co2     1 ATP        -0.9062
     12 O3A         0.5112   -2.3140   -3.5013 O.3       1 ATP        -0.8166
     13 O5'         2.5245   -1.6648   -2.1878 O.3       1 ATP        -0.5510
     14 C5'         2.2816   -0.2918   -1.9206 C.3       1 ATP         0.2099
     15 C4'         2.7248    0.0226   -0.4980 C.3       1 ATP         0.0598
     16 O4'         2.4697    1.4219   -0.2462 O.3       1 ATP        -0.3455
     17 C3'         1.9404   -0.7419    0.5596 C.3       1 ATP         0.0742
     18 O3'         2.7418   -0.8086    1.7389 O.3       1 ATP        -0.6025
     19 C2'         0.7477    0.1630    0.7858 C.3       1 ATP         0.1145
     20 O2'         0.1373   -0.0577    2.0407 O.3       1 ATP        -0.5835
     21 C1'         1.3733    1.5427    0.6747 C.3       1 ATP         0.3776
     22 N9          0.4520    2.5240    0.1767 N.pl3     1 ATP        -0.4429
     23 C8          0.2216    2.8192   -1.0985 C.ar      1 ATP         0.2964
     24 N7         -0.6906    3.7763   -1.2384 N.pl3     1 ATP        -0.4957
     25 C5         -1.0575    4.1037    0.0366 C.ar      1 ATP        -0.1346
     26 C6         -2.0291    5.0943    0.5330 C.ar      1 ATP         0.7213
     27 N6         -2.7093    5.8371   -0.2800 N.2       1 ATP        -0.8215
     28 N1         -2.1051    5.1136    1.9204 N.pl3     1 ATP        -0.8455
     29 C2         -1.3354    4.2774    2.7129 C.ar      1 ATP         0.6477
     30 N3         -0.4707    3.3945    2.2944 N.2       1 ATP        -0.5707
     31 C4         -0.3734    3.3525    0.9220 C.ar      1 ATP         0.2637
     32 HOG3       -3.1627   -2.0165   -6.0922 H         1 ATP         0.4378
     33 H5'1        2.8432    0.3119   -2.6398 H         1 ATP         0.0340
     34 H5'2        1.2128   -0.0927   -2.0428 H         1 ATP         0.0340
     35 H4'         3.8044   -0.1397   -0.4040 H         1 ATP         0.0910
     36 H3'         1.6764   -1.7639    0.2728 H         1 ATP         0.0656
     37 HO3'        3.5554   -1.2733    1.4914 H         1 ATP         0.4386
     38 H2'        -0.0011    0.0027    0.0003 H         1 ATP         0.0788
     39 HO2'       -0.6141    0.5574    2.1082 H         1 ATP         0.4363
     40 H1'         1.7826    1.9024    1.6451 H         1 ATP         0.1225
     41 H8          0.7125    2.3429   -1.9292 H         1 ATP         0.3824
     42 HN62       -3.3217    6.4517    0.2629 H         1 ATP         0.4018
     43 H2         -1.5188    4.4223    3.7890 H         1 ATP         0.0652
     44 H44        -2.7470    5.7626    2.3665 H         1 ATP         0.4503
     45 H45        -1.0305    4.1680   -2.1054 H         1 ATP         0.5209
@<TRIPOS>BOND
     1    1    2 2
     2    1    3 1
     3    1    4 1
     4    1    8 1
     5    4   32 1
     6    5    6 2
     7    5    7 1
     8    5    8 1
     9    5   12 1
    10    9   10 2
    11    9   11 1
    12    9   12 1
    13    9   13 1
    14   13   14 1
    15   14   15 1
    16   14   33 1
    17   14   34 1
    18   15   16 1
    19   15   17 1
    20   15   35 1
    21   16   21 1
    22   17   18 1
    23   17   19 1
    24   17   36 1
    25   18   37 1
    26   19   20 1
    27   19   21 1
    28   19   38 1
    29   20   39 1
    30   21   22 1
    31   21   40 1
    32   22   23 ar
    33   22   31 ar
    34   23   24 ar
    35   23   41 1
    36   24   25 ar
    37   24   45 1
    38   25   26 ar
    39   25   31 ar
    40   26   27 2
    41   26   28 ar
    42   27   42 1
    43   28   29 ar
    44   28   44 1
    45   29   30 ar
    46   29   43 1
    47   30   31 ar
@<TRIPOS>SUBSTRUCTURE
     1 ATP         1 GROUP 0 A     ****
@<TRIPOS>MOLECULE
[[[3,4-dihydroxy-5-(6-imino-7,8-dihydro-1~{H}-purin-8-ylium-9-yl)tetrahydrofuran-2-yl]methoxy-oxido-phosphoryl]oxy-oxido-phosphoryl] hydrogen phosphate
   45    47     1     0     0
SMALL
USER_CHARGES

@<TRIPOS>ATOM
      1 PG         -0.6860   -1.0927   -7.4727 P.3       1 ATP         1.5631
      2 O1G        -2.1422   -0.6965   -7.3739 O.co2     1 ATP        -0.8806
      3 O2G        -0.2822   -2.5451   -7.5955 O.co2     1 ATP        -0.8806
      4 O3G        -0.0039   -0.2595   -8.7001 O.3       1 ATP        -0.8165
      5 PB          0.2043    1.1390   -5.7491 P.3       1 ATP         1.6877
      6 O1B         0.9135    1.9450   -6.8144 O.co2     1 ATP        -0.8727
      7 O2B        -1.1568    1.5491   -5.2328 O.co2     1 ATP        -0.8727
      8 O3B         0.1332   -0.4190   -6.2322 O.3       1 ATP        -0.8330
      9 PA          2.7407    0.3769   -4.4297 P.3       1 ATP         1.6036
     10 O1A         3.6422    1.3305   -5.1835 O.co2     1 ATP        -0.9062
     11 O2A         2.7080   -1.0952   -4.7784 O.co2     1 ATP        -0.9062
     12 O3A         1.2115    0.9503   -4.4784 O.3       1 ATP        -0.8166
     13 O5'         3.0213    0.5153   -2.8245 O.3       1 ATP        -0.5510
     14 C5'         2.2816   -0.2918   -1.9206 C.3       1 ATP         0.2099
     15 C4'         2.7248    0.0226   -0.4980 C.3       1 ATP         0.0598
     16 O4'         2.4697    1.4219   -0.2462 O.3       1 ATP        -0.3455
     17 C3'         1.9404   -0.7419    0.5596 C.3       1 ATP         0.0742
     18 O3'         2.7418   -0.8086    1.7389 O.3       1 ATP        -0.6025
     19 C2'         0.7477    0.1630    0.7858 C.3       1 ATP         0.1145
     20 O2'         0.1373   -0.0577    2.0407 O.3       1 ATP        -0.5835
     21 C1'         1.3733    1.5427    0.6747 C.3       1 ATP         0.3776
     22 N9          0.4520    2.5240    0.1767 N.pl3     1 ATP        -0.4429
     23 C8         -0.2004    2.4829   -0.9804 C.ar      1 ATP         0.2964
     24 N7         -0.9830    3.5431   -1.1568 N.pl3     1 ATP        -0.4957
     25 C5         -0.8095    4.3012   -0.0331 C.ar      1 ATP        -0.1346
     26 C6         -1.4065    5.5904    0.3585 C.ar      1 ATP         0.7213
     27 N6         -2.2501    6.2030   -0.4084 N.2       1 ATP        -0.8215
     28 N1         -0.9585    6.0272    1.5994 N.pl3     1 ATP        -0.8455
     29 C2         -0.0508    5.3009    2.3532 C.ar      1 ATP         0.6477
     30 N3          0.4890    4.1592    2.0257 N.2       1 ATP        -0.5707
     31 C4          0.0637    3.7006    0.7995 C.ar      1 ATP         0.2637
     32 HOG3        0.9464   -0.4071   -8.8933 H         1 ATP         0.4378
     33 H5'1        1.2163   -0.0770   -2.0471 H         1 ATP         0.0340
     34 H5'2        2.4655   -1.3443   -2.1563 H         1 ATP         0.0340
     35 H4'         3.8044   -0.1397   -0.4040 H         1 ATP         0.0910
     36 H3'         1.6764   -1.7639    0.2728 H         1 ATP         0.0656
     37 HO3'        2.2232   -1.2979    2.3953 H         1 ATP         0.4386
     38 H2'        -0.0011    0.0027    0.0003 H         1 ATP         0.0788
     39 HO2'       -0.1563   -0.9855    2.0596 H         1 ATP         0.4363
     40 H1'         1.7826    1.9024    1.6451 H         1 ATP         0.1225
     41 H8         -0.1116    1.6863   -1.6984 H         1 ATP         0.3824
     42 HN62       -2.5420    7.0730    0.0447 H         1 ATP         0.4018
     43 H2          0.1969    5.7893    3.3086 H         1 ATP         0.0652
     44 H44        -1.3097    6.9080    1.9642 H         1 ATP         0.4503
     45 H45        -1.5735    3.7351   -1.9538 H         1 ATP         0.5209
@<TRIPOS>BOND
     1    1    2 2
     2    1    3 1
     3    1    4 1
     4    1    8 1
     5    4   32 1
     6    5    6 2
     7    5    7 1
     8    5    8 1
     9    5   12 1
    10    9   10 2
    11    9   11 1
    12    9   12 1
    13    9   13 1
    14   13   14 1
    15   14   15 1
    16   14   33 1
    17   14   34 1
    18   15   16 1
    19   15   17 1
    20   15   35 1
    21   16   21 1
    22   17   18 1
    23   17   19 1
    24   17   36 1
    25   18   37 1
    26   19   20 1
    27   19   21 1
    28   19   38 1
    29   20   39 1
    30   21   22 1
    31   21   40 1
    32   22   23 ar
    33   22   31 ar
    34   23   24 ar
    35   23   41 1
    36   24   25 ar
    37   24   45 1
    38   25   26 ar
    39   25   31 ar
    40   26   27 2
    41   26   28 ar
    42   27   42 1
    43   28   29 ar
    44   28   44 1
    45   29   30 ar
    46   29   43 1
    47   30   31 ar
@<TRIPOS>SUBSTRUCTURE
     1 ATP         1 GROUP 0 A     ****
@<TRIPOS>MOLECULE
[[[3,4-dihydroxy-5-(6-imino-7,8-dihydro-1~{H}-purin-8-ylium-9-yl)tetrahydrofuran-2-yl]methoxy-oxido-phosphoryl]oxy-oxido-phosphoryl] hydrogen phosphate
   45    47     1     0     0
SMALL
USER_CHARGES

@<TRIPOS>ATOM
      1 PG          7.0617   -1.2402   -7.1290 P.3       1 ATP         1.5631
      2 O1G         7.5749    0.1157   -7.5598 O.co2     1 ATP        -0.8806
      3 O2G         6.4402   -2.1897   -8.1289 O.co2     1 ATP        -0.8806
      4 O3G         8.2613   -2.0240   -6.3462 O.3       1 ATP        -0.8165
      5 PB          5.3149   -2.1652   -4.9298 P.3       1 ATP         1.6877
      6 O1B         4.3325   -2.9502   -5.7702 O.co2     1 ATP        -0.8727
      7 O2B         6.3770   -2.8630   -4.1098 O.co2     1 ATP        -0.8727
      8 O3B         6.0350   -1.0458   -5.8753 O.3       1 ATP        -0.8330
      9 PA          3.3343   -0.0514   -4.3264 P.3       1 ATP         1.6036
     10 O1A         2.1154   -0.7746   -4.8569 O.co2     1 ATP        -0.9062
     11 O2A         3.9835    1.0584   -5.1242 O.co2     1 ATP        -0.9062
     12 O3A         4.4804   -1.1555   -3.9558 O.3       1 ATP        -0.8166
     13 O5'         3.0213    0.5153   -2.8245 O.3       1 ATP        -0.5510
     14 C5'         2.2816   -0.2918   -1.9206 C.3       1 ATP         0.2099
     15 C4'         2.7248    0.0226   -0.4980 C.3       1 ATP         0.0598
     16 O4'         2.4697    1.4219   -0.2462 O.3       1 ATP        -0.3455
     17 C3'         1.9404   -0.7419    0.5596 C.3       1 ATP         0.0742
     18 O3'         2.7418   -0.8086    1.7389 O.3       1 ATP        -0.6025
     19 C2'         0.7477    0.1630    0.7858 C.3       1 ATP         0.1145
     20 O2'         0.1373   -0.0577    2.0407 O.3       1 ATP        -0.5835
     21 C1'         1.3733    1.5427    0.6747 C.3       1 ATP         0.3776
     22 N9          0.4520    2.5240    0.1767 N.pl3     1 ATP        -0.4429
     23 C8          0.2216    2.8192   -1.0985 C.ar      1 ATP         0.2964
     24 N7         -0.6906    3.7763   -1.2384 N.pl3     1 ATP        -0.4957
     25 C5         -1.0575    4.1037    0.0366 C.ar      1 ATP        -0.1346
     26 C6         -2.0291    5.0943    0.5330 C.ar      1 ATP         0.7213
     27 N6         -2.7093    5.8371   -0.2800 N.2       1 ATP        -0.8215
     28 N1         -2.1051    5.1136    1.9204 N.pl3     1 ATP        -0.8455
     29 C2         -1.3354    4.2774    2.7129 C.ar      1 ATP         0.6477
     30 N3         -0.4707    3.3945    2.2944 N.2       1 ATP        -0.5707
     31 C4         -0.3734    3.3525    0.9220 C.ar      1 ATP         0.2637
     32 HOG3        8.0833   -2.9251   -6.0018 H         1 ATP         0.4378
     33 H5'1        1.2163   -0.0770   -2.0471 H         1 ATP         0.0340
     34 H5'2        2.4655   -1.3443   -2.1563 H         1 ATP         0.0340
     35 H4'         3.8044   -0.1397   -0.4040 H         1 ATP         0.0910
     36 H3'         1.6764   -1.7639    0.2728 H         1 ATP         0.0656
     37 HO3'        2.2232   -1.2979    2.3953 H         1 ATP         0.4386
     38 H2'        -0.0011    0.0027    0.0003 H         1 ATP         0.0788
     39 HO2'       -0.6141    0.5574    2.1082 H         1 ATP         0.4363
     40 H1'         1.7826    1.9024    1.6451 H         1 ATP         0.1225
     41 H8          0.7125    2.3429   -1.9292 H         1 ATP         0.3824
     42 HN62       -3.3217    6.4517    0.2629 H         1 ATP         0.4018
     43 H2         -1.5188    4.4223    3.7890 H         1 ATP         0.0652
     44 H44        -2.7470    5.7626    2.3665 H         1 ATP         0.4503
     45 H45        -1.0305    4.1680   -2.1054 H         1 ATP         0.5209
@<TRIPOS>BOND
     1    1    2 2
     2    1    3 1
     3    1    4 1
     4    1    8 1
     5    4   32 1
     6    5    6 2
     7    5    7 1
     8    5    8 1
     9    5   12 1
    10    9   10 2
    11    9   11 1
    12    9   12 1
    13    9   13 1
    14   13   14 1
    15   14   15 1
    16   14   33 1
    17   14   34 1
    18   15   16 1
    19   15   17 1
    20   15   35 1
    21   16   21 1
    22   17   18 1
    23   17   19 1
    24   17   36 1
    25   18   37 1
    26   19   20 1
    27   19   21 1
    28   19   38 1
    29   20   39 1
    30   21   22 1
    31   21   40 1
    32   22   23 ar
    33   22   31 ar
    34   23   24 ar
    35   23   41 1
    36   24   25 ar
    37   24   45 1
    38   25   26 ar
    39   25   31 ar
    40   26   27 2
    41   26   28 ar
    42   27   42 1
    43   28   29 ar
    44   28   44 1
    45   29   30 ar
    46   29   43 1
    47   30   31 ar
@<TRIPOS>SUBSTRUCTURE
     1 ATP         1 GROUP 0 A     ****
@<TRIPOS>MOLECULE
[[[3,4-dihydroxy-5-(6-imino-7,8-dihydro-1~{H}-purin-8-ylium-9-yl)tetrahydrofuran-2-yl]methoxy-oxido-phosphoryl]oxy-oxido-phosphoryl] hydrogen phosphate
   45    47     1     0     0
SMALL
USER_CHARGES

@<TRIPOS>ATOM
      1 PG         -0.8927    3.5206   -5.8196 P.3       1 ATP         1.5631
      2 O1G        -2.2689    2.9060   -5.9452 O.co2     1 ATP        -0.8806
      3 O2G        -0.2343    4.2003   -6.9996 O.co2     1 ATP        -0.8806
      4 O3G        -0.9022    4.5610   -4.5612 O.3       1 ATP        -0.8165
      5 PB          0.6774    1.0155   -5.8696 P.3       1 ATP         1.6877
      6 O1B        -0.4827    0.0539   -5.9990 O.co2     1 ATP        -0.8727
      7 O2B         1.5529    1.3510   -7.0564 O.co2     1 ATP        -0.8727
      8 O3B         0.1331    2.4067   -5.2108 O.3       1 ATP        -0.8330
      9 PA          2.9232    1.2546   -3.9579 P.3       1 ATP         1.6036
     10 O1A         2.4622    2.5266   -3.2798 O.co2     1 ATP        -0.9062
     11 O2A         4.0435    1.2824   -4.9747 O.co2     1 ATP        -0.9062
     12 O3A         1.6300    0.5237   -4.6385 O.3       1 ATP        -0.8166
     13 O5'         3.2903    0.1346   -2.8241 O.3       1 ATP        -0.5510
     14 C5'         2.2816   -0.2918   -1.9206 C.3       1 ATP         0.2099
     15 C4'         2.7248    0.0226   -0.4980 C.3       1 ATP         0.0598
     16 O4'         2.4697    1.4219   -0.2462 O.3       1 ATP        -0.3455
     17 C3'         1.9404   -0.7419    0.5596 C.3       1 ATP         0.0742
     18 O3'         2.7418   -0.8086    1.7389 O.3       1 ATP        -0.6025
     19 C2'         0.7477    0.1630    0.7858 C.3       1 ATP         0.1145
     20 O2'         0.1373   -0.0577    2.0407 O.3       1 ATP        -0.5835
     21 C1'         1.3733    1.5427    0.6747 C.3       1 ATP         0.3776
     22 N9          0.4520    2.5240    0.1767 N.pl3     1 ATP        -0.4429
     23 C8         -0.2004    2.4829   -0.9804 C.ar      1 ATP         0.2964
     24 N7         -0.9830    3.5431   -1.1568 N.pl3     1 ATP        -0.4957
     25 C5         -0.8095    4.3012   -0.0331 C.ar      1 ATP        -0.1346
     26 C6         -1.4065    5.5904    0.3585 C.ar      1 ATP         0.7213
     27 N6         -2.2501    6.2030   -0.4084 N.2       1 ATP        -0.8215
     28 N1         -0.9585    6.0272    1.5994 N.pl3     1 ATP        -0.8455
     29 C2         -0.0508    5.3009    2.3532 C.ar      1 ATP         0.6477
     30 N3          0.4890    4.1592    2.0257 N.2       1 ATP        -0.5707
     31 C4          0.0637    3.7006    0.7995 C.ar      1 ATP         0.2637
     32 HOG3       -0.0754    5.0441   -4.3485 H         1 ATP         0.4378
     33 H5'1        1.3514    0.2330   -2.1577 H         1 ATP         0.0340
     34 H5'2        2.1280   -1.3678   -2.0460 H         1 ATP         0.0340
     35 H4'         3.8044   -0.1397   -0.4040 H         1 ATP         0.0910
     36 H3'         1.6764   -1.7639    0.2728 H         1 ATP         0.0656
     37 HO3'        2.2232   -1.2979    2.3953 H         1 ATP         0.4386
     38 H2'        -0.0011    0.0027    0.0003 H         1 ATP         0.0788
     39 HO2'       -0.6141    0.5574    2.1082 H         1 ATP         0.4363
     40 H1'         1.7826    1.9024    1.6451 H         1 ATP         0.1225
     41 H8         -0.1116    1.6863   -1.6984 H         1 ATP         0.3824
     42 HN62       -2.5420    7.0730    0.0447 H         1 ATP         0.4018
     43 H2          0.1969    5.7893    3.3086 H         1 ATP         0.0652
     44 H44        -1.3097    6.9080    1.9642 H         1 ATP         0.4503
     45 H45        -1.5735    3.7351   -1.9538 H         1 ATP         0.5209
@<TRIPOS>BOND
     1    1    2 2
     2    1    3 1
     3    1    4 1
     4    1    8 1
     5    4   32 1
     6    5    6 2
     7    5    7 1
     8    5    8 1
     9    5   12 1
    10    9   10 2
    11    9   11 1
    12    9   12 1
    13    9   13 1
    14   13   14 1
    15   14   15 1
    16   14   33 1
    17   14   34 1
    18   15   16 1
    19   15   17 1
    20   15   35 1
    21   16   21 1
    22   17   18 1
    23   17   19 1
    24   17   36 1
    25   18   37 1
    26   19   20 1
    27   19   21 1
    28   19   38 1
    29   20   39 1
    30   21   22 1
    31   21   40 1
    32   22   23 ar
    33   22   31 ar
    34   23   24 ar
    35   23   41 1
    36   24   25 ar
    37   24   45 1
    38   25   26 ar
    39   25   31 ar
    40   26   27 2
    41   26   28 ar
    42   27   42 1
    43   28   29 ar
    44   28   44 1
    45   29   30 ar
    46   29   43 1
    47   30   31 ar
@<TRIPOS>SUBSTRUCTURE
     1 ATP         1 GROUP 0 A     ****
@<TRIPOS>MOLECULE
[[[3,4-dihydroxy-5-(6-imino-7,8-dihydro-1~{H}-purin-8-ylium-9-yl)tetrahydrofuran-2-yl]methoxy-oxido-phosphoryl]oxy-oxido-phosphoryl] hydrogen phosphate
   45    47     1     0     0
SMALL
USER_CHARGES

@<TRIPOS>ATOM
      1 PG          0.2763   -2.9038   -5.4890 P.3       1 ATP         1.5631
      2 O1G        -0.9689   -2.4973   -4.7329 O.co2     1 ATP        -0.8806
      3 O2G         1.4096   -3.6224   -4.7912 O.co2     1 ATP        -0.8806
      4 O3G        -0.1709   -3.7820   -6.7908 O.3       1 ATP        -0.8165
      5 PB          1.5368   -0.2345   -5.6609 P.3       1 ATP         1.6877
      6 O1B         2.0883    0.5855   -6.8058 O.co2     1 ATP        -0.8727
      7 O2B         0.5770    0.3662   -4.6582 O.co2     1 ATP        -0.8727
      8 O3B         0.8757   -1.5994   -6.2656 O.3       1 ATP        -0.8330
      9 PA          3.9554   -0.2064   -3.9565 P.3       1 ATP         1.6036
     10 O1A         4.6400    0.8514   -4.7948 O.co2     1 ATP        -0.9062
     11 O2A         4.7576   -1.2975   -3.2816 O.co2     1 ATP        -0.9062
     12 O3A         2.7840   -0.9098   -4.8526 O.3       1 ATP        -0.8166
     13 O5'         3.0213    0.5153   -2.8245 O.3       1 ATP        -0.5510
     14 C5'         2.2816   -0.2918   -1.9206 C.3       1 ATP         0.2099
     15 C4'         2.7248    0.0226   -0.4980 C.3       1 ATP         0.0598
     16 O4'         2.4697    1.4219   -0.2462 O.3       1 ATP        -0.3455
     17 C3'         1.9404   -0.7419    0.5596 C.3       1 ATP         0.0742
     18 O3'         2.7418   -0.8086    1.7389 O.3       1 ATP        -0.6025
     19 C2'         0.7477    0.1630    0.7858 C.3       1 ATP         0.1145
     20 O2'         0.1373   -0.0577    2.0407 O.3       1 ATP        -0.5835
     21 C1'         1.3733    1.5427    0.6747 C.3       1 ATP         0.3776
     22 N9          0.4520    2.5240    0.1767 N.pl3     1 ATP        -0.4429
     23 C8          0.2216    2.8192   -1.0985 C.ar      1 ATP         0.2964
     24 N7         -0.6906    3.7763   -1.2384 N.pl3     1 ATP        -0.4957
     25 C5         -1.0575    4.1037    0.0366 C.ar      1 ATP        -0.1346
     26 C6         -2.0291    5.0943    0.5330 C.ar      1 ATP         0.7213
     27 N6         -2.7093    5.8371   -0.2800 N.2       1 ATP        -0.8215
     28 N1         -2.1051    5.1136    1.9204 N.pl3     1 ATP        -0.8455
     29 C2         -1.3354    4.2774    2.7129 C.ar      1 ATP         0.6477
     30 N3         -0.4707    3.3945    2.2944 N.2       1 ATP        -0.5707
     31 C4         -0.3734    3.3525    0.9220 C.ar      1 ATP         0.2637
     32 HOG3        0.5295   -4.1222   -7.3875 H         1 ATP         0.4378
     33 H5'1        1.2163   -0.0770   -2.0471 H         1 ATP         0.0340
     34 H5'2        2.4655   -1.3443   -2.1563 H         1 ATP         0.0340
     35 H4'         3.8044   -0.1397   -0.4040 H         1 ATP         0.0910
     36 H3'         1.6764   -1.7639    0.2728 H         1 ATP         0.0656
     37 HO3'        2.2232   -1.2979    2.3953 H         1 ATP         0.4386
     38 H2'        -0.0011    0.0027    0.0003 H         1 ATP         0.0788
     39 HO2'       -0.6141    0.5574    2.1082 H         1 ATP         0.4363
     40 H1'         1.7826    1.9024    1.6451 H         1 ATP         0.1225
     41 H8          0.7125    2.3429   -1.9292 H         1 ATP         0.3824
     42 HN62       -3.3217    6.4517    0.2629 H         1 ATP         0.4018
     43 H2         -1.5188    4.4223    3.7890 H         1 ATP         0.0652
     44 H44        -2.7470    5.7626    2.3665 H         1 ATP         0.4503
     45 H45        -1.0305    4.1680   -2.1054 H         1 ATP         0.5209
@<TRIPOS>BOND
     1    1    2 2
     2    1    3 1
     3    1    4 1
     4    1    8 1
     5    4   32 1
     6    5    6 2
     7    5    7 1
     8    5    8 1
     9    5   12 1
    10    9   10 2
    11    9   11 1
    12    9   12 1
    13    9   13 1
    14   13   14 1
    15   14   15 1
    16   14   33 1
    17   14   34 1
    18   15   16 1
    19   15   17 1
    20   15   35 1
    21   16   21 1
    22   17   18 1
    23   17   19 1
    24   17   36 1
    25   18   37 1
    26   19   20 1
    27   19   21 1
    28   19   38 1
    29   20   39 1
    30   21   22 1
    31   21   40 1
    32   22   23 ar
    33   22   31 ar
    34   23   24 ar
    35   23   41 1
    36   24   25 ar
    37   24   45 1
    38   25   26 ar
    39   25   31 ar
    40   26   27 2
    41   26   28 ar
    42   27   42 1
    43   28   29 ar
    44   28   44 1
    45   29   30 ar
    46   29   43 1
    47   30   31 ar
@<TRIPOS>SUBSTRUCTURE
     1 ATP         1 GROUP 0 A     ****
@<TRIPOS>MOLECULE
[[[3,4-dihydroxy-5-(6-imino-7,8-dihydro-1~{H}-purin-8-ylium-9-yl)tetrahydrofuran-2-yl]methoxy-oxido-phosphoryl]oxy-oxido-phosphoryl] hydrogen phosphate
   45    47     1     0     0
SMALL
USER_CHARGES

@<TRIPOS>ATOM
      1 PG          0.8149    2.8586   -8.0758 P.3       1 ATP         1.5631
      2 O1G        -0.3417    3.8223   -7.9313 O.co2     1 ATP        -0.8806
      3 O2G         0.8013    1.7815   -9.1376 O.co2     1 ATP        -0.8806
      4 O3G         2.1926    3.7213   -8.2302 O.3       1 ATP        -0.8165
      5 PB          0.2043    1.1390   -5.7491 P.3       1 ATP         1.6877
      6 O1B        -1.0358    1.8673   -5.2810 O.co2     1 ATP        -0.8727
      7 O2B         0.1076   -0.1755   -6.4910 O.co2     1 ATP        -0.8727
      8 O3B         1.1165    2.1697   -6.6273 O.3       1 ATP        -0.8330
      9 PA          2.7407    0.3769   -4.4297 P.3       1 ATP         1.6036
     10 O1A         3.6422    1.3305   -5.1835 O.co2     1 ATP        -0.9062
     11 O2A         2.7080   -1.0952   -4.7784 O.co2     1 ATP        -0.9062
     12 O3A         1.2115    0.9503   -4.4784 O.3       1 ATP        -0.8166
     13 O5'         3.0213    0.5153   -2.8245 O.3       1 ATP        -0.5510
     14 C5'         2.2816   -0.2918   -1.9206 C.3       1 ATP         0.2099
     15 C4'         2.7248    0.0226   -0.4980 C.3       1 ATP         0.0598
     16 O4'         2.4697    1.4219   -0.2462 O.3       1 ATP        -0.3455
     17 C3'         1.9404   -0.7419    0.5596 C.3       1 ATP         0.0742
     18 O3'         2.7418   -0.8086    1.7389 O.3       1 ATP        -0.6025
     19 C2'         0.7477    0.1630    0.7858 C.3       1 ATP         0.1145
     20 O2'         0.1373   -0.0577    2.0407 O.3       1 ATP        -0.5835
     21 C1'         1.3733    1.5427    0.6747 C.3       1 ATP         0.3776
     22 N9          0.4520    2.5240    0.1767 N.pl3     1 ATP        -0.4429
     23 C8         -0.6821    2.9098    0.7521 C.ar      1 ATP         0.2964
     24 N7         -1.3175    3.8384    0.0437 N.pl3     1 ATP        -0.4957
     25 C5         -0.5274    4.0494   -1.0512 C.ar      1 ATP        -0.1346
     26 C6         -0.6966    4.9597   -2.1977 C.ar      1 ATP         0.7213
     27 N6         -1.7259    5.7385   -2.2937 N.2       1 ATP        -0.8215
     28 N1          0.3493    4.8663   -3.1079 N.pl3     1 ATP        -0.8455
     29 C2          1.4148    4.0005   -2.9208 C.ar      1 ATP         0.6477
     30 N3          1.5838    3.1876   -1.9144 N.2       1 ATP        -0.5707
     31 C4          0.5619    3.2578   -0.9949 C.ar      1 ATP         0.2637
     32 HOG3        3.0385    3.2356   -8.3340 H         1 ATP         0.4378
     33 H5'1        1.2163   -0.0770   -2.0471 H         1 ATP         0.0340
     34 H5'2        2.4655   -1.3443   -2.1563 H         1 ATP         0.0340
     35 H4'         3.8044   -0.1397   -0.4040 H         1 ATP         0.0910
     36 H3'         1.6764   -1.7639    0.2728 H         1 ATP         0.0656
     37 HO3'        2.2232   -1.2979    2.3953 H         1 ATP         0.4386
     38 H2'        -0.0011    0.0027    0.0003 H         1 ATP         0.0788
     39 HO2'       -0.1563   -0.9855    2.0596 H         1 ATP         0.4363
     40 H1'         1.7826    1.9024    1.6451 H         1 ATP         0.1225
     41 H8         -1.0516    2.5207    1.6849 H         1 ATP         0.3824
     42 HN62       -1.6520    6.2842   -3.1564 H         1 ATP         0.4018
     43 H2          2.1542    4.0525   -3.7351 H         1 ATP         0.0652
     44 H44         0.3306    5.4533   -3.9370 H         1 ATP         0.4503
     45 H45        -2.1941    4.2838    0.2756 H         1 ATP         0.5209
@<TRIPOS>BOND
     1    1    2 2
     2    1    3 1
     3    1    4 1
     4    1    8 1
     5    4   32 1
     6    5    6 2
     7    5    7 1
     8    5    8 1
     9    5   12 1
    10    9   10 2
    11    9   11 1
    12    9   12 1
    13    9   13 1
    14   13   14 1
    15   14   15 1
    16   14   33 1
    17   14   34 1
    18   15   16 1
    19   15   17 1
    20   15   35 1
    21   16   21 1
    22   17   18 1
    23   17   19 1
    24   17   36 1
    25   18   37 1
    26   19   20 1
    27   19   21 1
    28   19   38 1
    29   20   39 1
    30   21   22 1
    31   21   40 1
    32   22   23 ar
    33   22   31 ar
    34   23   24 ar
    35   23   41 1
    36   24   25 ar
    37   24   45 1
    38   25   26 ar
    39   25   31 ar
    40   26   27 2
    41   26   28 ar
    42   27   42 1
    43   28   29 ar
    44   28   44 1
    45   29   30 ar
    46   29   43 1
    47   30   31 ar
@<TRIPOS>SUBSTRUCTURE
     1 ATP         1 GROUP 0 A     ****
@<TRIPOS>MOLECULE
[[[3,4-dihydroxy-5-(6-imino-7,8-dihydro-1~{H}-purin-8-ylium-9-yl)tetrahydrofuran-2-yl]methoxy-oxido-phosphoryl]oxy-oxido-phosphoryl] hydrogen phosphate
   45    47     1     0     0
SMALL
USER_CHARGES

@<TRIPOS>ATOM
      1 PG         -1.3359   -0.8400   -4.7531 P.3       1 ATP         1.5631
      2 O1G        -2.4288    0.1721   -4.4911 O.co2     1 ATP        -0.8806
      3 O2G        -0.5007   -1.3930   -3.6198 O.co2     1 ATP        -0.8806
      4 O3G        -1.9763   -2.0915   -5.5836 O.3       1 ATP        -0.8165
      5 PB          0.6774    1.0155   -5.8696 P.3       1 ATP         1.6877
      6 O1B         1.4950    1.0231   -7.1420 O.co2     1 ATP        -0.8727
      7 O2B        -0.0945    2.2386   -5.4272 O.co2     1 ATP        -0.8727
      8 O3B        -0.3408   -0.2601   -5.9094 O.3       1 ATP        -0.8330
      9 PA          2.9232    1.2546   -3.9579 P.3       1 ATP         1.6036
     10 O1A         2.4622    2.5266   -3.2798 O.co2     1 ATP        -0.9062
     11 O2A         4.0435    1.2824   -4.9747 O.co2     1 ATP        -0.9062
     12 O3A         1.6300    0.5237   -4.6385 O.3       1 ATP        -0.8166
     13 O5'         3.2903    0.1346   -2.8241 O.3       1 ATP        -0.5510
     14 C5'         2.2816   -0.2918   -1.9206 C.3       1 ATP         0.2099
     15 C4'         2.7248    0.0226   -0.4980 C.3       1 ATP         0.0598
     16 O4'         2.4697    1.4219   -0.2462 O.3       1 ATP        -0.3455
     17 C3'         1.9404   -0.7419    0.5596 C.3       1 ATP         0.0742
     18 O3'         2.7418   -0.8086    1.7389 O.3       1 ATP        -0.6025
     19 C2'         0.7477    0.1630    0.7858 C.3       1 ATP         0.1145
     20 O2'         0.1373   -0.0577    2.0407 O.3       1 ATP        -0.5835
     21 C1'         1.3733    1.5427    0.6747 C.3       1 ATP         0.3776
     22 N9          0.4520    2.5240    0.1767 N.pl3     1 ATP        -0.4429
     23 C8         -0.2004    2.4829   -0.9804 C.ar      1 ATP         0.2964
     24 N7         -0.9830    3.5431   -1.1568 N.pl3     1 ATP        -0.4957
     25 C5         -0.8095    4.3012   -0.0331 C.ar      1 ATP        -0.1346
     26 C6         -1.4065    5.5904    0.3585 C.ar      1 ATP         0.7213
     27 N6         -2.2501    6.2030   -0.4084 N.2       1 ATP        -0.8215
     28 N1         -0.9585    6.0272    1.5994 N.pl3     1 ATP        -0.8455
     29 C2         -0.0508    5.3009    2.3532 C.ar      1 ATP         0.6477
     30 N3          0.4890    4.1592    2.0257 N.2       1 ATP        -0.5707
     31 C4          0.0637    3.7006    0.7995 C.ar      1 ATP         0.2637
     32 HOG3       -1.3887   -2.8367   -5.8317 H         1 ATP         0.4378
     33 H5'1        1.3514    0.2330   -2.1577 H         1 ATP         0.0340
     34 H5'2        2.1280   -1.3678   -2.0460 H         1 ATP         0.0340
     35 H4'         3.8044   -0.1397   -0.4040 H         1 ATP         0.0910
     36 H3'         1.6764   -1.7639    0.2728 H         1 ATP         0.0656
     37 HO3'        2.2232   -1.2979    2.3953 H         1 ATP         0.4386
     38 H2'        -0.0011    0.0027    0.0003 H         1 ATP         0.0788
     39 HO2'       -0.6141    0.5574    2.1082 H         1 ATP         0.4363
     40 H1'         1.7826    1.9024    1.6451 H         1 ATP         0.1225
     41 H8         -0.1116    1.6863   -1.6984 H         1 ATP         0.3824
     42 HN62       -2.5420    7.0730    0.0447 H         1 ATP         0.4018
     43 H2          0.1969    5.7893    3.3086 H         1 ATP         0.0652
     44 H44        -1.3097    6.9080    1.9642 H         1 ATP         0.4503
     45 H45        -1.5735    3.7351   -1.9538 H         1 ATP         0.5209
@<TRIPOS>BOND
     1    1    2 2
     2    1    3 1
     3    1    4 1
     4    1    8 1
     5    4   32 1
     6    5    6 2
     7    5    7 1
     8    5    8 1
     9    5   12 1
    10    9   10 2
    11    9   11 1
    12    9   12 1
    13    9   13 1
    14   13   14 1
    15   14   15 1
    16   14   33 1
    17   14   34 1
    18   15   16 1
    19   15   17 1
    20   15   35 1
    21   16   21 1
    22   17   18 1
    23   17   19 1
    24   17   36 1
    25   18   37 1
    26   19   20 1
    27   19   21 1
    28   19   38 1
    29   20   39 1
    30   21   22 1
    31   21   40 1
    32   22   23 ar
    33   22   31 ar
    34   23   24 ar
    35   23   41 1
    36   24   25 ar
    37   24   45 1
    38   25   26 ar
    39   25   31 ar
    40   26   27 2
    41   26   28 ar
    42   27   42 1
    43   28   29 ar
    44   28   44 1
    45   29   30 ar
    46   29   43 1
    47   30   31 ar
@<TRIPOS>SUBSTRUCTURE
     1 ATP         1 GROUP 0 A     ****
@<TRIPOS>MOLECULE
[[[3,4-dihydroxy-5-(6-imino-7,8-dihydro-1~{H}-purin-8-ylium-9-yl)tetrahydrofuran-2-yl]methoxy-oxido-phosphoryl]oxy-oxido-phosphoryl] hydrogen phosphate
   45    47     1     0     0
SMALL
USER_CHARGES

@<TRIPOS>ATOM
      1 PG         -0.4799   -0.7262   -7.6179 P.3       1 ATP         1.5631
      2 O1G        -0.8457   -2.1763   -7.3927 O.co2     1 ATP        -0.8806
      3 O2G         0.1513   -0.2765   -8.9168 O.co2     1 ATP        -0.8806
      4 O3G        -1.8012    0.1914   -7.3387 O.3       1 ATP        -0.8165
      5 PB          0.9889    1.2869   -6.0263 P.3       1 ATP         1.6877
      6 O1B         1.9772    1.7040   -7.0925 O.co2     1 ATP        -0.8727
      7 O2B        -0.1925    2.1608   -5.6684 O.co2     1 ATP        -0.8727
      8 O3B         0.4445   -0.2123   -6.3749 O.3       1 ATP        -0.8330
      9 PA          3.0675   -0.0857   -4.4293 P.3       1 ATP         1.6036
     10 O1A         4.2683    0.4444   -5.1827 O.co2     1 ATP        -0.9062
     11 O2A         2.5798   -1.5012   -4.6487 O.co2     1 ATP        -0.9062
     12 O3A         1.8107    0.9323   -4.6611 O.3       1 ATP        -0.8166
     13 O5'         3.2903    0.1346   -2.8241 O.3       1 ATP        -0.5510
     14 C5'         2.2816   -0.2918   -1.9206 C.3       1 ATP         0.2099
     15 C4'         2.7248    0.0226   -0.4980 C.3       1 ATP         0.0598
     16 O4'         2.4697    1.4219   -0.2462 O.3       1 ATP        -0.3455
     17 C3'         1.9404   -0.7419    0.5596 C.3       1 ATP         0.0742
     18 O3'         2.7418   -0.8086    1.7389 O.3       1 ATP        -0.6025
     19 C2'         0.7477    0.1630    0.7858 C.3       1 ATP         0.1145
     20 O2'         0.1373   -0.0577    2.0407 O.3       1 ATP        -0.5835
     21 C1'         1.3733    1.5427    0.6747 C.3       1 ATP         0.3776
     22 N9          0.4520    2.5240    0.1767 N.pl3     1 ATP        -0.4429
     23 C8          0.2216    2.8192   -1.0985 C.ar      1 ATP         0.2964
     24 N7         -0.6906    3.7763   -1.2384 N.pl3     1 ATP        -0.4957
     25 C5         -1.0575    4.1037    0.0366 C.ar      1 ATP        -0.1346
     26 C6         -2.0291    5.0943    0.5330 C.ar      1 ATP         0.7213
     27 N6         -2.7093    5.8371   -0.2800 N.2       1 ATP        -0.8215
     28 N1         -2.1051    5.1136    1.9204 N.pl3     1 ATP        -0.8455
     29 C2         -1.3354    4.2774    2.7129 C.ar      1 ATP         0.6477
     30 N3         -0.4707    3.3945    2.2944 N.2       1 ATP        -0.5707
     31 C4         -0.3734    3.3525    0.9220 C.ar      1 ATP         0.2637
     32 HOG3       -1.7251    1.1638   -7.4437 H         1 ATP         0.4378
     33 H5'1        1.3514    0.2330   -2.1577 H         1 ATP         0.0340
     34 H5'2        2.1280   -1.3678   -2.0460 H         1 ATP         0.0340
     35 H4'         3.8044   -0.1397   -0.4040 H         1 ATP         0.0910
     36 H3'         1.6764   -1.7639    0.2728 H         1 ATP         0.0656
     37 HO3'        3.5554   -1.2733    1.4914 H         1 ATP         0.4386
     38 H2'        -0.0011    0.0027    0.0003 H         1 ATP         0.0788
     39 HO2'       -0.1563   -0.9855    2.0596 H         1 ATP         0.4363
     40 H1'         1.7826    1.9024    1.6451 H         1 ATP         0.1225
     41 H8          0.7125    2.3429   -1.9292 H         1 ATP         0.3824
     42 HN62       -3.3217    6.4517    0.2629 H         1 ATP         0.4018
     43 H2         -1.5188    4.4223    3.7890 H         1 ATP         0.0652
     44 H44        -2.7470    5.7626    2.3665 H         1 ATP         0.4503
     45 H45        -1.0305    4.1680   -2.1054 H         1 ATP         0.5209
@<TRIPOS>BOND
     1    1    2 2
     2    1    3 1
     3    1    4 1
     4    1    8 1
     5    4   32 1
     6    5    6 2
     7    5    7 1
     8    5    8 1
     9    5   12 1
    10    9   10 2
    11    9   11 1
    12    9   12 1
    13    9   13 1
    14   13   14 1
    15   14   15 1
    16   14   33 1
    17   14   34 1
    18   15   16 1
    19   15   17 1
    20   15   35 1
    21   16   21 1
    22   17   18 1
    23   17   19 1
    24   17   36 1
    25   18   37 1
    26   19   20 1
    27   19   21 1
    28   19   38 1
    29   20   39 1
    30   21   22 1
    31   21   40 1
    32   22   23 ar
    33   22   31 ar
    34   23   24 ar
    35   23   41 1
    36   24   25 ar
    37   24   45 1
    38   25   26 ar
    39   25   31 ar
    40   26   27 2
    41   26   28 ar
    42   27   42 1
    43   28   29 ar
    44   28   44 1
    45   29   30 ar
    46   29   43 1
    47   30   31 ar
@<TRIPOS>SUBSTRUCTURE
     1 ATP         1 GROUP 0 A     ****
@<TRIPOS>MOLECULE
[[[3,4-dihydroxy-5-(6-imino-7,8-dihydro-1~{H}-purin-8-ylium-9-yl)tetrahydrofuran-2-yl]methoxy-oxido-phosphoryl]oxy-oxido-phosphoryl] hydrogen phosphate
   45    47     1     0     0
SMALL
USER_CHARGES

@<TRIPOS>ATOM
      1 PG         -4.3056   -5.0226   -3.1456 P.3       1 ATP         1.5631
      2 O1G        -5.6818   -4.5057   -2.7903 O.co2     1 ATP        -0.8806
      3 O2G        -4.1364   -6.2670   -3.9886 O.co2     1 ATP        -0.8806
      4 O3G        -3.4582   -3.8096   -3.8359 O.3       1 ATP        -0.8165
      5 PB         -3.6307   -6.2158   -0.5256 P.3       1 ATP         1.6877
      6 O1B        -4.9133   -5.8608    0.1931 O.co2     1 ATP        -0.8727
      7 O2B        -3.3676   -7.6247   -1.0085 O.co2     1 ATP        -0.8727
      8 O3B        -3.4306   -5.1874   -1.7778 O.3       1 ATP        -0.8330
      9 PA         -1.8564   -6.2730    1.8416 P.3       1 ATP         1.6036
     10 O1A        -1.3787   -7.7008    1.6878 O.co2     1 ATP        -0.9062
     11 O2A        -2.8999   -5.9138    2.8769 O.co2     1 ATP        -0.9062
     12 O3A        -2.3676   -5.7306    0.3876 O.3       1 ATP        -0.8166
     13 O5'        -0.5687   -5.2869    2.0510 O.3       1 ATP        -0.5510
     14 C5'        -0.7840   -3.8935    2.2172 C.3       1 ATP         0.2099
     15 C4'        -0.0724   -3.1466    1.1027 C.3       1 ATP         0.0598
     16 O4'        -0.8674   -3.1929   -0.0945 O.3       1 ATP        -0.3455
     17 C3'         0.1338   -1.6715    1.4027 C.3       1 ATP         0.0742
     18 O3'         1.2893   -1.4445    2.1808 O.3       1 ATP        -0.6025
     19 C2'         0.2158   -1.0724    0.0128 C.3       1 ATP         0.1145
     20 O2'         1.5141   -1.2448   -0.5513 O.3       1 ATP        -0.5835
     21 C1'        -0.7897   -1.9176   -0.7583 C.3       1 ATP         0.3776
     22 N9         -2.1040   -1.3333   -0.7704 N.pl3     1 ATP        -0.4429
     23 C8         -3.0590   -1.5123    0.1363 C.ar      1 ATP         0.2964
     24 N7         -4.1655   -0.8354   -0.1554 N.pl3     1 ATP        -0.4957
     25 C5         -3.8852   -0.1874   -1.3253 C.ar      1 ATP        -0.1346
     26 C6         -4.7113    0.7160   -2.1458 C.ar      1 ATP         0.7213
     27 N6         -5.9213    1.0209   -1.8021 N.2       1 ATP        -0.8215
     28 N1         -4.0411    1.1673   -3.2764 N.pl3     1 ATP        -0.8455
     29 C2         -2.7403    0.7865   -3.5638 C.ar      1 ATP         0.6477
     30 N3         -1.9921   -0.0108   -2.8519 N.2       1 ATP        -0.5707
     31 C4         -2.6302   -0.4747   -1.7239 C.ar      1 ATP         0.2637
     32 HOG3       -2.5380   -3.9884   -4.1248 H         1 ATP         0.4378
     33 H5'1       -1.8598   -3.6968    2.1850 H         1 ATP         0.0340
     34 H5'2       -0.3933   -3.5903    3.1931 H         1 ATP         0.0340
     35 H4'         0.8874   -3.6466    0.8805 H         1 ATP         0.0910
     36 H3'        -0.7376   -1.2333    1.9867 H         1 ATP         0.0656
     37 HO3'        1.1626   -1.9325    3.0084 H         1 ATP         0.4386
     38 H2'        -0.0384   -0.0310    0.0096 H         1 ATP         0.0788
     39 HO2'        2.1463   -0.7958    0.0370 H         1 ATP         0.4363
     40 H1'        -0.4769   -2.1002   -1.8093 H         1 ATP         0.1225
     41 H8         -2.9569   -2.1323    1.0098 H         1 ATP         0.3824
     42 HN62       -6.3169    1.6552   -2.5012 H         1 ATP         0.4018
     43 H2         -2.3612    1.2343   -4.4957 H         1 ATP         0.0652
     44 H44        -4.5223    1.7976   -3.9117 H         1 ATP         0.4503
     45 H45        -5.0218   -0.8132    0.3804 H         1 ATP         0.5209
@<TRIPOS>BOND
     1    1    2 2
     2    1    3 1
     3    1    4 1
     4    1    8 1
     5    4   32 1
     6    5    6 2
     7    5    7 1
     8    5    8 1
     9    5   12 1
    10    9   10 2
    11    9   11 1
    12    9   12 1
    13    9   13 1
    14   13   14 1
    15   14   15 1
    16   14   33 1
    17   14   34 1
    18   15   16 1
    19   15   17 1
    20   15   35 1
    21   16   21 1
    22   17   18 1
    23   17   19 1
    24   17   36 1
    25   18   37 1
    26   19   20 1
    27   19   21 1
    28   19   38 1
    29   20   39 1
    30   21   22 1
    31   21   40 1
    32   22   23 ar
    33   22   31 ar
    34   23   24 ar
    35   23   41 1
    36   24   25 ar
    37   24   45 1
    38   25   26 ar
    39   25   31 ar
    40   26   27 2
    41   26   28 ar
    42   27   42 1
    43   28   29 ar
    44   28   44 1
    45   29   30 ar
    46   29   43 1
    47   30   31 ar
@<TRIPOS>SUBSTRUCTURE
     1 ATP         1 GROUP 0 A     ****
@<TRIPOS>MOLECULE
[[[3,4-dihydroxy-5-(6-imino-7,8-dihydro-1~{H}-purin-8-ylium-9-yl)tetrahydrofuran-2-yl]methoxy-oxido-phosphoryl]oxy-oxido-phosphoryl] hydrogen phosphate
   45    47     1     0     0
SMALL
USER_CHARGES

@<TRIPOS>ATOM
      1 PG         -1.2736   -0.2282   -7.1426 P.3       1 ATP         1.5631
      2 O1G        -1.9401   -1.4727   -7.6854 O.co2     1 ATP        -0.8806
      3 O2G        -0.5941    0.7562   -8.0683 O.co2     1 ATP        -0.8806
      4 O3G        -2.3557    0.5827   -6.2276 O.3       1 ATP        -0.8165
      5 PB          1.1611   -1.5105   -6.0602 P.3       1 ATP         1.6877
      6 O1B         0.8293   -2.9335   -6.4509 O.co2     1 ATP        -0.8727
      7 O2B         2.1761   -0.7014   -6.8366 O.co2     1 ATP        -0.8727
      8 O3B        -0.2272   -0.6565   -5.9656 O.3       1 ATP        -0.8330
      9 PA          2.8603   -2.1317   -3.7189 P.3       1 ATP         1.6036
     10 O1A         4.1110   -1.4272   -4.1983 O.co2     1 ATP        -0.9062
     11 O2A         2.7464   -3.6389   -3.7889 O.co2     1 ATP        -0.9062
     12 O3A         1.5678   -1.4831   -4.4795 O.3       1 ATP        -0.8166
     13 O5'         2.5245   -1.6648   -2.1878 O.3       1 ATP        -0.5510
     14 C5'         2.2816   -0.2918   -1.9206 C.3       1 ATP         0.2099
     15 C4'         2.7248    0.0226   -0.4980 C.3       1 ATP         0.0598
     16 O4'         2.4697    1.4219   -0.2462 O.3       1 ATP        -0.3455
     17 C3'         1.9404   -0.7419    0.5596 C.3       1 ATP         0.0742
     18 O3'         2.7418   -0.8086    1.7389 O.3       1 ATP        -0.6025
     19 C2'         0.7477    0.1630    0.7858 C.3       1 ATP         0.1145
     20 O2'         0.1373   -0.0577    2.0407 O.3       1 ATP        -0.5835
     21 C1'         1.3733    1.5427    0.6747 C.3       1 ATP         0.3776
     22 N9          0.4520    2.5240    0.1767 N.pl3     1 ATP        -0.4429
     23 C8          0.2216    2.8192   -1.0985 C.ar      1 ATP         0.2964
     24 N7         -0.6906    3.7763   -1.2384 N.pl3     1 ATP        -0.4957
     25 C5         -1.0575    4.1037    0.0366 C.ar      1 ATP        -0.1346
     26 C6         -2.0291    5.0943    0.5330 C.ar      1 ATP         0.7213
     27 N6         -2.7093    5.8371   -0.2800 N.2       1 ATP        -0.8215
     28 N1         -2.1051    5.1136    1.9204 N.pl3     1 ATP        -0.8455
     29 C2         -1.3354    4.2774    2.7129 C.ar      1 ATP         0.6477
     30 N3         -0.4707    3.3945    2.2944 N.2       1 ATP        -0.5707
     31 C4         -0.3734    3.3525    0.9220 C.ar      1 ATP         0.2637
     32 HOG3       -2.0727    1.4196   -5.8014 H         1 ATP         0.4378
     33 H5'1        2.8432    0.3119   -2.6398 H         1 ATP         0.0340
     34 H5'2        1.2128   -0.0927   -2.0428 H         1 ATP         0.0340
     35 H4'         3.8044   -0.1397   -0.4040 H         1 ATP         0.0910
     36 H3'         1.6764   -1.7639    0.2728 H         1 ATP         0.0656
     37 HO3'        2.2232   -1.2979    2.3953 H         1 ATP         0.4386
     38 H2'        -0.0011    0.0027    0.0003 H         1 ATP         0.0788
     39 HO2'       -0.1563   -0.9855    2.0596 H         1 ATP         0.4363
     40 H1'         1.7826    1.9024    1.6451 H         1 ATP         0.1225
     41 H8          0.7125    2.3429   -1.9292 H         1 ATP         0.3824
     42 HN62       -3.3217    6.4517    0.2629 H         1 ATP         0.4018
     43 H2         -1.5188    4.4223    3.7890 H         1 ATP         0.0652
     44 H44        -2.7470    5.7626    2.3665 H         1 ATP         0.4503
     45 H45        -1.0305    4.1680   -2.1054 H         1 ATP         0.5209
@<TRIPOS>BOND
     1    1    2 2
     2    1    3 1
     3    1    4 1
     4    1    8 1
     5    4   32 1
     6    5    6 2
     7    5    7 1
     8    5    8 1
     9    5   12 1
    10    9   10 2
    11    9   11 1
    12    9   12 1
    13    9   13 1
    14   13   14 1
    15   14   15 1
    16   14   33 1
    17   14   34 1
    18   15   16 1
    19   15   17 1
    20   15   35 1
    21   16   21 1
    22   17   18 1
    23   17   19 1
    24   17   36 1
    25   18   37 1
    26   19   20 1
    27   19   21 1
    28   19   38 1
    29   20   39 1
    30   21   22 1
    31   21   40 1
    32   22   23 ar
    33   22   31 ar
    34   23   24 ar
    35   23   41 1
    36   24   25 ar
    37   24   45 1
    38   25   26 ar
    39   25   31 ar
    40   26   27 2
    41   26   28 ar
    42   27   42 1
    43   28   29 ar
    44   28   44 1
    45   29   30 ar
    46   29   43 1
    47   30   31 ar
@<TRIPOS>SUBSTRUCTURE
     1 ATP         1 GROUP 0 A     ****
@<TRIPOS>MOLECULE
[[[3,4-dihydroxy-5-(6-imino-7,8-dihydro-1~{H}-purin-8-ylium-9-yl)tetrahydrofuran-2-yl]methoxy-oxido-phosphoryl]oxy-oxido-phosphoryl] hydrogen phosphate
   45    47     1     0     0
SMALL
USER_CHARGES

@<TRIPOS>ATOM
      1 PG         -1.5868   -0.4978   -7.1579 P.3       1 ATP         1.5631
      2 O1G        -1.3082    0.2328   -8.4526 O.co2     1 ATP        -0.8806
      3 O2G        -2.8733   -0.2674   -6.3966 O.co2     1 ATP        -0.8806
      4 O3G        -1.4197   -2.1006   -7.4205 O.3       1 ATP        -0.8165
      5 PB          1.2668   -0.5462   -6.3844 P.3       1 ATP         1.6877
      6 O1B         1.4926   -2.0333   -6.5426 O.co2     1 ATP        -0.8727
      7 O2B         1.7714    0.4370   -7.4171 O.co2     1 ATP        -0.8727
      8 O3B        -0.3262   -0.2814   -6.1440 O.3       1 ATP        -0.8330
      9 PA          3.3343   -0.0514   -4.3264 P.3       1 ATP         1.6036
     10 O1A         4.1298    0.9787   -5.0986 O.co2     1 ATP        -0.9062
     11 O2A         3.8296   -1.4756   -4.2002 O.co2     1 ATP        -0.9062
     12 O3A         1.8106   -0.0877   -4.9151 O.3       1 ATP        -0.8166
     13 O5'         3.0213    0.5153   -2.8245 O.3       1 ATP        -0.5510
     14 C5'         2.2816   -0.2918   -1.9206 C.3       1 ATP         0.2099
     15 C4'         2.7248    0.0226   -0.4980 C.3       1 ATP         0.0598
     16 O4'         2.4697    1.4219   -0.2462 O.3       1 ATP        -0.3455
     17 C3'         1.9404   -0.7419    0.5596 C.3       1 ATP         0.0742
     18 O3'         2.7418   -0.8086    1.7389 O.3       1 ATP        -0.6025
     19 C2'         0.7477    0.1630    0.7858 C.3       1 ATP         0.1145
     20 O2'         0.1373   -0.0577    2.0407 O.3       1 ATP        -0.5835
     21 C1'         1.3733    1.5427    0.6747 C.3       1 ATP         0.3776
     22 N9          0.4520    2.5240    0.1767 N.pl3     1 ATP        -0.4429
     23 C8          0.2216    2.8192   -1.0985 C.ar      1 ATP         0.2964
     24 N7         -0.6906    3.7763   -1.2384 N.pl3     1 ATP        -0.4957
     25 C5         -1.0575    4.1037    0.0366 C.ar      1 ATP        -0.1346
     26 C6         -2.0291    5.0943    0.5330 C.ar      1 ATP         0.7213
     27 N6         -2.7093    5.8371   -0.2800 N.2       1 ATP        -0.8215
     28 N1         -2.1051    5.1136    1.9204 N.pl3     1 ATP        -0.8455
     29 C2         -1.3354    4.2774    2.7129 C.ar      1 ATP         0.6477
     30 N3         -0.4707    3.3945    2.2944 N.2       1 ATP        -0.5707
     31 C4         -0.3734    3.3525    0.9220 C.ar      1 ATP         0.2637
     32 HOG3       -1.5691   -2.7148   -6.6703 H         1 ATP         0.4378
     33 H5'1        1.2163   -0.0770   -2.0471 H         1 ATP         0.0340
     34 H5'2        2.4655   -1.3443   -2.1563 H         1 ATP         0.0340
     35 H4'         3.8044   -0.1397   -0.4040 H         1 ATP         0.0910
     36 H3'         1.6764   -1.7639    0.2728 H         1 ATP         0.0656
     37 HO3'        2.2232   -1.2979    2.3953 H         1 ATP         0.4386
     38 H2'        -0.0011    0.0027    0.0003 H         1 ATP         0.0788
     39 HO2'       -0.6141    0.5574    2.1082 H         1 ATP         0.4363
     40 H1'         1.7826    1.9024    1.6451 H         1 ATP         0.1225
     41 H8          0.7125    2.3429   -1.9292 H         1 ATP         0.3824
     42 HN62       -3.3217    6.4517    0.2629 H         1 ATP         0.4018
     43 H2         -1.5188    4.4223    3.7890 H         1 ATP         0.0652
     44 H44        -2.7470    5.7626    2.3665 H         1 ATP         0.4503
     45 H45        -1.0305    4.1680   -2.1054 H         1 ATP         0.5209
@<TRIPOS>BOND
     1    1    2 2
     2    1    3 1
     3    1    4 1
     4    1    8 1
     5    4   32 1
     6    5    6 2
     7    5    7 1
     8    5    8 1
     9    5   12 1
    10    9   10 2
    11    9   11 1
    12    9   12 1
    13    9   13 1
    14   13   14 1
    15   14   15 1
    16   14   33 1
    17   14   34 1
    18   15   16 1
    19   15   17 1
    20   15   35 1
    21   16   21 1
    22   17   18 1
    23   17   19 1
    24   17   36 1
    25   18   37 1
    26   19   20 1
    27   19   21 1
    28   19   38 1
    29   20   39 1
    30   21   22 1
    31   21   40 1
    32   22   23 ar
    33   22   31 ar
    34   23   24 ar
    35   23   41 1
    36   24   25 ar
    37   24   45 1
    38   25   26 ar
    39   25   31 ar
    40   26   27 2
    41   26   28 ar
    42   27   42 1
    43   28   29 ar
    44   28   44 1
    45   29   30 ar
    46   29   43 1
    47   30   31 ar
@<TRIPOS>SUBSTRUCTURE
     1 ATP         1 GROUP 0 A     ****
@<TRIPOS>MOLECULE
[[[3,4-dihydroxy-5-(6-imino-7,8-dihydro-1~{H}-purin-8-ylium-9-yl)tetrahydrofuran-2-yl]methoxy-oxido-phosphoryl]oxy-oxido-phosphoryl] hydrogen phosphate
   45    47     1     0     0
SMALL
USER_CHARGES

@<TRIPOS>ATOM
      1 PG          2.5955   -1.0820   -8.8219 P.3       1 ATP         1.5631
      2 O1G         1.8416    0.0516   -9.4806 O.co2     1 ATP        -0.8806
      3 O2G         2.2908   -2.5226   -9.1678 O.co2     1 ATP        -0.8806
      4 O3G         4.1956   -0.8275   -9.0243 O.3       1 ATP        -0.8165
      5 PB          1.2375   -1.0019   -6.1965 P.3       1 ATP         1.6877
      6 O1B         0.2975    0.1457   -6.4915 O.co2     1 ATP        -0.8727
      7 O2B         0.7466   -2.4324   -6.1806 O.co2     1 ATP        -0.8727
      8 O3B         2.5199   -0.8997   -7.2018 O.3       1 ATP        -0.8330
      9 PA          2.8621    0.6170   -4.3270 P.3       1 ATP         1.6036
     10 O1A         1.9204    1.7976   -4.2287 O.co2     1 ATP        -0.9062
     11 O2A         4.1143    0.6947   -5.1729 O.co2     1 ATP        -0.9062
     12 O3A         2.0098   -0.6976   -4.7908 O.3       1 ATP        -0.8166
     13 O5'         3.2903    0.1346   -2.8241 O.3       1 ATP        -0.5510
     14 C5'         2.2816   -0.2918   -1.9206 C.3       1 ATP         0.2099
     15 C4'         2.7248    0.0226   -0.4980 C.3       1 ATP         0.0598
     16 O4'         2.4697    1.4219   -0.2462 O.3       1 ATP        -0.3455
     17 C3'         1.9404   -0.7419    0.5596 C.3       1 ATP         0.0742
     18 O3'         2.7418   -0.8086    1.7389 O.3       1 ATP        -0.6025
     19 C2'         0.7477    0.1630    0.7858 C.3       1 ATP         0.1145
     20 O2'         0.1373   -0.0577    2.0407 O.3       1 ATP        -0.5835
     21 C1'         1.3733    1.5427    0.6747 C.3       1 ATP         0.3776
     22 N9          0.4520    2.5240    0.1767 N.pl3     1 ATP        -0.4429
     23 C8          0.2216    2.8192   -1.0985 C.ar      1 ATP         0.2964
     24 N7         -0.6906    3.7763   -1.2384 N.pl3     1 ATP        -0.4957
     25 C5         -1.0575    4.1037    0.0366 C.ar      1 ATP        -0.1346
     26 C6         -2.0291    5.0943    0.5330 C.ar      1 ATP         0.7213
     27 N6         -2.7093    5.8371   -0.2800 N.2       1 ATP        -0.8215
     28 N1         -2.1051    5.1136    1.9204 N.pl3     1 ATP        -0.8455
     29 C2         -1.3354    4.2774    2.7129 C.ar      1 ATP         0.6477
     30 N3         -0.4707    3.3945    2.2944 N.2       1 ATP        -0.5707
     31 C4         -0.3734    3.3525    0.9220 C.ar      1 ATP         0.2637
     32 HOG3        4.8234   -1.4818   -8.6501 H         1 ATP         0.4378
     33 H5'1        1.3514    0.2330   -2.1577 H         1 ATP         0.0340
     34 H5'2        2.1280   -1.3678   -2.0460 H         1 ATP         0.0340
     35 H4'         3.8044   -0.1397   -0.4040 H         1 ATP         0.0910
     36 H3'         1.6764   -1.7639    0.2728 H         1 ATP         0.0656
     37 HO3'        2.2232   -1.2979    2.3953 H         1 ATP         0.4386
     38 H2'        -0.0011    0.0027    0.0003 H         1 ATP         0.0788
     39 HO2'       -0.6141    0.5574    2.1082 H         1 ATP         0.4363
     40 H1'         1.7826    1.9024    1.6451 H         1 ATP         0.1225
     41 H8          0.7125    2.3429   -1.9292 H         1 ATP         0.3824
     42 HN62       -3.3217    6.4517    0.2629 H         1 ATP         0.4018
     43 H2         -1.5188    4.4223    3.7890 H         1 ATP         0.0652
     44 H44        -2.7470    5.7626    2.3665 H         1 ATP         0.4503
     45 H45        -1.0305    4.1680   -2.1054 H         1 ATP         0.5209
@<TRIPOS>BOND
     1    1    2 2
     2    1    3 1
     3    1    4 1
     4    1    8 1
     5    4   32 1
     6    5    6 2
     7    5    7 1
     8    5    8 1
     9    5   12 1
    10    9   10 2
    11    9   11 1
    12    9   12 1
    13    9   13 1
    14   13   14 1
    15   14   15 1
    16   14   33 1
    17   14   34 1
    18   15   16 1
    19   15   17 1
    20   15   35 1
    21   16   21 1
    22   17   18 1
    23   17   19 1
    24   17   36 1
    25   18   37 1
    26   19   20 1
    27   19   21 1
    28   19   38 1
    29   20   39 1
    30   21   22 1
    31   21   40 1
    32   22   23 ar
    33   22   31 ar
    34   23   24 ar
    35   23   41 1
    36   24   25 ar
    37   24   45 1
    38   25   26 ar
    39   25   31 ar
    40   26   27 2
    41   26   28 ar
    42   27   42 1
    43   28   29 ar
    44   28   44 1
    45   29   30 ar
    46   29   43 1
    47   30   31 ar
@<TRIPOS>SUBSTRUCTURE
     1 ATP         1 GROUP 0 A     ****
@<TRIPOS>MOLECULE
[[[3,4-dihydroxy-5-(6-imino-7,8-dihydro-1~{H}-purin-8-ylium-9-yl)tetrahydrofuran-2-yl]methoxy-oxido-phosphoryl]oxy-oxido-phosphoryl] hydrogen phosphate
   45    47     1     0     0
SMALL
USER_CHARGES

@<TRIPOS>ATOM
      1 PG         -0.6860   -1.0927   -7.4727 P.3       1 ATP         1.5631
      2 O1G        -0.1030   -0.5940   -8.7761 O.co2     1 ATP        -0.8806
      3 O2G        -2.1691   -0.9891   -7.1946 O.co2     1 ATP        -0.8806
      4 O3G        -0.2255   -2.6445   -7.2586 O.3       1 ATP        -0.8165
      5 PB          0.2043    1.1390   -5.7491 P.3       1 ATP         1.6877
      6 O1B         0.9135    1.9450   -6.8144 O.co2     1 ATP        -0.8727
      7 O2B        -1.1568    1.5491   -5.2328 O.co2     1 ATP        -0.8727
      8 O3B         0.1332   -0.4190   -6.2322 O.3       1 ATP        -0.8330
      9 PA          2.7407    0.3769   -4.4297 P.3       1 ATP         1.6036
     10 O1A         3.6422    1.3305   -5.1835 O.co2     1 ATP        -0.9062
     11 O2A         2.7080   -1.0952   -4.7784 O.co2     1 ATP        -0.9062
     12 O3A         1.2115    0.9503   -4.4784 O.3       1 ATP        -0.8166
     13 O5'         3.0213    0.5153   -2.8245 O.3       1 ATP        -0.5510
     14 C5'         2.2816   -0.2918   -1.9206 C.3       1 ATP         0.2099
     15 C4'         2.7248    0.0226   -0.4980 C.3       1 ATP         0.0598
     16 O4'         2.4697    1.4219   -0.2462 O.3       1 ATP        -0.3455
     17 C3'         1.9404   -0.7419    0.5596 C.3       1 ATP         0.0742
     18 O3'         2.7418   -0.8086    1.7389 O.3       1 ATP        -0.6025
     19 C2'         0.7477    0.1630    0.7858 C.3       1 ATP         0.1145
     20 O2'         0.1373   -0.0577    2.0407 O.3       1 ATP        -0.5835
     21 C1'         1.3733    1.5427    0.6747 C.3       1 ATP         0.3776
     22 N9          0.4520    2.5240    0.1767 N.pl3     1 ATP        -0.4429
     23 C8         -0.6821    2.9098    0.7521 C.ar      1 ATP         0.2964
     24 N7         -1.3175    3.8384    0.0437 N.pl3     1 ATP        -0.4957
     25 C5         -0.5274    4.0494   -1.0512 C.ar      1 ATP        -0.1346
     26 C6         -0.6966    4.9597   -2.1977 C.ar      1 ATP         0.7213
     27 N6         -1.7259    5.7385   -2.2937 N.2       1 ATP        -0.8215
     28 N1          0.3493    4.8663   -3.1079 N.pl3     1 ATP        -0.8455
     29 C2          1.4148    4.0005   -2.9208 C.ar      1 ATP         0.6477
     30 N3          1.5838    3.1876   -1.9144 N.2       1 ATP        -0.5707
     31 C4          0.5619    3.2578   -0.9949 C.ar      1 ATP         0.2637
     32 HOG3       -0.5261   -3.1135   -6.4512 H         1 ATP         0.4378
     33 H5'1        1.2163   -0.0770   -2.0471 H         1 ATP         0.0340
     34 H5'2        2.4655   -1.3443   -2.1563 H         1 ATP         0.0340
     35 H4'         3.8044   -0.1397   -0.4040 H         1 ATP         0.0910
     36 H3'         1.6764   -1.7639    0.2728 H         1 ATP         0.0656
     37 HO3'        2.2232   -1.2979    2.3953 H         1 ATP         0.4386
     38 H2'        -0.0011    0.0027    0.0003 H         1 ATP         0.0788
     39 HO2'       -0.1563   -0.9855    2.0596 H         1 ATP         0.4363
     40 H1'         1.7826    1.9024    1.6451 H         1 ATP         0.1225
     41 H8         -1.0516    2.5207    1.6849 H         1 ATP         0.3824
     42 HN62       -1.6520    6.2842   -3.1564 H         1 ATP         0.4018
     43 H2          2.1542    4.0525   -3.7351 H         1 ATP         0.0652
     44 H44         0.3306    5.4533   -3.9370 H         1 ATP         0.4503
     45 H45        -2.1941    4.2838    0.2756 H         1 ATP         0.5209
@<TRIPOS>BOND
     1    1    2 2
     2    1    3 1
     3    1    4 1
     4    1    8 1
     5    4   32 1
     6    5    6 2
     7    5    7 1
     8    5    8 1
     9    5   12 1
    10    9   10 2
    11    9   11 1
    12    9   12 1
    13    9   13 1
    14   13   14 1
    15   14   15 1
    16   14   33 1
    17   14   34 1
    18   15   16 1
    19   15   17 1
    20   15   35 1
    21   16   21 1
    22   17   18 1
    23   17   19 1
    24   17   36 1
    25   18   37 1
    26   19   20 1
    27   19   21 1
    28   19   38 1
    29   20   39 1
    30   21   22 1
    31   21   40 1
    32   22   23 ar
    33   22   31 ar
    34   23   24 ar
    35   23   41 1
    36   24   25 ar
    37   24   45 1
    38   25   26 ar
    39   25   31 ar
    40   26   27 2
    41   26   28 ar
    42   27   42 1
    43   28   29 ar
    44   28   44 1
    45   29   30 ar
    46   29   43 1
    47   30   31 ar
@<TRIPOS>SUBSTRUCTURE
     1 ATP         1 GROUP 0 A     ****
@<TRIPOS>MOLECULE
[[[3,4-dihydroxy-5-(6-imino-7,8-dihydro-1~{H}-purin-8-ylium-9-yl)tetrahydrofuran-2-yl]methoxy-oxido-phosphoryl]oxy-oxido-phosphoryl] hydrogen phosphate
   45    47     1     0     0
SMALL
USER_CHARGES

@<TRIPOS>ATOM
      1 PG          2.8592   -0.3846   -8.2032 P.3       1 ATP         1.5631
      2 O1G         1.8905    0.6615   -8.7080 O.co2     1 ATP        -0.8806
      3 O2G         3.0929   -1.6643   -8.9749 O.co2     1 ATP        -0.8806
      4 O3G         4.3024    0.3308   -7.9363 O.3       1 ATP        -0.8165
      5 PB          1.1611   -1.5105   -6.0602 P.3       1 ATP         1.6877
      6 O1B        -0.0418   -0.6173   -6.2669 O.co2     1 ATP        -0.8727
      7 O2B         1.1620   -2.9460   -6.5367 O.co2     1 ATP        -0.8727
      8 O3B         2.4804   -0.7589   -6.6605 O.3       1 ATP        -0.8330
      9 PA          2.8603   -2.1317   -3.7189 P.3       1 ATP         1.6036
     10 O1A         4.1110   -1.4272   -4.1983 O.co2     1 ATP        -0.9062
     11 O2A         2.7464   -3.6389   -3.7889 O.co2     1 ATP        -0.9062
     12 O3A         1.5678   -1.4831   -4.4795 O.3       1 ATP        -0.8166
     13 O5'         2.5245   -1.6648   -2.1878 O.3       1 ATP        -0.5510
     14 C5'         2.2816   -0.2918   -1.9206 C.3       1 ATP         0.2099
     15 C4'         2.7248    0.0226   -0.4980 C.3       1 ATP         0.0598
     16 O4'         2.4697    1.4219   -0.2462 O.3       1 ATP        -0.3455
     17 C3'         1.9404   -0.7419    0.5596 C.3       1 ATP         0.0742
     18 O3'         2.7418   -0.8086    1.7389 O.3       1 ATP        -0.6025
     19 C2'         0.7477    0.1630    0.7858 C.3       1 ATP         0.1145
     20 O2'         0.1373   -0.0577    2.0407 O.3       1 ATP        -0.5835
     21 C1'         1.3733    1.5427    0.6747 C.3       1 ATP         0.3776
     22 N9          0.4520    2.5240    0.1767 N.pl3     1 ATP        -0.4429
     23 C8          0.2216    2.8192   -1.0985 C.ar      1 ATP         0.2964
     24 N7         -0.6906    3.7763   -1.2384 N.pl3     1 ATP        -0.4957
     25 C5         -1.0575    4.1037    0.0366 C.ar      1 ATP        -0.1346
     26 C6         -2.0291    5.0943    0.5330 C.ar      1 ATP         0.7213
     27 N6         -2.7093    5.8371   -0.2800 N.2       1 ATP        -0.8215
     28 N1         -2.1051    5.1136    1.9204 N.pl3     1 ATP        -0.8455
     29 C2         -1.3354    4.2774    2.7129 C.ar      1 ATP         0.6477
     30 N3         -0.4707    3.3945    2.2944 N.2       1 ATP        -0.5707
     31 C4         -0.3734    3.3525    0.9220 C.ar      1 ATP         0.2637
     32 HOG3        5.0424   -0.2206   -7.6036 H         1 ATP         0.4378
     33 H5'1        2.8432    0.3119   -2.6398 H         1 ATP         0.0340
     34 H5'2        1.2128   -0.0927   -2.0428 H         1 ATP         0.0340
     35 H4'         3.8044   -0.1397   -0.4040 H         1 ATP         0.0910
     36 H3'         1.6764   -1.7639    0.2728 H         1 ATP         0.0656
     37 HO3'        2.2232   -1.2979    2.3953 H         1 ATP         0.4386
     38 H2'        -0.0011    0.0027    0.0003 H         1 ATP         0.0788
     39 HO2'       -0.1563   -0.9855    2.0596 H         1 ATP         0.4363
     40 H1'         1.7826    1.9024    1.6451 H         1 ATP         0.1225
     41 H8          0.7125    2.3429   -1.9292 H         1 ATP         0.3824
     42 HN62       -3.3217    6.4517    0.2629 H         1 ATP         0.4018
     43 H2         -1.5188    4.4223    3.7890 H         1 ATP         0.0652
     44 H44        -2.7470    5.7626    2.3665 H         1 ATP         0.4503
     45 H45        -1.0305    4.1680   -2.1054 H         1 ATP         0.5209
@<TRIPOS>BOND
     1    1    2 2
     2    1    3 1
     3    1    4 1
     4    1    8 1
     5    4   32 1
     6    5    6 2
     7    5    7 1
     8    5    8 1
     9    5   12 1
    10    9   10 2
    11    9   11 1
    12    9   12 1
    13    9   13 1
    14   13   14 1
    15   14   15 1
    16   14   33 1
    17   14   34 1
    18   15   16 1
    19   15   17 1
    20   15   35 1
    21   16   21 1
    22   17   18 1
    23   17   19 1
    24   17   36 1
    25   18   37 1
    26   19   20 1
    27   19   21 1
    28   19   38 1
    29   20   39 1
    30   21   22 1
    31   21   40 1
    32   22   23 ar
    33   22   31 ar
    34   23   24 ar
    35   23   41 1
    36   24   25 ar
    37   24   45 1
    38   25   26 ar
    39   25   31 ar
    40   26   27 2
    41   26   28 ar
    42   27   42 1
    43   28   29 ar
    44   28   44 1
    45   29   30 ar
    46   29   43 1
    47   30   31 ar
@<TRIPOS>SUBSTRUCTURE
     1 ATP         1 GROUP 0 A     ****
@<TRIPOS>MOLECULE
[[[3,4-dihydroxy-5-(6-imino-7,8-dihydro-1~{H}-purin-8-ylium-9-yl)tetrahydrofuran-2-yl]methoxy-oxido-phosphoryl]oxy-oxido-phosphoryl] hydrogen phosphate
   45    47     1     0     0
SMALL
USER_CHARGES

@<TRIPOS>ATOM
      1 PG         -5.6024   -4.4113    2.5195 P.3       1 ATP         1.5631
      2 O1G        -5.5217   -3.3542    1.4409 O.co2     1 ATP        -0.8806
      3 O2G        -4.9417   -4.2021    3.8639 O.co2     1 ATP        -0.8806
      4 O3G        -7.1734   -4.7818    2.7660 O.3       1 ATP        -0.8165
      5 PB         -3.6264   -6.2979    1.3883 P.3       1 ATP         1.6877
      6 O1B        -3.6616   -7.7756    1.0677 O.co2     1 ATP        -0.8727
      7 O2B        -3.1296   -5.2886    0.3773 O.co2     1 ATP        -0.8727
      8 O3B        -5.1063   -5.8386    1.9026 O.3       1 ATP        -0.8330
      9 PA         -1.2302   -6.3291    3.1238 P.3       1 ATP         1.6036
     10 O1A        -0.8643   -7.7469    2.7411 O.co2     1 ATP        -0.9062
     11 O2A        -0.9563   -5.8091    4.5182 O.co2     1 ATP        -0.9062
     12 O3A        -2.8100   -6.0849    2.7857 O.3       1 ATP        -0.8166
     13 O5'        -0.5687   -5.2869    2.0510 O.3       1 ATP        -0.5510
     14 C5'        -0.7840   -3.8935    2.2172 C.3       1 ATP         0.2099
     15 C4'        -0.0724   -3.1466    1.1027 C.3       1 ATP         0.0598
     16 O4'        -0.8674   -3.1929   -0.0945 O.3       1 ATP        -0.3455
     17 C3'         0.1338   -1.6715    1.4027 C.3       1 ATP         0.0742
     18 O3'         1.2893   -1.4445    2.1808 O.3       1 ATP        -0.6025
     19 C2'         0.2158   -1.0724    0.0128 C.3       1 ATP         0.1145
     20 O2'         1.5141   -1.2448   -0.5513 O.3       1 ATP        -0.5835
     21 C1'        -0.7897   -1.9176   -0.7583 C.3       1 ATP         0.3776
     22 N9         -2.1040   -1.3333   -0.7704 N.pl3     1 ATP        -0.4429
     23 C8         -3.0590   -1.5123    0.1363 C.ar      1 ATP         0.2964
     24 N7         -4.1655   -0.8354   -0.1554 N.pl3     1 ATP        -0.4957
     25 C5         -3.8852   -0.1874   -1.3253 C.ar      1 ATP        -0.1346
     26 C6         -4.7113    0.7160   -2.1458 C.ar      1 ATP         0.7213
     27 N6         -5.9213    1.0209   -1.8021 N.2       1 ATP        -0.8215
     28 N1         -4.0411    1.1673   -3.2764 N.pl3     1 ATP        -0.8455
     29 C2         -2.7403    0.7865   -3.5638 C.ar      1 ATP         0.6477
     30 N3         -1.9921   -0.0108   -2.8519 N.2       1 ATP        -0.5707
     31 C4         -2.6302   -0.4747   -1.7239 C.ar      1 ATP         0.2637
     32 HOG3       -7.3931   -5.4581    3.4417 H         1 ATP         0.4378
     33 H5'1       -1.8598   -3.6968    2.1850 H         1 ATP         0.0340
     34 H5'2       -0.3933   -3.5903    3.1931 H         1 ATP         0.0340
     35 H4'         0.8874   -3.6466    0.8805 H         1 ATP         0.0910
     36 H3'        -0.7376   -1.2333    1.9867 H         1 ATP         0.0656
     37 HO3'        1.3408   -0.4870    2.3219 H         1 ATP         0.4386
     38 H2'        -0.0384   -0.0310    0.0096 H         1 ATP         0.0788
     39 HO2'        2.1463   -0.7958    0.0370 H         1 ATP         0.4363
     40 H1'        -0.4769   -2.1002   -1.8093 H         1 ATP         0.1225
     41 H8         -2.9569   -2.1323    1.0098 H         1 ATP         0.3824
     42 HN62       -6.3169    1.6552   -2.5012 H         1 ATP         0.4018
     43 H2         -2.3612    1.2343   -4.4957 H         1 ATP         0.0652
     44 H44        -4.5223    1.7976   -3.9117 H         1 ATP         0.4503
     45 H45        -5.0218   -0.8132    0.3804 H         1 ATP         0.5209
@<TRIPOS>BOND
     1    1    2 2
     2    1    3 1
     3    1    4 1
     4    1    8 1
     5    4   32 1
     6    5    6 2
     7    5    7 1
     8    5    8 1
     9    5   12 1
    10    9   10 2
    11    9   11 1
    12    9   12 1
    13    9   13 1
    14   13   14 1
    15   14   15 1
    16   14   33 1
    17   14   34 1
    18   15   16 1
    19   15   17 1
    20   15   35 1
    21   16   21 1
    22   17   18 1
    23   17   19 1
    24   17   36 1
    25   18   37 1
    26   19   20 1
    27   19   21 1
    28   19   38 1
    29   20   39 1
    30   21   22 1
    31   21   40 1
    32   22   23 ar
    33   22   31 ar
    34   23   24 ar
    35   23   41 1
    36   24   25 ar
    37   24   45 1
    38   25   26 ar
    39   25   31 ar
    40   26   27 2
    41   26   28 ar
    42   27   42 1
    43   28   29 ar
    44   28   44 1
    45   29   30 ar
    46   29   43 1
    47   30   31 ar
@<TRIPOS>SUBSTRUCTURE
     1 ATP         1 GROUP 0 A     ****
@<TRIPOS>MOLECULE
[[[3,4-dihydroxy-5-(6-imino-7,8-dihydro-1~{H}-purin-8-ylium-9-yl)tetrahydrofuran-2-yl]methoxy-oxido-phosphoryl]oxy-oxido-phosphoryl] hydrogen phosphate
   45    47     1     0     0
SMALL
USER_CHARGES

@<TRIPOS>ATOM
      1 PG         -3.4715   -3.3838   -0.7279 P.3       1 ATP         1.5631
      2 O1G        -3.5867   -4.8880   -0.6202 O.co2     1 ATP        -0.8806
      3 O2G        -4.4682   -2.5839   -1.5369 O.co2     1 ATP        -0.8806
      4 O3G        -3.4072   -2.7593    0.7794 O.3       1 ATP        -0.8165
      5 PB         -1.2231   -3.2846   -2.6458 P.3       1 ATP         1.6877
      6 O1B        -1.0254   -4.7760   -2.8008 O.co2     1 ATP        -0.8727
      7 O2B        -1.9104   -2.4698   -3.7188 O.co2     1 ATP        -0.8727
      8 O3B        -1.9629   -3.0003   -1.2183 O.3       1 ATP        -0.8330
      9 PA          1.5544   -2.4558   -3.2404 P.3       1 ATP         1.6036
     10 O1A         1.2372   -1.5514   -4.4116 O.co2     1 ATP        -0.9062
     11 O2A         2.1275   -3.8383   -3.4637 O.co2     1 ATP        -0.9062
     12 O3A         0.2190   -2.5976   -2.3096 O.3       1 ATP        -0.8166
     13 O5'         2.5245   -1.6648   -2.1878 O.3       1 ATP        -0.5510
     14 C5'         2.2816   -0.2918   -1.9206 C.3       1 ATP         0.2099
     15 C4'         2.7248    0.0226   -0.4980 C.3       1 ATP         0.0598
     16 O4'         2.4697    1.4219   -0.2462 O.3       1 ATP        -0.3455
     17 C3'         1.9404   -0.7419    0.5596 C.3       1 ATP         0.0742
     18 O3'         2.7418   -0.8086    1.7389 O.3       1 ATP        -0.6025
     19 C2'         0.7477    0.1630    0.7858 C.3       1 ATP         0.1145
     20 O2'         0.1373   -0.0577    2.0407 O.3       1 ATP        -0.5835
     21 C1'         1.3733    1.5427    0.6747 C.3       1 ATP         0.3776
     22 N9          0.4520    2.5240    0.1767 N.pl3     1 ATP        -0.4429
     23 C8          0.5691    3.2215   -0.9485 C.ar      1 ATP         0.2964
     24 N7         -0.4499    4.0551   -1.1342 N.pl3     1 ATP        -0.4957
     25 C5         -1.2618    3.8674   -0.0512 C.ar      1 ATP        -0.1346
     26 C6         -2.5420    4.5007    0.3120 C.ar      1 ATP         0.7213
     27 N6         -3.0874    5.3993   -0.4432 N.2       1 ATP        -0.8215
     28 N1         -3.0494    4.0205    1.5133 N.pl3     1 ATP        -0.8455
     29 C2         -2.3933    3.0527    2.2567 C.ar      1 ATP         0.6477
     30 N3         -1.2611    2.4796    1.9536 N.2       1 ATP        -0.5707
     31 C4         -0.7334    2.9358    0.7669 C.ar      1 ATP         0.2637
     32 HOG3       -3.3309   -1.7864    0.8788 H         1 ATP         0.4378
     33 H5'1        2.8432    0.3119   -2.6398 H         1 ATP         0.0340
     34 H5'2        1.2128   -0.0927   -2.0428 H         1 ATP         0.0340
     35 H4'         3.8044   -0.1397   -0.4040 H         1 ATP         0.0910
     36 H3'         1.6764   -1.7639    0.2728 H         1 ATP         0.0656
     37 HO3'        2.2232   -1.2979    2.3953 H         1 ATP         0.4386
     38 H2'        -0.0011    0.0027    0.0003 H         1 ATP         0.0788
     39 HO2'       -0.1563   -0.9855    2.0596 H         1 ATP         0.4363
     40 H1'         1.7826    1.9024    1.6451 H         1 ATP         0.1225
     41 H8          1.3912    3.1285   -1.6365 H         1 ATP         0.3824
     42 HN62       -3.9637    5.7083   -0.0142 H         1 ATP         0.4018
     43 H2         -2.9317    2.7866    3.1796 H         1 ATP         0.0652
     44 H44        -3.9307    4.3923    1.8558 H         1 ATP         0.4503
     45 H45        -0.5835    4.6857   -1.9122 H         1 ATP         0.5209
@<TRIPOS>BOND
     1    1    2 2
     2    1    3 1
     3    1    4 1
     4    1    8 1
     5    4   32 1
     6    5    6 2
     7    5    7 1
     8    5    8 1
     9    5   12 1
    10    9   10 2
    11    9   11 1
    12    9   12 1
    13    9   13 1
    14   13   14 1
    15   14   15 1
    16   14   33 1
    17   14   34 1
    18   15   16 1
    19   15   17 1
    20   15   35 1
    21   16   21 1
    22   17   18 1
    23   17   19 1
    24   17   36 1
    25   18   37 1
    26   19   20 1
    27   19   21 1
    28   19   38 1
    29   20   39 1
    30   21   22 1
    31   21   40 1
    32   22   23 ar
    33   22   31 ar
    34   23   24 ar
    35   23   41 1
    36   24   25 ar
    37   24   45 1
    38   25   26 ar
    39   25   31 ar
    40   26   27 2
    41   26   28 ar
    42   27   42 1
    43   28   29 ar
    44   28   44 1
    45   29   30 ar
    46   29   43 1
    47   30   31 ar
@<TRIPOS>SUBSTRUCTURE
     1 ATP         1 GROUP 0 A     ****
@<TRIPOS>MOLECULE
[[[3,4-dihydroxy-5-(6-imino-7,8-dihydro-1~{H}-purin-8-ylium-9-yl)tetrahydrofuran-2-yl]methoxy-oxido-phosphoryl]oxy-oxido-phosphoryl] hydrogen phosphate
   45    47     1     0     0
SMALL
USER_CHARGES

@<TRIPOS>ATOM
      1 PG          0.6771   -4.0010   -7.5791 P.3       1 ATP         1.5631
      2 O1G         1.7798   -3.8386   -8.6014 O.co2     1 ATP        -0.8806
      3 O2G        -0.7672   -3.7415   -7.9457 O.co2     1 ATP        -0.8806
      4 O3G         0.7870   -5.4955   -6.9307 O.3       1 ATP        -0.8165
      5 PB          1.1611   -1.5105   -6.0602 P.3       1 ATP         1.6877
      6 O1B         2.3334   -1.0052   -6.8713 O.co2     1 ATP        -0.8727
      7 O2B        -0.2175   -0.9086   -6.2171 O.co2     1 ATP        -0.8727
      8 O3B         1.0508   -3.1282   -6.2515 O.3       1 ATP        -0.8330
      9 PA          2.8603   -2.1317   -3.7189 P.3       1 ATP         1.6036
     10 O1A         4.1110   -1.4272   -4.1983 O.co2     1 ATP        -0.9062
     11 O2A         2.7464   -3.6389   -3.7889 O.co2     1 ATP        -0.9062
     12 O3A         1.5678   -1.4831   -4.4795 O.3       1 ATP        -0.8166
     13 O5'         2.5245   -1.6648   -2.1878 O.3       1 ATP        -0.5510
     14 C5'         2.2816   -0.2918   -1.9206 C.3       1 ATP         0.2099
     15 C4'         2.7248    0.0226   -0.4980 C.3       1 ATP         0.0598
     16 O4'         2.4697    1.4219   -0.2462 O.3       1 ATP        -0.3455
     17 C3'         1.9404   -0.7419    0.5596 C.3       1 ATP         0.0742
     18 O3'         2.7418   -0.8086    1.7389 O.3       1 ATP        -0.6025
     19 C2'         0.7477    0.1630    0.7858 C.3       1 ATP         0.1145
     20 O2'         0.1373   -0.0577    2.0407 O.3       1 ATP        -0.5835
     21 C1'         1.3733    1.5427    0.6747 C.3       1 ATP         0.3776
     22 N9          0.4520    2.5240    0.1767 N.pl3     1 ATP        -0.4429
     23 C8          0.2216    2.8192   -1.0985 C.ar      1 ATP         0.2964
     24 N7         -0.6906    3.7763   -1.2384 N.pl3     1 ATP        -0.4957
     25 C5         -1.0575    4.1037    0.0366 C.ar      1 ATP        -0.1346
     26 C6         -2.0291    5.0943    0.5330 C.ar      1 ATP         0.7213
     27 N6         -2.7093    5.8371   -0.2800 N.2       1 ATP        -0.8215
     28 N1         -2.1051    5.1136    1.9204 N.pl3     1 ATP        -0.8455
     29 C2         -1.3354    4.2774    2.7129 C.ar      1 ATP         0.6477
     30 N3         -0.4707    3.3945    2.2944 N.2       1 ATP        -0.5707
     31 C4         -0.3734    3.3525    0.9220 C.ar      1 ATP         0.2637
     32 HOG3        0.1356   -5.7560   -6.2451 H         1 ATP         0.4378
     33 H5'1        2.8432    0.3119   -2.6398 H         1 ATP         0.0340
     34 H5'2        1.2128   -0.0927   -2.0428 H         1 ATP         0.0340
     35 H4'         3.8044   -0.1397   -0.4040 H         1 ATP         0.0910
     36 H3'         1.6764   -1.7639    0.2728 H         1 ATP         0.0656
     37 HO3'        2.2232   -1.2979    2.3953 H         1 ATP         0.4386
     38 H2'        -0.0011    0.0027    0.0003 H         1 ATP         0.0788
     39 HO2'       -0.1563   -0.9855    2.0596 H         1 ATP         0.4363
     40 H1'         1.7826    1.9024    1.6451 H         1 ATP         0.1225
     41 H8          0.7125    2.3429   -1.9292 H         1 ATP         0.3824
     42 HN62       -3.3217    6.4517    0.2629 H         1 ATP         0.4018
     43 H2         -1.5188    4.4223    3.7890 H         1 ATP         0.0652
     44 H44        -2.7470    5.7626    2.3665 H         1 ATP         0.4503
     45 H45        -1.0305    4.1680   -2.1054 H         1 ATP         0.5209
@<TRIPOS>BOND
     1    1    2 2
     2    1    3 1
     3    1    4 1
     4    1    8 1
     5    4   32 1
     6    5    6 2
     7    5    7 1
     8    5    8 1
     9    5   12 1
    10    9   10 2
    11    9   11 1
    12    9   12 1
    13    9   13 1
    14   13   14 1
    15   14   15 1
    16   14   33 1
    17   14   34 1
    18   15   16 1
    19   15   17 1
    20   15   35 1
    21   16   21 1
    22   17   18 1
    23   17   19 1
    24   17   36 1
    25   18   37 1
    26   19   20 1
    27   19   21 1
    28   19   38 1
    29   20   39 1
    30   21   22 1
    31   21   40 1
    32   22   23 ar
    33   22   31 ar
    34   23   24 ar
    35   23   41 1
    36   24   25 ar
    37   24   45 1
    38   25   26 ar
    39   25   31 ar
    40   26   27 2
    41   26   28 ar
    42   27   42 1
    43   28   29 ar
    44   28   44 1
    45   29   30 ar
    46   29   43 1
    47   30   31 ar
@<TRIPOS>SUBSTRUCTURE
     1 ATP         1 GROUP 0 A     ****
@<TRIPOS>MOLECULE
[[[3,4-dihydroxy-5-(6-imino-7,8-dihydro-1~{H}-purin-8-ylium-9-yl)tetrahydrofuran-2-yl]methoxy-oxido-phosphoryl]oxy-oxido-phosphoryl] hydrogen phosphate
   45    47     1     0     0
SMALL
USER_CHARGES

@<TRIPOS>ATOM
      1 PG          7.4666   -3.8563   -1.3520 P.3       1 ATP         1.5631
      2 O1G         8.8558   -3.3130   -1.6016 O.co2     1 ATP        -0.8806
      3 O2G         7.0625   -5.2214   -1.8627 O.co2     1 ATP        -0.8806
      4 O3G         7.1651   -3.7924    0.2514 O.3       1 ATP        -0.8165
      5 PB          6.0281   -2.2323   -3.3612 P.3       1 ATP         1.6877
      6 O1B         7.2189   -1.4618   -3.8866 O.co2     1 ATP        -0.8727
      7 O2B         5.4250   -3.3745   -4.1481 O.co2     1 ATP        -0.8727
      8 O3B         6.3686   -2.7577   -1.8534 O.3       1 ATP        -0.8330
      9 PA          3.9554   -0.2064   -3.9565 P.3       1 ATP         1.6036
     10 O1A         3.0908   -1.0733   -4.8460 O.co2     1 ATP        -0.9062
     11 O2A         4.8709    0.8412   -4.5514 O.co2     1 ATP        -0.9062
     12 O3A         4.8444   -1.1732   -2.9846 O.3       1 ATP        -0.8166
     13 O5'         3.0213    0.5153   -2.8245 O.3       1 ATP        -0.5510
     14 C5'         2.2816   -0.2918   -1.9206 C.3       1 ATP         0.2099
     15 C4'         2.7248    0.0226   -0.4980 C.3       1 ATP         0.0598
     16 O4'         2.4697    1.4219   -0.2462 O.3       1 ATP        -0.3455
     17 C3'         1.9404   -0.7419    0.5596 C.3       1 ATP         0.0742
     18 O3'         2.7418   -0.8086    1.7389 O.3       1 ATP        -0.6025
     19 C2'         0.7477    0.1630    0.7858 C.3       1 ATP         0.1145
     20 O2'         0.1373   -0.0577    2.0407 O.3       1 ATP        -0.5835
     21 C1'         1.3733    1.5427    0.6747 C.3       1 ATP         0.3776
     22 N9          0.4520    2.5240    0.1767 N.pl3     1 ATP        -0.4429
     23 C8          0.2216    2.8192   -1.0985 C.ar      1 ATP         0.2964
     24 N7         -0.6906    3.7763   -1.2384 N.pl3     1 ATP        -0.4957
     25 C5         -1.0575    4.1037    0.0366 C.ar      1 ATP        -0.1346
     26 C6         -2.0291    5.0943    0.5330 C.ar      1 ATP         0.7213
     27 N6         -2.7093    5.8371   -0.2800 N.2       1 ATP        -0.8215
     28 N1         -2.1051    5.1136    1.9204 N.pl3     1 ATP        -0.8455
     29 C2         -1.3354    4.2774    2.7129 C.ar      1 ATP         0.6477
     30 N3         -0.4707    3.3945    2.2944 N.2       1 ATP        -0.5707
     31 C4         -0.3734    3.3525    0.9220 C.ar      1 ATP         0.2637
     32 HOG3        6.2965   -4.1123    0.5762 H         1 ATP         0.4378
     33 H5'1        1.2163   -0.0770   -2.0471 H         1 ATP         0.0340
     34 H5'2        2.4655   -1.3443   -2.1563 H         1 ATP         0.0340
     35 H4'         3.8044   -0.1397   -0.4040 H         1 ATP         0.0910
     36 H3'         1.6764   -1.7639    0.2728 H         1 ATP         0.0656
     37 HO3'        3.5554   -1.2733    1.4914 H         1 ATP         0.4386
     38 H2'        -0.0011    0.0027    0.0003 H         1 ATP         0.0788
     39 HO2'       -0.6141    0.5574    2.1082 H         1 ATP         0.4363
     40 H1'         1.7826    1.9024    1.6451 H         1 ATP         0.1225
     41 H8          0.7125    2.3429   -1.9292 H         1 ATP         0.3824
     42 HN62       -3.3217    6.4517    0.2629 H         1 ATP         0.4018
     43 H2         -1.5188    4.4223    3.7890 H         1 ATP         0.0652
     44 H44        -2.7470    5.7626    2.3665 H         1 ATP         0.4503
     45 H45        -1.0305    4.1680   -2.1054 H         1 ATP         0.5209
@<TRIPOS>BOND
     1    1    2 2
     2    1    3 1
     3    1    4 1
     4    1    8 1
     5    4   32 1
     6    5    6 2
     7    5    7 1
     8    5    8 1
     9    5   12 1
    10    9   10 2
    11    9   11 1
    12    9   12 1
    13    9   13 1
    14   13   14 1
    15   14   15 1
    16   14   33 1
    17   14   34 1
    18   15   16 1
    19   15   17 1
    20   15   35 1
    21   16   21 1
    22   17   18 1
    23   17   19 1
    24   17   36 1
    25   18   37 1
    26   19   20 1
    27   19   21 1
    28   19   38 1
    29   20   39 1
    30   21   22 1
    31   21   40 1
    32   22   23 ar
    33   22   31 ar
    34   23   24 ar
    35   23   41 1
    36   24   25 ar
    37   24   45 1
    38   25   26 ar
    39   25   31 ar
    40   26   27 2
    41   26   28 ar
    42   27   42 1
    43   28   29 ar
    44   28   44 1
    45   29   30 ar
    46   29   43 1
    47   30   31 ar
@<TRIPOS>SUBSTRUCTURE
     1 ATP         1 GROUP 0 A     ****
@<TRIPOS>MOLECULE
[[[3,4-dihydroxy-5-(6-imino-7,8-dihydro-1~{H}-purin-8-ylium-9-yl)tetrahydrofuran-2-yl]methoxy-oxido-phosphoryl]oxy-oxido-phosphoryl] hydrogen phosphate
   45    47     1     0     0
SMALL
USER_CHARGES

@<TRIPOS>ATOM
      1 PG         -0.9645    0.6699   -7.2452 P.3       1 ATP         1.5631
      2 O1G        -2.0449   -0.3885   -7.2499 O.co2     1 ATP        -0.8806
      3 O2G        -0.2980    1.1060   -8.5309 O.co2     1 ATP        -0.8806
      4 O3G        -1.5399    1.9949   -6.4842 O.3       1 ATP        -0.8165
      5 PB          1.2375   -1.0019   -6.1965 P.3       1 ATP         1.6877
      6 O1B         0.4601   -2.2913   -6.0532 O.co2     1 ATP        -0.8727
      7 O2B         2.2079   -0.7949   -7.3380 O.co2     1 ATP        -0.8727
      8 O3B         0.1875    0.2481   -6.1688 O.3       1 ATP        -0.8330
      9 PA          2.8621    0.6170   -4.3270 P.3       1 ATP         1.6036
     10 O1A         1.9204    1.7976   -4.2287 O.co2     1 ATP        -0.9062
     11 O2A         4.1143    0.6947   -5.1729 O.co2     1 ATP        -0.9062
     12 O3A         2.0098   -0.6976   -4.7908 O.3       1 ATP        -0.8166
     13 O5'         3.2903    0.1346   -2.8241 O.3       1 ATP        -0.5510
     14 C5'         2.2816   -0.2918   -1.9206 C.3       1 ATP         0.2099
     15 C4'         2.7248    0.0226   -0.4980 C.3       1 ATP         0.0598
     16 O4'         2.4697    1.4219   -0.2462 O.3       1 ATP        -0.3455
     17 C3'         1.9404   -0.7419    0.5596 C.3       1 ATP         0.0742
     18 O3'         2.7418   -0.8086    1.7389 O.3       1 ATP        -0.6025
     19 C2'         0.7477    0.1630    0.7858 C.3       1 ATP         0.1145
     20 O2'         0.1373   -0.0577    2.0407 O.3       1 ATP        -0.5835
     21 C1'         1.3733    1.5427    0.6747 C.3       1 ATP         0.3776
     22 N9          0.4520    2.5240    0.1767 N.pl3     1 ATP        -0.4429
     23 C8          0.2216    2.8192   -1.0985 C.ar      1 ATP         0.2964
     24 N7         -0.6906    3.7763   -1.2384 N.pl3     1 ATP        -0.4957
     25 C5         -1.0575    4.1037    0.0366 C.ar      1 ATP        -0.1346
     26 C6         -2.0291    5.0943    0.5330 C.ar      1 ATP         0.7213
     27 N6         -2.7093    5.8371   -0.2800 N.2       1 ATP        -0.8215
     28 N1         -2.1051    5.1136    1.9204 N.pl3     1 ATP        -0.8455
     29 C2         -1.3354    4.2774    2.7129 C.ar      1 ATP         0.6477
     30 N3         -0.4707    3.3945    2.2944 N.2       1 ATP        -0.5707
     31 C4         -0.3734    3.3525    0.9220 C.ar      1 ATP         0.2637
     32 HOG3       -0.9526    2.7760   -6.3984 H         1 ATP         0.4378
     33 H5'1        1.3514    0.2330   -2.1577 H         1 ATP         0.0340
     34 H5'2        2.1280   -1.3678   -2.0460 H         1 ATP         0.0340
     35 H4'         3.8044   -0.1397   -0.4040 H         1 ATP         0.0910
     36 H3'         1.6764   -1.7639    0.2728 H         1 ATP         0.0656
     37 HO3'        3.5554   -1.2733    1.4914 H         1 ATP         0.4386
     38 H2'        -0.0011    0.0027    0.0003 H         1 ATP         0.0788
     39 HO2'       -0.1563   -0.9855    2.0596 H         1 ATP         0.4363
     40 H1'         1.7826    1.9024    1.6451 H         1 ATP         0.1225
     41 H8          0.7125    2.3429   -1.9292 H         1 ATP         0.3824
     42 HN62       -3.3217    6.4517    0.2629 H         1 ATP         0.4018
     43 H2         -1.5188    4.4223    3.7890 H         1 ATP         0.0652
     44 H44        -2.7470    5.7626    2.3665 H         1 ATP         0.4503
     45 H45        -1.0305    4.1680   -2.1054 H         1 ATP         0.5209
@<TRIPOS>BOND
     1    1    2 2
     2    1    3 1
     3    1    4 1
     4    1    8 1
     5    4   32 1
     6    5    6 2
     7    5    7 1
     8    5    8 1
     9    5   12 1
    10    9   10 2
    11    9   11 1
    12    9   12 1
    13    9   13 1
    14   13   14 1
    15   14   15 1
    16   14   33 1
    17   14   34 1
    18   15   16 1
    19   15   17 1
    20   15   35 1
    21   16   21 1
    22   17   18 1
    23   17   19 1
    24   17   36 1
    25   18   37 1
    26   19   20 1
    27   19   21 1
    28   19   38 1
    29   20   39 1
    30   21   22 1
    31   21   40 1
    32   22   23 ar
    33   22   31 ar
    34   23   24 ar
    35   23   41 1
    36   24   25 ar
    37   24   45 1
    38   25   26 ar
    39   25   31 ar
    40   26   27 2
    41   26   28 ar
    42   27   42 1
    43   28   29 ar
    44   28   44 1
    45   29   30 ar
    46   29   43 1
    47   30   31 ar
@<TRIPOS>SUBSTRUCTURE
     1 ATP         1 GROUP 0 A     ****
@<TRIPOS>MOLECULE
[[[3,4-dihydroxy-5-(6-imino-7,8-dihydro-1~{H}-purin-8-ylium-9-yl)tetrahydrofuran-2-yl]methoxy-oxido-phosphoryl]oxy-oxido-phosphoryl] hydrogen phosphate
   45    47     1     0     0
SMALL
USER_CHARGES

@<TRIPOS>ATOM
      1 PG          8.5387   -1.4604   -4.7195 P.3       1 ATP         1.5631
      2 O1G         8.3703   -2.3046   -5.9630 O.co2     1 ATP        -0.8806
      3 O2G         9.4995   -1.8707   -3.6257 O.co2     1 ATP        -0.8806
      4 O3G         8.8923    0.0675   -5.1738 O.3       1 ATP        -0.8165
      5 PB          6.0281   -2.2323   -3.3612 P.3       1 ATP         1.6877
      6 O1B         5.5110   -3.1813   -4.4192 O.co2     1 ATP        -0.8727
      7 O2B         6.6437   -2.7481   -2.0796 O.co2     1 ATP        -0.8727
      8 O3B         7.0710   -1.1881   -4.0596 O.3       1 ATP        -0.8330
      9 PA          3.9554   -0.2064   -3.9565 P.3       1 ATP         1.6036
     10 O1A         3.0908   -1.0733   -4.8460 O.co2     1 ATP        -0.9062
     11 O2A         4.8709    0.8412   -4.5514 O.co2     1 ATP        -0.9062
     12 O3A         4.8444   -1.1732   -2.9846 O.3       1 ATP        -0.8166
     13 O5'         3.0213    0.5153   -2.8245 O.3       1 ATP        -0.5510
     14 C5'         2.2816   -0.2918   -1.9206 C.3       1 ATP         0.2099
     15 C4'         2.7248    0.0226   -0.4980 C.3       1 ATP         0.0598
     16 O4'         2.4697    1.4219   -0.2462 O.3       1 ATP        -0.3455
     17 C3'         1.9404   -0.7419    0.5596 C.3       1 ATP         0.0742
     18 O3'         2.7418   -0.8086    1.7389 O.3       1 ATP        -0.6025
     19 C2'         0.7477    0.1630    0.7858 C.3       1 ATP         0.1145
     20 O2'         0.1373   -0.0577    2.0407 O.3       1 ATP        -0.5835
     21 C1'         1.3733    1.5427    0.6747 C.3       1 ATP         0.3776
     22 N9          0.4520    2.5240    0.1767 N.pl3     1 ATP        -0.4429
     23 C8          0.2216    2.8192   -1.0985 C.ar      1 ATP         0.2964
     24 N7         -0.6906    3.7763   -1.2384 N.pl3     1 ATP        -0.4957
     25 C5         -1.0575    4.1037    0.0366 C.ar      1 ATP        -0.1346
     26 C6         -2.0291    5.0943    0.5330 C.ar      1 ATP         0.7213
     27 N6         -2.7093    5.8371   -0.2800 N.2       1 ATP        -0.8215
     28 N1         -2.1051    5.1136    1.9204 N.pl3     1 ATP        -0.8455
     29 C2         -1.3354    4.2774    2.7129 C.ar      1 ATP         0.6477
     30 N3         -0.4707    3.3945    2.2944 N.2       1 ATP        -0.5707
     31 C4         -0.3734    3.3525    0.9220 C.ar      1 ATP         0.2637
     32 HOG3        9.0321    0.7418   -4.4752 H         1 ATP         0.4378
     33 H5'1        1.2163   -0.0770   -2.0471 H         1 ATP         0.0340
     34 H5'2        2.4655   -1.3443   -2.1563 H         1 ATP         0.0340
     35 H4'         3.8044   -0.1397   -0.4040 H         1 ATP         0.0910
     36 H3'         1.6764   -1.7639    0.2728 H         1 ATP         0.0656
     37 HO3'        2.2232   -1.2979    2.3953 H         1 ATP         0.4386
     38 H2'        -0.0011    0.0027    0.0003 H         1 ATP         0.0788
     39 HO2'       -0.6141    0.5574    2.1082 H         1 ATP         0.4363
     40 H1'         1.7826    1.9024    1.6451 H         1 ATP         0.1225
     41 H8          0.7125    2.3429   -1.9292 H         1 ATP         0.3824
     42 HN62       -3.3217    6.4517    0.2629 H         1 ATP         0.4018
     43 H2         -1.5188    4.4223    3.7890 H         1 ATP         0.0652
     44 H44        -2.7470    5.7626    2.3665 H         1 ATP         0.4503
     45 H45        -1.0305    4.1680   -2.1054 H         1 ATP         0.5209
@<TRIPOS>BOND
     1    1    2 2
     2    1    3 1
     3    1    4 1
     4    1    8 1
     5    4   32 1
     6    5    6 2
     7    5    7 1
     8    5    8 1
     9    5   12 1
    10    9   10 2
    11    9   11 1
    12    9   12 1
    13    9   13 1
    14   13   14 1
    15   14   15 1
    16   14   33 1
    17   14   34 1
    18   15   16 1
    19   15   17 1
    20   15   35 1
    21   16   21 1
    22   17   18 1
    23   17   19 1
    24   17   36 1
    25   18   37 1
    26   19   20 1
    27   19   21 1
    28   19   38 1
    29   20   39 1
    30   21   22 1
    31   21   40 1
    32   22   23 ar
    33   22   31 ar
    34   23   24 ar
    35   23   41 1
    36   24   25 ar
    37   24   45 1
    38   25   26 ar
    39   25   31 ar
    40   26   27 2
    41   26   28 ar
    42   27   42 1
    43   28   29 ar
    44   28   44 1
    45   29   30 ar
    46   29   43 1
    47   30   31 ar
@<TRIPOS>SUBSTRUCTURE
     1 ATP         1 GROUP 0 A     ****
@<TRIPOS>MOLECULE
[[[3,4-dihydroxy-5-(6-imino-7,8-dihydro-1~{H}-purin-8-ylium-9-yl)tetrahydrofuran-2-yl]methoxy-oxido-phosphoryl]oxy-oxido-phosphoryl] hydrogen phosphate
   45    47     1     0     0
SMALL
USER_CHARGES

@<TRIPOS>ATOM
      1 PG          2.3401   -0.2563   -8.4345 P.3       1 ATP         1.5631
      2 O1G         2.5967   -1.4760   -9.2913 O.co2     1 ATP        -0.8806
      3 O2G         3.2014    0.9802   -8.5647 O.co2     1 ATP        -0.8806
      4 O3G         0.7765    0.1803   -8.6089 O.3       1 ATP        -0.8165
      5 PB          1.4094   -1.8679   -6.1367 P.3       1 ATP         1.6877
      6 O1B        -0.0482   -1.4675   -6.1877 O.co2     1 ATP        -0.8727
      7 O2B         1.8688   -3.2184   -6.6394 O.co2     1 ATP        -0.8727
      8 O3B         2.2967   -0.7081   -6.8668 O.3       1 ATP        -0.8330
      9 PA          1.5544   -2.4558   -3.2404 P.3       1 ATP         1.6036
     10 O1A         2.0071   -3.8949   -3.3601 O.co2     1 ATP        -0.9062
     11 O2A         0.1180   -2.1225   -2.9010 O.co2     1 ATP        -0.9062
     12 O3A         1.9553   -1.6633   -4.6119 O.3       1 ATP        -0.8166
     13 O5'         2.5245   -1.6648   -2.1878 O.3       1 ATP        -0.5510
     14 C5'         2.2816   -0.2918   -1.9206 C.3       1 ATP         0.2099
     15 C4'         2.7248    0.0226   -0.4980 C.3       1 ATP         0.0598
     16 O4'         2.4697    1.4219   -0.2462 O.3       1 ATP        -0.3455
     17 C3'         1.9404   -0.7419    0.5596 C.3       1 ATP         0.0742
     18 O3'         2.7418   -0.8086    1.7389 O.3       1 ATP        -0.6025
     19 C2'         0.7477    0.1630    0.7858 C.3       1 ATP         0.1145
     20 O2'         0.1373   -0.0577    2.0407 O.3       1 ATP        -0.5835
     21 C1'         1.3733    1.5427    0.6747 C.3       1 ATP         0.3776
     22 N9          0.4520    2.5240    0.1767 N.pl3     1 ATP        -0.4429
     23 C8          0.2216    2.8192   -1.0985 C.ar      1 ATP         0.2964
     24 N7         -0.6906    3.7763   -1.2384 N.pl3     1 ATP        -0.4957
     25 C5         -1.0575    4.1037    0.0366 C.ar      1 ATP        -0.1346
     26 C6         -2.0291    5.0943    0.5330 C.ar      1 ATP         0.7213
     27 N6         -2.7093    5.8371   -0.2800 N.2       1 ATP        -0.8215
     28 N1         -2.1051    5.1136    1.9204 N.pl3     1 ATP        -0.8455
     29 C2         -1.3354    4.2774    2.7129 C.ar      1 ATP         0.6477
     30 N3         -0.4707    3.3945    2.2944 N.2       1 ATP        -0.5707
     31 C4         -0.3734    3.3525    0.9220 C.ar      1 ATP         0.2637
     32 HOG3        0.4518    0.9616   -8.1125 H         1 ATP         0.4378
     33 H5'1        2.8432    0.3119   -2.6398 H         1 ATP         0.0340
     34 H5'2        1.2128   -0.0927   -2.0428 H         1 ATP         0.0340
     35 H4'         3.8044   -0.1397   -0.4040 H         1 ATP         0.0910
     36 H3'         1.6764   -1.7639    0.2728 H         1 ATP         0.0656
     37 HO3'        2.2232   -1.2979    2.3953 H         1 ATP         0.4386
     38 H2'        -0.0011    0.0027    0.0003 H         1 ATP         0.0788
     39 HO2'       -0.6141    0.5574    2.1082 H         1 ATP         0.4363
     40 H1'         1.7826    1.9024    1.6451 H         1 ATP         0.1225
     41 H8          0.7125    2.3429   -1.9292 H         1 ATP         0.3824
     42 HN62       -3.3217    6.4517    0.2629 H         1 ATP         0.4018
     43 H2         -1.5188    4.4223    3.7890 H         1 ATP         0.0652
     44 H44        -2.7470    5.7626    2.3665 H         1 ATP         0.4503
     45 H45        -1.0305    4.1680   -2.1054 H         1 ATP         0.5209
@<TRIPOS>BOND
     1    1    2 2
     2    1    3 1
     3    1    4 1
     4    1    8 1
     5    4   32 1
     6    5    6 2
     7    5    7 1
     8    5    8 1
     9    5   12 1
    10    9   10 2
    11    9   11 1
    12    9   12 1
    13    9   13 1
    14   13   14 1
    15   14   15 1
    16   14   33 1
    17   14   34 1
    18   15   16 1
    19   15   17 1
    20   15   35 1
    21   16   21 1
    22   17   18 1
    23   17   19 1
    24   17   36 1
    25   18   37 1
    26   19   20 1
    27   19   21 1
    28   19   38 1
    29   20   39 1
    30   21   22 1
    31   21   40 1
    32   22   23 ar
    33   22   31 ar
    34   23   24 ar
    35   23   41 1
    36   24   25 ar
    37   24   45 1
    38   25   26 ar
    39   25   31 ar
    40   26   27 2
    41   26   28 ar
    42   27   42 1
    43   28   29 ar
    44   28   44 1
    45   29   30 ar
    46   29   43 1
    47   30   31 ar
@<TRIPOS>SUBSTRUCTURE
     1 ATP         1 GROUP 0 A     ****
@<TRIPOS>MOLECULE
[[[3,4-dihydroxy-5-(6-imino-7,8-dihydro-1~{H}-purin-8-ylium-9-yl)tetrahydrofuran-2-yl]methoxy-oxido-phosphoryl]oxy-oxido-phosphoryl] hydrogen phosphate
   45    47     1     0     0
SMALL
USER_CHARGES

@<TRIPOS>ATOM
      1 PG          2.1035    0.7429   -8.9107 P.3       1 ATP         1.5631
      2 O1G         2.4152   -0.5784   -9.5774 O.co2     1 ATP        -0.8806
      3 O2G         2.9017    1.9855   -9.2368 O.co2     1 ATP        -0.8806
      4 O3G         0.5192    1.0725   -9.1282 O.3       1 ATP        -0.8165
      5 PB          1.2668   -0.5462   -6.3844 P.3       1 ATP         1.6877
      6 O1B        -0.2090   -0.2286   -6.4760 O.co2     1 ATP        -0.8727
      7 O2B         1.7896   -1.9334   -6.6842 O.co2     1 ATP        -0.8727
      8 O3B         2.0914    0.5314   -7.2924 O.3       1 ATP        -0.8330
      9 PA          3.3343   -0.0514   -4.3264 P.3       1 ATP         1.6036
     10 O1A         4.1298    0.9787   -5.0986 O.co2     1 ATP        -0.9062
     11 O2A         3.8296   -1.4756   -4.2002 O.co2     1 ATP        -0.9062
     12 O3A         1.8106   -0.0877   -4.9151 O.3       1 ATP        -0.8166
     13 O5'         3.0213    0.5153   -2.8245 O.3       1 ATP        -0.5510
     14 C5'         2.2816   -0.2918   -1.9206 C.3       1 ATP         0.2099
     15 C4'         2.7248    0.0226   -0.4980 C.3       1 ATP         0.0598
     16 O4'         2.4697    1.4219   -0.2462 O.3       1 ATP        -0.3455
     17 C3'         1.9404   -0.7419    0.5596 C.3       1 ATP         0.0742
     18 O3'         2.7418   -0.8086    1.7389 O.3       1 ATP        -0.6025
     19 C2'         0.7477    0.1630    0.7858 C.3       1 ATP         0.1145
     20 O2'         0.1373   -0.0577    2.0407 O.3       1 ATP        -0.5835
     21 C1'         1.3733    1.5427    0.6747 C.3       1 ATP         0.3776
     22 N9          0.4520    2.5240    0.1767 N.pl3     1 ATP        -0.4429
     23 C8          0.2216    2.8192   -1.0985 C.ar      1 ATP         0.2964
     24 N7         -0.6906    3.7763   -1.2384 N.pl3     1 ATP        -0.4957
     25 C5         -1.0575    4.1037    0.0366 C.ar      1 ATP        -0.1346
     26 C6         -2.0291    5.0943    0.5330 C.ar      1 ATP         0.7213
     27 N6         -2.7093    5.8371   -0.2800 N.2       1 ATP        -0.8215
     28 N1         -2.1051    5.1136    1.9204 N.pl3     1 ATP        -0.8455
     29 C2         -1.3354    4.2774    2.7129 C.ar      1 ATP         0.6477
     30 N3         -0.4707    3.3945    2.2944 N.2       1 ATP        -0.5707
     31 C4         -0.3734    3.3525    0.9220 C.ar      1 ATP         0.2637
     32 HOG3        0.1590    1.9033   -8.7508 H         1 ATP         0.4378
     33 H5'1        1.2163   -0.0770   -2.0471 H         1 ATP         0.0340
     34 H5'2        2.4655   -1.3443   -2.1563 H         1 ATP         0.0340
     35 H4'         3.8044   -0.1397   -0.4040 H         1 ATP         0.0910
     36 H3'         1.6764   -1.7639    0.2728 H         1 ATP         0.0656
     37 HO3'        2.2232   -1.2979    2.3953 H         1 ATP         0.4386
     38 H2'        -0.0011    0.0027    0.0003 H         1 ATP         0.0788
     39 HO2'       -0.6141    0.5574    2.1082 H         1 ATP         0.4363
     40 H1'         1.7826    1.9024    1.6451 H         1 ATP         0.1225
     41 H8          0.7125    2.3429   -1.9292 H         1 ATP         0.3824
     42 HN62       -3.3217    6.4517    0.2629 H         1 ATP         0.4018
     43 H2         -1.5188    4.4223    3.7890 H         1 ATP         0.0652
     44 H44        -2.7470    5.7626    2.3665 H         1 ATP         0.4503
     45 H45        -1.0305    4.1680   -2.1054 H         1 ATP         0.5209
@<TRIPOS>BOND
     1    1    2 2
     2    1    3 1
     3    1    4 1
     4    1    8 1
     5    4   32 1
     6    5    6 2
     7    5    7 1
     8    5    8 1
     9    5   12 1
    10    9   10 2
    11    9   11 1
    12    9   12 1
    13    9   13 1
    14   13   14 1
    15   14   15 1
    16   14   33 1
    17   14   34 1
    18   15   16 1
    19   15   17 1
    20   15   35 1
    21   16   21 1
    22   17   18 1
    23   17   19 1
    24   17   36 1
    25   18   37 1
    26   19   20 1
    27   19   21 1
    28   19   38 1
    29   20   39 1
    30   21   22 1
    31   21   40 1
    32   22   23 ar
    33   22   31 ar
    34   23   24 ar
    35   23   41 1
    36   24   25 ar
    37   24   45 1
    38   25   26 ar
    39   25   31 ar
    40   26   27 2
    41   26   28 ar
    42   27   42 1
    43   28   29 ar
    44   28   44 1
    45   29   30 ar
    46   29   43 1
    47   30   31 ar
@<TRIPOS>SUBSTRUCTURE
     1 ATP         1 GROUP 0 A     ****
@<TRIPOS>MOLECULE
[[[3,4-dihydroxy-5-(6-imino-7,8-dihydro-1~{H}-purin-8-ylium-9-yl)tetrahydrofuran-2-yl]methoxy-oxido-phosphoryl]oxy-oxido-phosphoryl] hydrogen phosphate
   45    47     1     0     0
SMALL
USER_CHARGES

@<TRIPOS>ATOM
      1 PG          8.7936   -0.3505   -2.0842 P.3       1 ATP         1.5631
      2 O1G         9.1390    0.6957   -3.1203 O.co2     1 ATP        -0.8806
      3 O2G         9.6037   -1.6221   -1.9634 O.co2     1 ATP        -0.8806
      4 O3G         8.7367    0.3690   -0.6196 O.3       1 ATP        -0.8165
      5 PB          6.4334   -1.5035   -3.4420 P.3       1 ATP         1.6877
      6 O1B         6.4508   -0.6140   -4.6651 O.co2     1 ATP        -0.8727
      7 O2B         6.9185   -2.9346   -3.5071 O.co2     1 ATP        -0.8727
      8 O3B         7.2154   -0.7405   -2.2287 O.3       1 ATP        -0.8330
      9 PA          3.5300   -2.0730   -3.4114 P.3       1 ATP         1.6036
     10 O1A         3.6301   -3.5805   -3.5006 O.co2     1 ATP        -0.9062
     11 O2A         3.1564   -1.2495   -4.6246 O.co2     1 ATP        -0.9062
     12 O3A         4.9303   -1.4885   -2.8054 O.3       1 ATP        -0.8166
     13 O5'         2.5245   -1.6648   -2.1878 O.3       1 ATP        -0.5510
     14 C5'         2.2816   -0.2918   -1.9206 C.3       1 ATP         0.2099
     15 C4'         2.7248    0.0226   -0.4980 C.3       1 ATP         0.0598
     16 O4'         2.4697    1.4219   -0.2462 O.3       1 ATP        -0.3455
     17 C3'         1.9404   -0.7419    0.5596 C.3       1 ATP         0.0742
     18 O3'         2.7418   -0.8086    1.7389 O.3       1 ATP        -0.6025
     19 C2'         0.7477    0.1630    0.7858 C.3       1 ATP         0.1145
     20 O2'         0.1373   -0.0577    2.0407 O.3       1 ATP        -0.5835
     21 C1'         1.3733    1.5427    0.6747 C.3       1 ATP         0.3776
     22 N9          0.4520    2.5240    0.1767 N.pl3     1 ATP        -0.4429
     23 C8          0.2216    2.8192   -1.0985 C.ar      1 ATP         0.2964
     24 N7         -0.6906    3.7763   -1.2384 N.pl3     1 ATP        -0.4957
     25 C5         -1.0575    4.1037    0.0366 C.ar      1 ATP        -0.1346
     26 C6         -2.0291    5.0943    0.5330 C.ar      1 ATP         0.7213
     27 N6         -2.7093    5.8371   -0.2800 N.2       1 ATP        -0.8215
     28 N1         -2.1051    5.1136    1.9204 N.pl3     1 ATP        -0.8455
     29 C2         -1.3354    4.2774    2.7129 C.ar      1 ATP         0.6477
     30 N3         -0.4707    3.3945    2.2944 N.2       1 ATP        -0.5707
     31 C4         -0.3734    3.3525    0.9220 C.ar      1 ATP         0.2637
     32 HOG3        8.5227   -0.1819    0.1633 H         1 ATP         0.4378
     33 H5'1        2.8432    0.3119   -2.6398 H         1 ATP         0.0340
     34 H5'2        1.2128   -0.0927   -2.0428 H         1 ATP         0.0340
     35 H4'         3.8044   -0.1397   -0.4040 H         1 ATP         0.0910
     36 H3'         1.6764   -1.7639    0.2728 H         1 ATP         0.0656
     37 HO3'        2.2232   -1.2979    2.3953 H         1 ATP         0.4386
     38 H2'        -0.0011    0.0027    0.0003 H         1 ATP         0.0788
     39 HO2'       -0.6141    0.5574    2.1082 H         1 ATP         0.4363
     40 H1'         1.7826    1.9024    1.6451 H         1 ATP         0.1225
     41 H8          0.7125    2.3429   -1.9292 H         1 ATP         0.3824
     42 HN62       -3.3217    6.4517    0.2629 H         1 ATP         0.4018
     43 H2         -1.5188    4.4223    3.7890 H         1 ATP         0.0652
     44 H44        -2.7470    5.7626    2.3665 H         1 ATP         0.4503
     45 H45        -1.0305    4.1680   -2.1054 H         1 ATP         0.5209
@<TRIPOS>BOND
     1    1    2 2
     2    1    3 1
     3    1    4 1
     4    1    8 1
     5    4   32 1
     6    5    6 2
     7    5    7 1
     8    5    8 1
     9    5   12 1
    10    9   10 2
    11    9   11 1
    12    9   12 1
    13    9   13 1
    14   13   14 1
    15   14   15 1
    16   14   33 1
    17   14   34 1
    18   15   16 1
    19   15   17 1
    20   15   35 1
    21   16   21 1
    22   17   18 1
    23   17   19 1
    24   17   36 1
    25   18   37 1
    26   19   20 1
    27   19   21 1
    28   19   38 1
    29   20   39 1
    30   21   22 1
    31   21   40 1
    32   22   23 ar
    33   22   31 ar
    34   23   24 ar
    35   23   41 1
    36   24   25 ar
    37   24   45 1
    38   25   26 ar
    39   25   31 ar
    40   26   27 2
    41   26   28 ar
    42   27   42 1
    43   28   29 ar
    44   28   44 1
    45   29   30 ar
    46   29   43 1
    47   30   31 ar
@<TRIPOS>SUBSTRUCTURE
     1 ATP         1 GROUP 0 A     ****
@<TRIPOS>MOLECULE
[[[3,4-dihydroxy-5-(6-imino-7,8-dihydro-1~{H}-purin-8-ylium-9-yl)tetrahydrofuran-2-yl]methoxy-oxido-phosphoryl]oxy-oxido-phosphoryl] hydrogen phosphate
   45    47     1     0     0
SMALL
USER_CHARGES

@<TRIPOS>ATOM
      1 PG         -1.2673    3.1956   -6.1252 P.3       1 ATP         1.5631
      2 O1G        -0.6961    3.9361   -7.3138 O.co2     1 ATP        -0.8806
      3 O2G        -2.0698    3.9225   -5.0691 O.co2     1 ATP        -0.8806
      4 O3G        -2.1518    1.9377   -6.6740 O.3       1 ATP        -0.8165
      5 PB          0.9889    1.2869   -6.0263 P.3       1 ATP         1.6877
      6 O1B         0.2301    0.0558   -6.4691 O.co2     1 ATP        -0.8727
      7 O2B         1.9135    2.0199   -6.9726 O.co2     1 ATP        -0.8727
      8 O3B        -0.0714    2.3571   -5.3969 O.3       1 ATP        -0.8330
      9 PA          3.0675   -0.0857   -4.4293 P.3       1 ATP         1.6036
     10 O1A         4.2683    0.4444   -5.1827 O.co2     1 ATP        -0.9062
     11 O2A         2.5798   -1.5012   -4.6487 O.co2     1 ATP        -0.9062
     12 O3A         1.8107    0.9323   -4.6611 O.3       1 ATP        -0.8166
     13 O5'         3.2903    0.1346   -2.8241 O.3       1 ATP        -0.5510
     14 C5'         2.2816   -0.2918   -1.9206 C.3       1 ATP         0.2099
     15 C4'         2.7248    0.0226   -0.4980 C.3       1 ATP         0.0598
     16 O4'         2.4697    1.4219   -0.2462 O.3       1 ATP        -0.3455
     17 C3'         1.9404   -0.7419    0.5596 C.3       1 ATP         0.0742
     18 O3'         2.7418   -0.8086    1.7389 O.3       1 ATP        -0.6025
     19 C2'         0.7477    0.1630    0.7858 C.3       1 ATP         0.1145
     20 O2'         0.1373   -0.0577    2.0407 O.3       1 ATP        -0.5835
     21 C1'         1.3733    1.5427    0.6747 C.3       1 ATP         0.3776
     22 N9          0.4520    2.5240    0.1767 N.pl3     1 ATP        -0.4429
     23 C8         -0.6821    2.9098    0.7521 C.ar      1 ATP         0.2964
     24 N7         -1.3175    3.8384    0.0437 N.pl3     1 ATP        -0.4957
     25 C5         -0.5274    4.0494   -1.0512 C.ar      1 ATP        -0.1346
     26 C6         -0.6966    4.9597   -2.1977 C.ar      1 ATP         0.7213
     27 N6         -1.7259    5.7385   -2.2937 N.2       1 ATP        -0.8215
     28 N1          0.3493    4.8663   -3.1079 N.pl3     1 ATP        -0.8455
     29 C2          1.4148    4.0005   -2.9208 C.ar      1 ATP         0.6477
     30 N3          1.5838    3.1876   -1.9144 N.2       1 ATP        -0.5707
     31 C4          0.5619    3.2578   -0.9949 C.ar      1 ATP         0.2637
     32 HOG3       -2.5919    1.3552   -6.0187 H         1 ATP         0.4378
     33 H5'1        1.3514    0.2330   -2.1577 H         1 ATP         0.0340
     34 H5'2        2.1280   -1.3678   -2.0460 H         1 ATP         0.0340
     35 H4'         3.8044   -0.1397   -0.4040 H         1 ATP         0.0910
     36 H3'         1.6764   -1.7639    0.2728 H         1 ATP         0.0656
     37 HO3'        3.5554   -1.2733    1.4914 H         1 ATP         0.4386
     38 H2'        -0.0011    0.0027    0.0003 H         1 ATP         0.0788
     39 HO2'        0.8082    0.1199    2.7232 H         1 ATP         0.4363
     40 H1'         1.7826    1.9024    1.6451 H         1 ATP         0.1225
     41 H8         -1.0516    2.5207    1.6849 H         1 ATP         0.3824
     42 HN62       -1.6520    6.2842   -3.1564 H         1 ATP         0.4018
     43 H2          2.1542    4.0525   -3.7351 H         1 ATP         0.0652
     44 H44         0.3306    5.4533   -3.9370 H         1 ATP         0.4503
     45 H45        -2.1941    4.2838    0.2756 H         1 ATP         0.5209
@<TRIPOS>BOND
     1    1    2 2
     2    1    3 1
     3    1    4 1
     4    1    8 1
     5    4   32 1
     6    5    6 2
     7    5    7 1
     8    5    8 1
     9    5   12 1
    10    9   10 2
    11    9   11 1
    12    9   12 1
    13    9   13 1
    14   13   14 1
    15   14   15 1
    16   14   33 1
    17   14   34 1
    18   15   16 1
    19   15   17 1
    20   15   35 1
    21   16   21 1
    22   17   18 1
    23   17   19 1
    24   17   36 1
    25   18   37 1
    26   19   20 1
    27   19   21 1
    28   19   38 1
    29   20   39 1
    30   21   22 1
    31   21   40 1
    32   22   23 ar
    33   22   31 ar
    34   23   24 ar
    35   23   41 1
    36   24   25 ar
    37   24   45 1
    38   25   26 ar
    39   25   31 ar
    40   26   27 2
    41   26   28 ar
    42   27   42 1
    43   28   29 ar
    44   28   44 1
    45   29   30 ar
    46   29   43 1
    47   30   31 ar
@<TRIPOS>SUBSTRUCTURE
     1 ATP         1 GROUP 0 A     ****
@<TRIPOS>MOLECULE
[[[3,4-dihydroxy-5-(6-imino-7,8-dihydro-1~{H}-purin-8-ylium-9-yl)tetrahydrofuran-2-yl]methoxy-oxido-phosphoryl]oxy-oxido-phosphoryl] hydrogen phosphate
   45    47     1     0     0
SMALL
USER_CHARGES

@<TRIPOS>ATOM
      1 PG          4.5299   -0.3246   -7.8551 P.3       1 ATP         1.5631
      2 O1G         3.3273    0.4312   -8.3750 O.co2     1 ATP        -0.8806
      3 O2G         5.0467   -1.5515   -8.5729 O.co2     1 ATP        -0.8806
      4 O3G         5.7647    0.7279   -7.6727 O.3       1 ATP        -0.8165
      5 PB          5.3053   -1.3616   -5.1968 P.3       1 ATP         1.6877
      6 O1B         5.5928   -2.7869   -5.6132 O.co2     1 ATP        -0.8727
      7 O2B         6.4265   -0.3851   -4.9196 O.co2     1 ATP        -0.8727
      8 O3B         4.2866   -0.6940   -6.2841 O.3       1 ATP        -0.8330
      9 PA          2.8603   -2.1317   -3.7189 P.3       1 ATP         1.6036
     10 O1A         3.0799   -3.6286   -3.7531 O.co2     1 ATP        -0.9062
     11 O2A         1.8581   -1.4755   -4.6434 O.co2     1 ATP        -0.9062
     12 O3A         4.3010   -1.3849   -3.9101 O.3       1 ATP        -0.8166
     13 O5'         2.5245   -1.6648   -2.1878 O.3       1 ATP        -0.5510
     14 C5'         2.2816   -0.2918   -1.9206 C.3       1 ATP         0.2099
     15 C4'         2.7248    0.0226   -0.4980 C.3       1 ATP         0.0598
     16 O4'         2.4697    1.4219   -0.2462 O.3       1 ATP        -0.3455
     17 C3'         1.9404   -0.7419    0.5596 C.3       1 ATP         0.0742
     18 O3'         2.7418   -0.8086    1.7389 O.3       1 ATP        -0.6025
     19 C2'         0.7477    0.1630    0.7858 C.3       1 ATP         0.1145
     20 O2'         0.1373   -0.0577    2.0407 O.3       1 ATP        -0.5835
     21 C1'         1.3733    1.5427    0.6747 C.3       1 ATP         0.3776
     22 N9          0.4520    2.5240    0.1767 N.pl3     1 ATP        -0.4429
     23 C8          0.2216    2.8192   -1.0985 C.ar      1 ATP         0.2964
     24 N7         -0.6906    3.7763   -1.2384 N.pl3     1 ATP        -0.4957
     25 C5         -1.0575    4.1037    0.0366 C.ar      1 ATP        -0.1346
     26 C6         -2.0291    5.0943    0.5330 C.ar      1 ATP         0.7213
     27 N6         -2.7093    5.8371   -0.2800 N.2       1 ATP        -0.8215
     28 N1         -2.1051    5.1136    1.9204 N.pl3     1 ATP        -0.8455
     29 C2         -1.3354    4.2774    2.7129 C.ar      1 ATP         0.6477
     30 N3         -0.4707    3.3945    2.2944 N.2       1 ATP        -0.5707
     31 C4         -0.3734    3.3525    0.9220 C.ar      1 ATP         0.2637
     32 HOG3        6.6227    0.3880   -7.3401 H         1 ATP         0.4378
     33 H5'1        2.8432    0.3119   -2.6398 H         1 ATP         0.0340
     34 H5'2        1.2128   -0.0927   -2.0428 H         1 ATP         0.0340
     35 H4'         3.8044   -0.1397   -0.4040 H         1 ATP         0.0910
     36 H3'         1.6764   -1.7639    0.2728 H         1 ATP         0.0656
     37 HO3'        2.2232   -1.2979    2.3953 H         1 ATP         0.4386
     38 H2'        -0.0011    0.0027    0.0003 H         1 ATP         0.0788
     39 HO2'       -0.6141    0.5574    2.1082 H         1 ATP         0.4363
     40 H1'         1.7826    1.9024    1.6451 H         1 ATP         0.1225
     41 H8          0.7125    2.3429   -1.9292 H         1 ATP         0.3824
     42 HN62       -3.3217    6.4517    0.2629 H         1 ATP         0.4018
     43 H2         -1.5188    4.4223    3.7890 H         1 ATP         0.0652
     44 H44        -2.7470    5.7626    2.3665 H         1 ATP         0.4503
     45 H45        -1.0305    4.1680   -2.1054 H         1 ATP         0.5209
@<TRIPOS>BOND
     1    1    2 2
     2    1    3 1
     3    1    4 1
     4    1    8 1
     5    4   32 1
     6    5    6 2
     7    5    7 1
     8    5    8 1
     9    5   12 1
    10    9   10 2
    11    9   11 1
    12    9   12 1
    13    9   13 1
    14   13   14 1
    15   14   15 1
    16   14   33 1
    17   14   34 1
    18   15   16 1
    19   15   17 1
    20   15   35 1
    21   16   21 1
    22   17   18 1
    23   17   19 1
    24   17   36 1
    25   18   37 1
    26   19   20 1
    27   19   21 1
    28   19   38 1
    29   20   39 1
    30   21   22 1
    31   21   40 1
    32   22   23 ar
    33   22   31 ar
    34   23   24 ar
    35   23   41 1
    36   24   25 ar
    37   24   45 1
    38   25   26 ar
    39   25   31 ar
    40   26   27 2
    41   26   28 ar
    42   27   42 1
    43   28   29 ar
    44   28   44 1
    45   29   30 ar
    46   29   43 1
    47   30   31 ar
@<TRIPOS>SUBSTRUCTURE
     1 ATP         1 GROUP 0 A     ****
@<TRIPOS>MOLECULE
[[[3,4-dihydroxy-5-(6-imino-7,8-dihydro-1~{H}-purin-8-ylium-9-yl)tetrahydrofuran-2-yl]methoxy-oxido-phosphoryl]oxy-oxido-phosphoryl] hydrogen phosphate
   45    47     1     0     0
SMALL
USER_CHARGES

@<TRIPOS>ATOM
      1 PG         -1.4282   -1.5625   -6.9103 P.3       1 ATP         1.5631
      2 O1G        -1.0979   -0.6601   -8.0782 O.co2     1 ATP        -0.8806
      3 O2G        -2.7120   -1.3859   -6.1304 O.co2     1 ATP        -0.8806
      4 O3G        -1.3349   -3.1138   -7.4110 O.3       1 ATP        -0.8165
      5 PB          1.4094   -1.8679   -6.1367 P.3       1 ATP         1.6877
      6 O1B         1.5655   -3.3236   -6.5163 O.co2     1 ATP        -0.8727
      7 O2B         1.9742   -0.7667   -7.0062 O.co2     1 ATP        -0.8727
      8 O3B        -0.1721   -1.5638   -5.8682 O.3       1 ATP        -0.8330
      9 PA          1.5544   -2.4558   -3.2404 P.3       1 ATP         1.6036
     10 O1A         2.0071   -3.8949   -3.3601 O.co2     1 ATP        -0.9062
     11 O2A         0.1180   -2.1225   -2.9010 O.co2     1 ATP        -0.9062
     12 O3A         1.9553   -1.6633   -4.6119 O.3       1 ATP        -0.8166
     13 O5'         2.5245   -1.6648   -2.1878 O.3       1 ATP        -0.5510
     14 C5'         2.2816   -0.2918   -1.9206 C.3       1 ATP         0.2099
     15 C4'         2.7248    0.0226   -0.4980 C.3       1 ATP         0.0598
     16 O4'         2.4697    1.4219   -0.2462 O.3       1 ATP        -0.3455
     17 C3'         1.9404   -0.7419    0.5596 C.3       1 ATP         0.0742
     18 O3'         2.7418   -0.8086    1.7389 O.3       1 ATP        -0.6025
     19 C2'         0.7477    0.1630    0.7858 C.3       1 ATP         0.1145
     20 O2'         0.1373   -0.0577    2.0407 O.3       1 ATP        -0.5835
     21 C1'         1.3733    1.5427    0.6747 C.3       1 ATP         0.3776
     22 N9          0.4520    2.5240    0.1767 N.pl3     1 ATP        -0.4429
     23 C8          0.2216    2.8192   -1.0985 C.ar      1 ATP         0.2964
     24 N7         -0.6906    3.7763   -1.2384 N.pl3     1 ATP        -0.4957
     25 C5         -1.0575    4.1037    0.0366 C.ar      1 ATP        -0.1346
     26 C6         -2.0291    5.0943    0.5330 C.ar      1 ATP         0.7213
     27 N6         -2.7093    5.8371   -0.2800 N.2       1 ATP        -0.8215
     28 N1         -2.1051    5.1136    1.9204 N.pl3     1 ATP        -0.8455
     29 C2         -1.3354    4.2774    2.7129 C.ar      1 ATP         0.6477
     30 N3         -0.4707    3.3945    2.2944 N.2       1 ATP        -0.5707
     31 C4         -0.3734    3.3525    0.9220 C.ar      1 ATP         0.2637
     32 HOG3       -1.5234   -3.8257   -6.7629 H         1 ATP         0.4378
     33 H5'1        2.8432    0.3119   -2.6398 H         1 ATP         0.0340
     34 H5'2        1.2128   -0.0927   -2.0428 H         1 ATP         0.0340
     35 H4'         3.8044   -0.1397   -0.4040 H         1 ATP         0.0910
     36 H3'         1.6764   -1.7639    0.2728 H         1 ATP         0.0656
     37 HO3'        2.2232   -1.2979    2.3953 H         1 ATP         0.4386
     38 H2'        -0.0011    0.0027    0.0003 H         1 ATP         0.0788
     39 HO2'       -0.6141    0.5574    2.1082 H         1 ATP         0.4363
     40 H1'         1.7826    1.9024    1.6451 H         1 ATP         0.1225
     41 H8          0.7125    2.3429   -1.9292 H         1 ATP         0.3824
     42 HN62       -3.3217    6.4517    0.2629 H         1 ATP         0.4018
     43 H2         -1.5188    4.4223    3.7890 H         1 ATP         0.0652
     44 H44        -2.7470    5.7626    2.3665 H         1 ATP         0.4503
     45 H45        -1.0305    4.1680   -2.1054 H         1 ATP         0.5209
@<TRIPOS>BOND
     1    1    2 2
     2    1    3 1
     3    1    4 1
     4    1    8 1
     5    4   32 1
     6    5    6 2
     7    5    7 1
     8    5    8 1
     9    5   12 1
    10    9   10 2
    11    9   11 1
    12    9   12 1
    13    9   13 1
    14   13   14 1
    15   14   15 1
    16   14   33 1
    17   14   34 1
    18   15   16 1
    19   15   17 1
    20   15   35 1
    21   16   21 1
    22   17   18 1
    23   17   19 1
    24   17   36 1
    25   18   37 1
    26   19   20 1
    27   19   21 1
    28   19   38 1
    29   20   39 1
    30   21   22 1
    31   21   40 1
    32   22   23 ar
    33   22   31 ar
    34   23   24 ar
    35   23   41 1
    36   24   25 ar
    37   24   45 1
    38   25   26 ar
    39   25   31 ar
    40   26   27 2
    41   26   28 ar
    42   27   42 1
    43   28   29 ar
    44   28   44 1
    45   29   30 ar
    46   29   43 1
    47   30   31 ar
@<TRIPOS>SUBSTRUCTURE
     1 ATP         1 GROUP 0 A     ****
@<TRIPOS>MOLECULE
[[[3,4-dihydroxy-5-(6-imino-7,8-dihydro-1~{H}-purin-8-ylium-9-yl)tetrahydrofuran-2-yl]methoxy-oxido-phosphoryl]oxy-oxido-phosphoryl] hydrogen phosphate
   45    47     1     0     0
SMALL
USER_CHARGES

@<TRIPOS>ATOM
      1 PG          5.5130    0.1349   -7.5608 P.3       1 ATP         1.5631
      2 O1G         4.5826    0.9272   -8.4519 O.co2     1 ATP        -0.8806
      3 O2G         6.3416   -1.0016   -8.1172 O.co2     1 ATP        -0.8806
      4 O3G         6.5100    1.1769   -6.7952 O.3       1 ATP        -0.8165
      5 PB          3.4664   -1.4950   -6.1831 P.3       1 ATP         1.6877
      6 O1B         2.2520   -0.9254   -6.8820 O.co2     1 ATP        -0.8727
      7 O2B         4.0141   -2.8564   -6.5492 O.co2     1 ATP        -0.8727
      8 O3B         4.6779   -0.4037   -6.2661 O.3       1 ATP        -0.8330
      9 PA          2.1372   -2.2718   -3.6563 P.3       1 ATP         1.6036
     10 O1A         2.4859   -3.7437   -3.7017 O.co2     1 ATP        -0.9062
     11 O2A         0.7459   -1.7951   -4.0125 O.co2     1 ATP        -0.9062
     12 O3A         3.2120   -1.4489   -4.5713 O.3       1 ATP        -0.8166
     13 O5'         2.5245   -1.6648   -2.1878 O.3       1 ATP        -0.5510
     14 C5'         2.2816   -0.2918   -1.9206 C.3       1 ATP         0.2099
     15 C4'         2.7248    0.0226   -0.4980 C.3       1 ATP         0.0598
     16 O4'         2.4697    1.4219   -0.2462 O.3       1 ATP        -0.3455
     17 C3'         1.9404   -0.7419    0.5596 C.3       1 ATP         0.0742
     18 O3'         2.7418   -0.8086    1.7389 O.3       1 ATP        -0.6025
     19 C2'         0.7477    0.1630    0.7858 C.3       1 ATP         0.1145
     20 O2'         0.1373   -0.0577    2.0407 O.3       1 ATP        -0.5835
     21 C1'         1.3733    1.5427    0.6747 C.3       1 ATP         0.3776
     22 N9          0.4520    2.5240    0.1767 N.pl3     1 ATP        -0.4429
     23 C8         -0.2004    2.4829   -0.9804 C.ar      1 ATP         0.2964
     24 N7         -0.9830    3.5431   -1.1568 N.pl3     1 ATP        -0.4957
     25 C5         -0.8095    4.3012   -0.0331 C.ar      1 ATP        -0.1346
     26 C6         -1.4065    5.5904    0.3585 C.ar      1 ATP         0.7213
     27 N6         -2.2501    6.2030   -0.4084 N.2       1 ATP        -0.8215
     28 N1         -0.9585    6.0272    1.5994 N.pl3     1 ATP        -0.8455
     29 C2         -0.0508    5.3009    2.3532 C.ar      1 ATP         0.6477
     30 N3          0.4890    4.1592    2.0257 N.2       1 ATP        -0.5707
     31 C4          0.0637    3.7006    0.7995 C.ar      1 ATP         0.2637
     32 HOG3        7.1784    0.8139   -6.1757 H         1 ATP         0.4378
     33 H5'1        2.8432    0.3119   -2.6398 H         1 ATP         0.0340
     34 H5'2        1.2128   -0.0927   -2.0428 H         1 ATP         0.0340
     35 H4'         3.8044   -0.1397   -0.4040 H         1 ATP         0.0910
     36 H3'         1.6764   -1.7639    0.2728 H         1 ATP         0.0656
     37 HO3'        2.2232   -1.2979    2.3953 H         1 ATP         0.4386
     38 H2'        -0.0011    0.0027    0.0003 H         1 ATP         0.0788
     39 HO2'       -0.1563   -0.9855    2.0596 H         1 ATP         0.4363
     40 H1'         1.7826    1.9024    1.6451 H         1 ATP         0.1225
     41 H8         -0.1116    1.6863   -1.6984 H         1 ATP         0.3824
     42 HN62       -2.5420    7.0730    0.0447 H         1 ATP         0.4018
     43 H2          0.1969    5.7893    3.3086 H         1 ATP         0.0652
     44 H44        -1.3097    6.9080    1.9642 H         1 ATP         0.4503
     45 H45        -1.5735    3.7351   -1.9538 H         1 ATP         0.5209
@<TRIPOS>BOND
     1    1    2 2
     2    1    3 1
     3    1    4 1
     4    1    8 1
     5    4   32 1
     6    5    6 2
     7    5    7 1
     8    5    8 1
     9    5   12 1
    10    9   10 2
    11    9   11 1
    12    9   12 1
    13    9   13 1
    14   13   14 1
    15   14   15 1
    16   14   33 1
    17   14   34 1
    18   15   16 1
    19   15   17 1
    20   15   35 1
    21   16   21 1
    22   17   18 1
    23   17   19 1
    24   17   36 1
    25   18   37 1
    26   19   20 1
    27   19   21 1
    28   19   38 1
    29   20   39 1
    30   21   22 1
    31   21   40 1
    32   22   23 ar
    33   22   31 ar
    34   23   24 ar
    35   23   41 1
    36   24   25 ar
    37   24   45 1
    38   25   26 ar
    39   25   31 ar
    40   26   27 2
    41   26   28 ar
    42   27   42 1
    43   28   29 ar
    44   28   44 1
    45   29   30 ar
    46   29   43 1
    47   30   31 ar
@<TRIPOS>SUBSTRUCTURE
     1 ATP         1 GROUP 0 A     ****
@<TRIPOS>MOLECULE
[[[3,4-dihydroxy-5-(6-imino-7,8-dihydro-1~{H}-purin-8-ylium-9-yl)tetrahydrofuran-2-yl]methoxy-oxido-phosphoryl]oxy-oxido-phosphoryl] hydrogen phosphate
   45    47     1     0     0
SMALL
USER_CHARGES

@<TRIPOS>ATOM
      1 PG         -6.0221   -4.5244    1.5863 P.3       1 ATP         1.5631
      2 O1G        -6.8635   -5.6556    1.0388 O.co2     1 ATP        -0.8806
      3 O2G        -4.8217   -4.0091    0.8239 O.co2     1 ATP        -0.8806
      4 O3G        -7.0035   -3.2634    1.9218 O.3       1 ATP        -0.8165
      5 PB         -4.5615   -6.0640    3.6453 P.3       1 ATP         1.6877
      6 O1B        -4.3386   -5.8699    5.1286 O.co2     1 ATP        -0.8727
      7 O2B        -5.0269   -7.3917    3.0902 O.co2     1 ATP        -0.8727
      8 O3B        -5.5637   -4.8921    3.1089 O.3       1 ATP        -0.8330
      9 PA         -1.7207   -6.2770    2.8455 P.3       1 ATP         1.6036
     10 O1A        -1.8040   -7.6470    2.2080 O.co2     1 ATP        -0.9062
     11 O2A        -1.1163   -6.0995    4.2214 O.co2     1 ATP        -0.9062
     12 O3A        -3.2113   -5.6078    2.8492 O.3       1 ATP        -0.8166
     13 O5'        -0.9724   -5.2440    1.8220 O.3       1 ATP        -0.5510
     14 C5'        -0.7840   -3.8935    2.2172 C.3       1 ATP         0.2099
     15 C4'        -0.0724   -3.1466    1.1027 C.3       1 ATP         0.0598
     16 O4'        -0.8674   -3.1929   -0.0945 O.3       1 ATP        -0.3455
     17 C3'         0.1338   -1.6715    1.4027 C.3       1 ATP         0.0742
     18 O3'         1.2893   -1.4445    2.1808 O.3       1 ATP        -0.6025
     19 C2'         0.2158   -1.0724    0.0128 C.3       1 ATP         0.1145
     20 O2'         1.5141   -1.2448   -0.5513 O.3       1 ATP        -0.5835
     21 C1'        -0.7897   -1.9176   -0.7583 C.3       1 ATP         0.3776
     22 N9         -2.1040   -1.3333   -0.7704 N.pl3     1 ATP        -0.4429
     23 C8         -3.0590   -1.5123    0.1363 C.ar      1 ATP         0.2964
     24 N7         -4.1655   -0.8354   -0.1554 N.pl3     1 ATP        -0.4957
     25 C5         -3.8852   -0.1874   -1.3253 C.ar      1 ATP        -0.1346
     26 C6         -4.7113    0.7160   -2.1458 C.ar      1 ATP         0.7213
     27 N6         -5.9213    1.0209   -1.8021 N.2       1 ATP        -0.8215
     28 N1         -4.0411    1.1673   -3.2764 N.pl3     1 ATP        -0.8455
     29 C2         -2.7403    0.7865   -3.5638 C.ar      1 ATP         0.6477
     30 N3         -1.9921   -0.0108   -2.8519 N.2       1 ATP        -0.5707
     31 C4         -2.6302   -0.4747   -1.7239 C.ar      1 ATP         0.2637
     32 HOG3       -6.6043   -2.4455    2.2877 H         1 ATP         0.4378
     33 H5'1       -1.7618   -3.4448    2.4164 H         1 ATP         0.0340
     34 H5'2       -0.1874   -3.8744    3.1341 H         1 ATP         0.0340
     35 H4'         0.8874   -3.6466    0.8805 H         1 ATP         0.0910
     36 H3'        -0.7376   -1.2333    1.9867 H         1 ATP         0.0656
     37 HO3'        1.3408   -0.4870    2.3219 H         1 ATP         0.4386
     38 H2'        -0.0384   -0.0310    0.0096 H         1 ATP         0.0788
     39 HO2'        2.1463   -0.7958    0.0370 H         1 ATP         0.4363
     40 H1'        -0.4769   -2.1002   -1.8093 H         1 ATP         0.1225
     41 H8         -2.9569   -2.1323    1.0098 H         1 ATP         0.3824
     42 HN62       -6.3169    1.6552   -2.5012 H         1 ATP         0.4018
     43 H2         -2.3612    1.2343   -4.4957 H         1 ATP         0.0652
     44 H44        -4.5223    1.7976   -3.9117 H         1 ATP         0.4503
     45 H45        -5.0218   -0.8132    0.3804 H         1 ATP         0.5209
@<TRIPOS>BOND
     1    1    2 2
     2    1    3 1
     3    1    4 1
     4    1    8 1
     5    4   32 1
     6    5    6 2
     7    5    7 1
     8    5    8 1
     9    5   12 1
    10    9   10 2
    11    9   11 1
    12    9   12 1
    13    9   13 1
    14   13   14 1
    15   14   15 1
    16   14   33 1
    17   14   34 1
    18   15   16 1
    19   15   17 1
    20   15   35 1
    21   16   21 1
    22   17   18 1
    23   17   19 1
    24   17   36 1
    25   18   37 1
    26   19   20 1
    27   19   21 1
    28   19   38 1
    29   20   39 1
    30   21   22 1
    31   21   40 1
    32   22   23 ar
    33   22   31 ar
    34   23   24 ar
    35   23   41 1
    36   24   25 ar
    37   24   45 1
    38   25   26 ar
    39   25   31 ar
    40   26   27 2
    41   26   28 ar
    42   27   42 1
    43   28   29 ar
    44   28   44 1
    45   29   30 ar
    46   29   43 1
    47   30   31 ar
@<TRIPOS>SUBSTRUCTURE
     1 ATP         1 GROUP 0 A     ****
@<TRIPOS>MOLECULE
[[[3,4-dihydroxy-5-(6-imino-7,8-dihydro-1~{H}-purin-8-ylium-9-yl)tetrahydrofuran-2-yl]methoxy-oxido-phosphoryl]oxy-oxido-phosphoryl] hydrogen phosphate
   45    47     1     0     0
SMALL
USER_CHARGES

@<TRIPOS>ATOM
      1 PG          1.6780   -4.3991   -7.6416 P.3       1 ATP         1.5631
      2 O1G         2.1186   -5.7973   -7.2698 O.co2     1 ATP        -0.8806
      3 O2G         2.2397   -3.7061   -8.8630 O.co2     1 ATP        -0.8806
      4 O3G         0.0482   -4.3769   -7.7366 O.3       1 ATP        -0.8165
      5 PB          1.4094   -1.8679   -6.1367 P.3       1 ATP         1.6877
      6 O1B         2.2245   -0.9950   -7.0647 O.co2     1 ATP        -0.8727
      7 O2B        -0.1015   -1.8011   -6.1243 O.co2     1 ATP        -0.8727
      8 O3B         1.8629   -3.4221   -6.3473 O.3       1 ATP        -0.8330
      9 PA          1.5544   -2.4558   -3.2404 P.3       1 ATP         1.6036
     10 O1A         2.0071   -3.8949   -3.3601 O.co2     1 ATP        -0.9062
     11 O2A         0.1180   -2.1225   -2.9010 O.co2     1 ATP        -0.9062
     12 O3A         1.9553   -1.6633   -4.6119 O.3       1 ATP        -0.8166
     13 O5'         2.5245   -1.6648   -2.1878 O.3       1 ATP        -0.5510
     14 C5'         2.2816   -0.2918   -1.9206 C.3       1 ATP         0.2099
     15 C4'         2.7248    0.0226   -0.4980 C.3       1 ATP         0.0598
     16 O4'         2.4697    1.4219   -0.2462 O.3       1 ATP        -0.3455
     17 C3'         1.9404   -0.7419    0.5596 C.3       1 ATP         0.0742
     18 O3'         2.7418   -0.8086    1.7389 O.3       1 ATP        -0.6025
     19 C2'         0.7477    0.1630    0.7858 C.3       1 ATP         0.1145
     20 O2'         0.1373   -0.0577    2.0407 O.3       1 ATP        -0.5835
     21 C1'         1.3733    1.5427    0.6747 C.3       1 ATP         0.3776
     22 N9          0.4520    2.5240    0.1767 N.pl3     1 ATP        -0.4429
     23 C8          0.2216    2.8192   -1.0985 C.ar      1 ATP         0.2964
     24 N7         -0.6906    3.7763   -1.2384 N.pl3     1 ATP        -0.4957
     25 C5         -1.0575    4.1037    0.0366 C.ar      1 ATP        -0.1346
     26 C6         -2.0291    5.0943    0.5330 C.ar      1 ATP         0.7213
     27 N6         -2.7093    5.8371   -0.2800 N.2       1 ATP        -0.8215
     28 N1         -2.1051    5.1136    1.9204 N.pl3     1 ATP        -0.8455
     29 C2         -1.3354    4.2774    2.7129 C.ar      1 ATP         0.6477
     30 N3         -0.4707    3.3945    2.2944 N.2       1 ATP        -0.5707
     31 C4         -0.3734    3.3525    0.9220 C.ar      1 ATP         0.2637
     32 HOG3       -0.3944   -3.5333   -7.9706 H         1 ATP         0.4378
     33 H5'1        2.8432    0.3119   -2.6398 H         1 ATP         0.0340
     34 H5'2        1.2128   -0.0927   -2.0428 H         1 ATP         0.0340
     35 H4'         3.8044   -0.1397   -0.4040 H         1 ATP         0.0910
     36 H3'         1.6764   -1.7639    0.2728 H         1 ATP         0.0656
     37 HO3'        2.2232   -1.2979    2.3953 H         1 ATP         0.4386
     38 H2'        -0.0011    0.0027    0.0003 H         1 ATP         0.0788
     39 HO2'       -0.6141    0.5574    2.1082 H         1 ATP         0.4363
     40 H1'         1.7826    1.9024    1.6451 H         1 ATP         0.1225
     41 H8          0.7125    2.3429   -1.9292 H         1 ATP         0.3824
     42 HN62       -3.3217    6.4517    0.2629 H         1 ATP         0.4018
     43 H2         -1.5188    4.4223    3.7890 H         1 ATP         0.0652
     44 H44        -2.7470    5.7626    2.3665 H         1 ATP         0.4503
     45 H45        -1.0305    4.1680   -2.1054 H         1 ATP         0.5209
@<TRIPOS>BOND
     1    1    2 2
     2    1    3 1
     3    1    4 1
     4    1    8 1
     5    4   32 1
     6    5    6 2
     7    5    7 1
     8    5    8 1
     9    5   12 1
    10    9   10 2
    11    9   11 1
    12    9   12 1
    13    9   13 1
    14   13   14 1
    15   14   15 1
    16   14   33 1
    17   14   34 1
    18   15   16 1
    19   15   17 1
    20   15   35 1
    21   16   21 1
    22   17   18 1
    23   17   19 1
    24   17   36 1
    25   18   37 1
    26   19   20 1
    27   19   21 1
    28   19   38 1
    29   20   39 1
    30   21   22 1
    31   21   40 1
    32   22   23 ar
    33   22   31 ar
    34   23   24 ar
    35   23   41 1
    36   24   25 ar
    37   24   45 1
    38   25   26 ar
    39   25   31 ar
    40   26   27 2
    41   26   28 ar
    42   27   42 1
    43   28   29 ar
    44   28   44 1
    45   29   30 ar
    46   29   43 1
    47   30   31 ar
@<TRIPOS>SUBSTRUCTURE
     1 ATP         1 GROUP 0 A     ****
@<TRIPOS>MOLECULE
[[[3,4-dihydroxy-5-(6-imino-7,8-dihydro-1~{H}-purin-8-ylium-9-yl)tetrahydrofuran-2-yl]methoxy-oxido-phosphoryl]oxy-oxido-phosphoryl] hydrogen phosphate
   45    47     1     0     0
SMALL
USER_CHARGES

@<TRIPOS>ATOM
      1 PG         -2.6062   -4.3147   -3.9227 P.3       1 ATP         1.5631
      2 O1G        -2.3948   -5.7865   -4.1994 O.co2     1 ATP        -0.8806
      3 O2G        -3.3960   -3.4495   -4.8795 O.co2     1 ATP        -0.8806
      4 O3G        -3.2468   -4.1544   -2.4295 O.3       1 ATP        -0.8165
      5 PB          0.0965   -3.3700   -4.6621 P.3       1 ATP         1.6877
      6 O1B         0.6827   -4.7125   -5.0382 O.co2     1 ATP        -0.8727
      7 O2B        -0.3217   -2.3737   -5.7204 O.co2     1 ATP        -0.8727
      8 O3B        -1.1587   -3.6128   -3.6467 O.3       1 ATP        -0.8330
      9 PA          2.6196   -2.0516   -3.8552 P.3       1 ATP         1.6036
     10 O1A         2.5494   -0.8938   -4.8272 O.co2     1 ATP        -0.9062
     11 O2A         3.5430   -3.2224   -4.1122 O.co2     1 ATP        -0.9062
     12 O3A         1.1101   -2.6304   -3.6179 O.3       1 ATP        -0.8166
     13 O5'         2.9216   -1.4836   -2.3516 O.3       1 ATP        -0.5510
     14 C5'         2.2816   -0.2918   -1.9206 C.3       1 ATP         0.2099
     15 C4'         2.7248    0.0226   -0.4980 C.3       1 ATP         0.0598
     16 O4'         2.4697    1.4219   -0.2462 O.3       1 ATP        -0.3455
     17 C3'         1.9404   -0.7419    0.5596 C.3       1 ATP         0.0742
     18 O3'         2.7418   -0.8086    1.7389 O.3       1 ATP        -0.6025
     19 C2'         0.7477    0.1630    0.7858 C.3       1 ATP         0.1145
     20 O2'         0.1373   -0.0577    2.0407 O.3       1 ATP        -0.5835
     21 C1'         1.3733    1.5427    0.6747 C.3       1 ATP         0.3776
     22 N9          0.4520    2.5240    0.1767 N.pl3     1 ATP        -0.4429
     23 C8          0.2216    2.8192   -1.0985 C.ar      1 ATP         0.2964
     24 N7         -0.6906    3.7763   -1.2384 N.pl3     1 ATP        -0.4957
     25 C5         -1.0575    4.1037    0.0366 C.ar      1 ATP        -0.1346
     26 C6         -2.0291    5.0943    0.5330 C.ar      1 ATP         0.7213
     27 N6         -2.7093    5.8371   -0.2800 N.2       1 ATP        -0.8215
     28 N1         -2.1051    5.1136    1.9204 N.pl3     1 ATP        -0.8455
     29 C2         -1.3354    4.2774    2.7129 C.ar      1 ATP         0.6477
     30 N3         -0.4707    3.3945    2.2944 N.2       1 ATP        -0.5707
     31 C4         -0.3734    3.3525    0.9220 C.ar      1 ATP         0.2637
     32 HOG3       -3.4437   -3.2515   -2.1004 H         1 ATP         0.4378
     33 H5'1        2.5589    0.5217   -2.5976 H         1 ATP         0.0340
     34 H5'2        1.1982   -0.4388   -1.9617 H         1 ATP         0.0340
     35 H4'         3.8044   -0.1397   -0.4040 H         1 ATP         0.0910
     36 H3'         1.6764   -1.7639    0.2728 H         1 ATP         0.0656
     37 HO3'        3.5554   -1.2733    1.4914 H         1 ATP         0.4386
     38 H2'        -0.0011    0.0027    0.0003 H         1 ATP         0.0788
     39 HO2'       -0.1563   -0.9855    2.0596 H         1 ATP         0.4363
     40 H1'         1.7826    1.9024    1.6451 H         1 ATP         0.1225
     41 H8          0.7125    2.3429   -1.9292 H         1 ATP         0.3824
     42 HN62       -3.3217    6.4517    0.2629 H         1 ATP         0.4018
     43 H2         -1.5188    4.4223    3.7890 H         1 ATP         0.0652
     44 H44        -2.7470    5.7626    2.3665 H         1 ATP         0.4503
     45 H45        -1.0305    4.1680   -2.1054 H         1 ATP         0.5209
@<TRIPOS>BOND
     1    1    2 2
     2    1    3 1
     3    1    4 1
     4    1    8 1
     5    4   32 1
     6    5    6 2
     7    5    7 1
     8    5    8 1
     9    5   12 1
    10    9   10 2
    11    9   11 1
    12    9   12 1
    13    9   13 1
    14   13   14 1
    15   14   15 1
    16   14   33 1
    17   14   34 1
    18   15   16 1
    19   15   17 1
    20   15   35 1
    21   16   21 1
    22   17   18 1
    23   17   19 1
    24   17   36 1
    25   18   37 1
    26   19   20 1
    27   19   21 1
    28   19   38 1
    29   20   39 1
    30   21   22 1
    31   21   40 1
    32   22   23 ar
    33   22   31 ar
    34   23   24 ar
    35   23   41 1
    36   24   25 ar
    37   24   45 1
    38   25   26 ar
    39   25   31 ar
    40   26   27 2
    41   26   28 ar
    42   27   42 1
    43   28   29 ar
    44   28   44 1
    45   29   30 ar
    46   29   43 1
    47   30   31 ar
@<TRIPOS>SUBSTRUCTURE
     1 ATP         1 GROUP 0 A     ****
@<TRIPOS>MOLECULE
[[[3,4-dihydroxy-5-(6-imino-7,8-dihydro-1~{H}-purin-8-ylium-9-yl)tetrahydrofuran-2-yl]methoxy-oxido-phosphoryl]oxy-oxido-phosphoryl] hydrogen phosphate
   45    47     1     0     0
SMALL
USER_CHARGES

@<TRIPOS>ATOM
      1 PG          0.5697   -2.9745   -7.6047 P.3       1 ATP         1.5631
      2 O1G        -0.9255   -2.7831   -7.4816 O.co2     1 ATP        -0.8806
      3 O2G         1.1748   -4.3599   -7.6513 O.co2     1 ATP        -0.8806
      4 O3G         1.0948   -2.1355   -8.9033 O.3       1 ATP        -0.8165
      5 PB          2.9040   -1.8329   -6.1936 P.3       1 ATP         1.6877
      6 O1B         3.5741   -3.1378   -5.8255 O.co2     1 ATP        -0.8727
      7 O2B         3.4248   -0.9771   -7.3267 O.co2     1 ATP        -0.8727
      8 O3B         1.3137   -2.1114   -6.4362 O.3       1 ATP        -0.8330
      9 PA          3.9554   -0.2064   -3.9565 P.3       1 ATP         1.6036
     10 O1A         4.6400    0.8514   -4.7948 O.co2     1 ATP        -0.9062
     11 O2A         4.7576   -1.2975   -3.2816 O.co2     1 ATP        -0.9062
     12 O3A         2.7840   -0.9098   -4.8526 O.3       1 ATP        -0.8166
     13 O5'         3.0213    0.5153   -2.8245 O.3       1 ATP        -0.5510
     14 C5'         2.2816   -0.2918   -1.9206 C.3       1 ATP         0.2099
     15 C4'         2.7248    0.0226   -0.4980 C.3       1 ATP         0.0598
     16 O4'         2.4697    1.4219   -0.2462 O.3       1 ATP        -0.3455
     17 C3'         1.9404   -0.7419    0.5596 C.3       1 ATP         0.0742
     18 O3'         2.7418   -0.8086    1.7389 O.3       1 ATP        -0.6025
     19 C2'         0.7477    0.1630    0.7858 C.3       1 ATP         0.1145
     20 O2'         0.1373   -0.0577    2.0407 O.3       1 ATP        -0.5835
     21 C1'         1.3733    1.5427    0.6747 C.3       1 ATP         0.3776
     22 N9          0.4520    2.5240    0.1767 N.pl3     1 ATP        -0.4429
     23 C8          0.2216    2.8192   -1.0985 C.ar      1 ATP         0.2964
     24 N7         -0.6906    3.7763   -1.2384 N.pl3     1 ATP        -0.4957
     25 C5         -1.0575    4.1037    0.0366 C.ar      1 ATP        -0.1346
     26 C6         -2.0291    5.0943    0.5330 C.ar      1 ATP         0.7213
     27 N6         -2.7093    5.8371   -0.2800 N.2       1 ATP        -0.8215
     28 N1         -2.1051    5.1136    1.9204 N.pl3     1 ATP        -0.8455
     29 C2         -1.3354    4.2774    2.7129 C.ar      1 ATP         0.6477
     30 N3         -0.4707    3.3945    2.2944 N.2       1 ATP        -0.5707
     31 C4         -0.3734    3.3525    0.9220 C.ar      1 ATP         0.2637
     32 HOG3        2.0515   -2.1592   -9.1188 H         1 ATP         0.4378
     33 H5'1        1.2163   -0.0770   -2.0471 H         1 ATP         0.0340
     34 H5'2        2.4655   -1.3443   -2.1563 H         1 ATP         0.0340
     35 H4'         3.8044   -0.1397   -0.4040 H         1 ATP         0.0910
     36 H3'         1.6764   -1.7639    0.2728 H         1 ATP         0.0656
     37 HO3'        2.2232   -1.2979    2.3953 H         1 ATP         0.4386
     38 H2'        -0.0011    0.0027    0.0003 H         1 ATP         0.0788
     39 HO2'       -0.1563   -0.9855    2.0596 H         1 ATP         0.4363
     40 H1'         1.7826    1.9024    1.6451 H         1 ATP         0.1225
     41 H8          0.7125    2.3429   -1.9292 H         1 ATP         0.3824
     42 HN62       -3.3217    6.4517    0.2629 H         1 ATP         0.4018
     43 H2         -1.5188    4.4223    3.7890 H         1 ATP         0.0652
     44 H44        -2.7470    5.7626    2.3665 H         1 ATP         0.4503
     45 H45        -1.0305    4.1680   -2.1054 H         1 ATP         0.5209
@<TRIPOS>BOND
     1    1    2 2
     2    1    3 1
     3    1    4 1
     4    1    8 1
     5    4   32 1
     6    5    6 2
     7    5    7 1
     8    5    8 1
     9    5   12 1
    10    9   10 2
    11    9   11 1
    12    9   12 1
    13    9   13 1
    14   13   14 1
    15   14   15 1
    16   14   33 1
    17   14   34 1
    18   15   16 1
    19   15   17 1
    20   15   35 1
    21   16   21 1
    22   17   18 1
    23   17   19 1
    24   17   36 1
    25   18   37 1
    26   19   20 1
    27   19   21 1
    28   19   38 1
    29   20   39 1
    30   21   22 1
    31   21   40 1
    32   22   23 ar
    33   22   31 ar
    34   23   24 ar
    35   23   41 1
    36   24   25 ar
    37   24   45 1
    38   25   26 ar
    39   25   31 ar
    40   26   27 2
    41   26   28 ar
    42   27   42 1
    43   28   29 ar
    44   28   44 1
    45   29   30 ar
    46   29   43 1
    47   30   31 ar
@<TRIPOS>SUBSTRUCTURE
     1 ATP         1 GROUP 0 A     ****
@<TRIPOS>MOLECULE
[[[3,4-dihydroxy-5-(6-imino-7,8-dihydro-1~{H}-purin-8-ylium-9-yl)tetrahydrofuran-2-yl]methoxy-oxido-phosphoryl]oxy-oxido-phosphoryl] hydrogen phosphate
   45    47     1     0     0
SMALL
USER_CHARGES

@<TRIPOS>ATOM
      1 PG          6.5250   -3.7908   -6.3606 P.3       1 ATP         1.5631
      2 O1G         6.3222   -5.2734   -6.1407 O.co2     1 ATP        -0.8806
      3 O2G         7.9124   -3.1885   -6.3658 O.co2     1 ATP        -0.8806
      4 O3G         5.7691   -3.3634   -7.7433 O.3       1 ATP        -0.8165
      5 PB          5.3053   -1.3616   -5.1968 P.3       1 ATP         1.6877
      6 O1B         6.5870   -0.6642   -4.7989 O.co2     1 ATP        -0.8727
      7 O2B         4.5225   -0.9264   -6.4155 O.co2     1 ATP        -0.8727
      8 O3B         5.5937   -2.9649   -5.3050 O.3       1 ATP        -0.8330
      9 PA          2.8603   -2.1317   -3.7189 P.3       1 ATP         1.6036
     10 O1A         3.0799   -3.6286   -3.7531 O.co2     1 ATP        -0.9062
     11 O2A         1.8581   -1.4755   -4.6434 O.co2     1 ATP        -0.9062
     12 O3A         4.3010   -1.3849   -3.9101 O.3       1 ATP        -0.8166
     13 O5'         2.5245   -1.6648   -2.1878 O.3       1 ATP        -0.5510
     14 C5'         2.2816   -0.2918   -1.9206 C.3       1 ATP         0.2099
     15 C4'         2.7248    0.0226   -0.4980 C.3       1 ATP         0.0598
     16 O4'         2.4697    1.4219   -0.2462 O.3       1 ATP        -0.3455
     17 C3'         1.9404   -0.7419    0.5596 C.3       1 ATP         0.0742
     18 O3'         2.7418   -0.8086    1.7389 O.3       1 ATP        -0.6025
     19 C2'         0.7477    0.1630    0.7858 C.3       1 ATP         0.1145
     20 O2'         0.1373   -0.0577    2.0407 O.3       1 ATP        -0.5835
     21 C1'         1.3733    1.5427    0.6747 C.3       1 ATP         0.3776
     22 N9          0.4520    2.5240    0.1767 N.pl3     1 ATP        -0.4429
     23 C8          0.2216    2.8192   -1.0985 C.ar      1 ATP         0.2964
     24 N7         -0.6906    3.7763   -1.2384 N.pl3     1 ATP        -0.4957
     25 C5         -1.0575    4.1037    0.0366 C.ar      1 ATP        -0.1346
     26 C6         -2.0291    5.0943    0.5330 C.ar      1 ATP         0.7213
     27 N6         -2.7093    5.8371   -0.2800 N.2       1 ATP        -0.8215
     28 N1         -2.1051    5.1136    1.9204 N.pl3     1 ATP        -0.8455
     29 C2         -1.3354    4.2774    2.7129 C.ar      1 ATP         0.6477
     30 N3         -0.4707    3.3945    2.2944 N.2       1 ATP        -0.5707
     31 C4         -0.3734    3.3525    0.9220 C.ar      1 ATP         0.2637
     32 HOG3        5.8087   -2.4250   -8.0263 H         1 ATP         0.4378
     33 H5'1        2.8432    0.3119   -2.6398 H         1 ATP         0.0340
     34 H5'2        1.2128   -0.0927   -2.0428 H         1 ATP         0.0340
     35 H4'         3.8044   -0.1397   -0.4040 H         1 ATP         0.0910
     36 H3'         1.6764   -1.7639    0.2728 H         1 ATP         0.0656
     37 HO3'        2.2232   -1.2979    2.3953 H         1 ATP         0.4386
     38 H2'        -0.0011    0.0027    0.0003 H         1 ATP         0.0788
     39 HO2'       -0.1563   -0.9855    2.0596 H         1 ATP         0.4363
     40 H1'         1.7826    1.9024    1.6451 H         1 ATP         0.1225
     41 H8          0.7125    2.3429   -1.9292 H         1 ATP         0.3824
     42 HN62       -3.3217    6.4517    0.2629 H         1 ATP         0.4018
     43 H2         -1.5188    4.4223    3.7890 H         1 ATP         0.0652
     44 H44        -2.7470    5.7626    2.3665 H         1 ATP         0.4503
     45 H45        -1.0305    4.1680   -2.1054 H         1 ATP         0.5209
@<TRIPOS>BOND
     1    1    2 2
     2    1    3 1
     3    1    4 1
     4    1    8 1
     5    4   32 1
     6    5    6 2
     7    5    7 1
     8    5    8 1
     9    5   12 1
    10    9   10 2
    11    9   11 1
    12    9   12 1
    13    9   13 1
    14   13   14 1
    15   14   15 1
    16   14   33 1
    17   14   34 1
    18   15   16 1
    19   15   17 1
    20   15   35 1
    21   16   21 1
    22   17   18 1
    23   17   19 1
    24   17   36 1
    25   18   37 1
    26   19   20 1
    27   19   21 1
    28   19   38 1
    29   20   39 1
    30   21   22 1
    31   21   40 1
    32   22   23 ar
    33   22   31 ar
    34   23   24 ar
    35   23   41 1
    36   24   25 ar
    37   24   45 1
    38   25   26 ar
    39   25   31 ar
    40   26   27 2
    41   26   28 ar
    42   27   42 1
    43   28   29 ar
    44   28   44 1
    45   29   30 ar
    46   29   43 1
    47   30   31 ar
@<TRIPOS>SUBSTRUCTURE
     1 ATP         1 GROUP 0 A     ****
@<TRIPOS>MOLECULE
[[[3,4-dihydroxy-5-(6-imino-7,8-dihydro-1~{H}-purin-8-ylium-9-yl)tetrahydrofuran-2-yl]methoxy-oxido-phosphoryl]oxy-oxido-phosphoryl] hydrogen phosphate
   45    47     1     0     0
SMALL
USER_CHARGES

@<TRIPOS>ATOM
      1 PG         -7.0325   -4.3359    1.1999 P.3       1 ATP         1.5631
      2 O1G        -7.3517   -3.8144    2.5832 O.co2     1 ATP        -0.8806
      3 O2G        -7.7304   -5.5601    0.6505 O.co2     1 ATP        -0.8806
      4 O3G        -7.2105   -3.1143    0.1313 O.3       1 ATP        -0.8165
      5 PB         -4.5164   -4.9354   -0.2331 P.3       1 ATP         1.6877
      6 O1B        -4.8548   -6.3492   -0.6503 O.co2     1 ATP        -0.8727
      7 O2B        -4.5714   -3.7924   -1.2220 O.co2     1 ATP        -0.8727
      8 O3B        -5.4189   -4.5440    1.0700 O.3       1 ATP        -0.8330
      9 PA         -2.4917   -5.8416    1.7251 P.3       1 ATP         1.6036
     10 O1A        -2.4374   -7.2893    1.2876 O.co2     1 ATP        -0.9062
     11 O2A        -3.2382   -5.4398    2.9785 O.co2     1 ATP        -0.9062
     12 O3A        -3.0495   -4.9381    0.4832 O.3       1 ATP        -0.8166
     13 O5'        -0.9724   -5.2440    1.8220 O.3       1 ATP        -0.5510
     14 C5'        -0.7840   -3.8935    2.2172 C.3       1 ATP         0.2099
     15 C4'        -0.0724   -3.1466    1.1027 C.3       1 ATP         0.0598
     16 O4'        -0.8674   -3.1929   -0.0945 O.3       1 ATP        -0.3455
     17 C3'         0.1338   -1.6715    1.4027 C.3       1 ATP         0.0742
     18 O3'         1.2893   -1.4445    2.1808 O.3       1 ATP        -0.6025
     19 C2'         0.2158   -1.0724    0.0128 C.3       1 ATP         0.1145
     20 O2'         1.5141   -1.2448   -0.5513 O.3       1 ATP        -0.5835
     21 C1'        -0.7897   -1.9176   -0.7583 C.3       1 ATP         0.3776
     22 N9         -2.1040   -1.3333   -0.7704 N.pl3     1 ATP        -0.4429
     23 C8         -3.0590   -1.5123    0.1363 C.ar      1 ATP         0.2964
     24 N7         -4.1655   -0.8354   -0.1554 N.pl3     1 ATP        -0.4957
     25 C5         -3.8852   -0.1874   -1.3253 C.ar      1 ATP        -0.1346
     26 C6         -4.7113    0.7160   -2.1458 C.ar      1 ATP         0.7213
     27 N6         -5.9213    1.0209   -1.8021 N.2       1 ATP        -0.8215
     28 N1         -4.0411    1.1673   -3.2764 N.pl3     1 ATP        -0.8455
     29 C2         -2.7403    0.7865   -3.5638 C.ar      1 ATP         0.6477
     30 N3         -1.9921   -0.0108   -2.8519 N.2       1 ATP        -0.5707
     31 C4         -2.6302   -0.4747   -1.7239 C.ar      1 ATP         0.2637
     32 HOG3       -7.0379   -3.2950   -0.8173 H         1 ATP         0.4378
     33 H5'1       -1.7618   -3.4448    2.4164 H         1 ATP         0.0340
     34 H5'2       -0.1874   -3.8744    3.1341 H         1 ATP         0.0340
     35 H4'         0.8874   -3.6466    0.8805 H         1 ATP         0.0910
     36 H3'        -0.7376   -1.2333    1.9867 H         1 ATP         0.0656
     37 HO3'        1.3408   -0.4870    2.3219 H         1 ATP         0.4386
     38 H2'        -0.0384   -0.0310    0.0096 H         1 ATP         0.0788
     39 HO2'        2.1463   -0.7958    0.0370 H         1 ATP         0.4363
     40 H1'        -0.4769   -2.1002   -1.8093 H         1 ATP         0.1225
     41 H8         -2.9569   -2.1323    1.0098 H         1 ATP         0.3824
     42 HN62       -6.3169    1.6552   -2.5012 H         1 ATP         0.4018
     43 H2         -2.3612    1.2343   -4.4957 H         1 ATP         0.0652
     44 H44        -4.5223    1.7976   -3.9117 H         1 ATP         0.4503
     45 H45        -5.0218   -0.8132    0.3804 H         1 ATP         0.5209
@<TRIPOS>BOND
     1    1    2 2
     2    1    3 1
     3    1    4 1
     4    1    8 1
     5    4   32 1
     6    5    6 2
     7    5    7 1
     8    5    8 1
     9    5   12 1
    10    9   10 2
    11    9   11 1
    12    9   12 1
    13    9   13 1
    14   13   14 1
    15   14   15 1
    16   14   33 1
    17   14   34 1
    18   15   16 1
    19   15   17 1
    20   15   35 1
    21   16   21 1
    22   17   18 1
    23   17   19 1
    24   17   36 1
    25   18   37 1
    26   19   20 1
    27   19   21 1
    28   19   38 1
    29   20   39 1
    30   21   22 1
    31   21   40 1
    32   22   23 ar
    33   22   31 ar
    34   23   24 ar
    35   23   41 1
    36   24   25 ar
    37   24   45 1
    38   25   26 ar
    39   25   31 ar
    40   26   27 2
    41   26   28 ar
    42   27   42 1
    43   28   29 ar
    44   28   44 1
    45   29   30 ar
    46   29   43 1
    47   30   31 ar
@<TRIPOS>SUBSTRUCTURE
     1 ATP         1 GROUP 0 A     ****
@<TRIPOS>MOLECULE
[[[3,4-dihydroxy-5-(6-imino-7,8-dihydro-1~{H}-purin-8-ylium-9-yl)tetrahydrofuran-2-yl]methoxy-oxido-phosphoryl]oxy-oxido-phosphoryl] hydrogen phosphate
   45    47     1     0     0
SMALL
USER_CHARGES

@<TRIPOS>ATOM
      1 PG         -1.2673    3.1956   -6.1252 P.3       1 ATP         1.5631
      2 O1G        -2.3367    2.2297   -6.5844 O.co2     1 ATP        -0.8806
      3 O2G        -0.6541    4.1903   -7.0855 O.co2     1 ATP        -0.8806
      4 O3G        -1.8265    4.0083   -4.8241 O.3       1 ATP        -0.8165
      5 PB          0.9889    1.2869   -6.0263 P.3       1 ATP         1.6877
      6 O1B         0.2301    0.0558   -6.4691 O.co2     1 ATP        -0.8727
      7 O2B         1.9135    2.0199   -6.9726 O.co2     1 ATP        -0.8727
      8 O3B        -0.0714    2.3571   -5.3969 O.3       1 ATP        -0.8330
      9 PA          3.0675   -0.0857   -4.4293 P.3       1 ATP         1.6036
     10 O1A         4.2683    0.4444   -5.1827 O.co2     1 ATP        -0.9062
     11 O2A         2.5798   -1.5012   -4.6487 O.co2     1 ATP        -0.9062
     12 O3A         1.8107    0.9323   -4.6611 O.3       1 ATP        -0.8166
     13 O5'         3.2903    0.1346   -2.8241 O.3       1 ATP        -0.5510
     14 C5'         2.2816   -0.2918   -1.9206 C.3       1 ATP         0.2099
     15 C4'         2.7248    0.0226   -0.4980 C.3       1 ATP         0.0598
     16 O4'         2.4697    1.4219   -0.2462 O.3       1 ATP        -0.3455
     17 C3'         1.9404   -0.7419    0.5596 C.3       1 ATP         0.0742
     18 O3'         2.7418   -0.8086    1.7389 O.3       1 ATP        -0.6025
     19 C2'         0.7477    0.1630    0.7858 C.3       1 ATP         0.1145
     20 O2'         0.1373   -0.0577    2.0407 O.3       1 ATP        -0.5835
     21 C1'         1.3733    1.5427    0.6747 C.3       1 ATP         0.3776
     22 N9          0.4520    2.5240    0.1767 N.pl3     1 ATP        -0.4429
     23 C8         -0.8620    2.5492    0.3743 C.ar      1 ATP         0.2964
     24 N7         -1.4419    3.5886   -0.2183 N.pl3     1 ATP        -0.4957
     25 C5         -0.4215    4.2614   -0.8294 C.ar      1 ATP        -0.1346
     26 C6         -0.4310    5.4918   -1.6405 C.ar      1 ATP         0.7213
     27 N6         -1.5302    6.1308   -1.8826 N.2       1 ATP        -0.8215
     28 N1          0.8382    5.8461   -2.0817 N.pl3     1 ATP        -0.8455
     29 C2          1.9625    5.0982   -1.7709 C.ar      1 ATP         0.6477
     30 N3          1.9930    4.0077   -1.0554 N.2       1 ATP        -0.5707
     31 C4          0.7483    3.6314   -0.6038 C.ar      1 ATP         0.2637
     32 HOG3       -1.2441    4.6779   -4.4061 H         1 ATP         0.4378
     33 H5'1        1.3514    0.2330   -2.1577 H         1 ATP         0.0340
     34 H5'2        2.1280   -1.3678   -2.0460 H         1 ATP         0.0340
     35 H4'         3.8044   -0.1397   -0.4040 H         1 ATP         0.0910
     36 H3'         1.6764   -1.7639    0.2728 H         1 ATP         0.0656
     37 HO3'        2.2232   -1.2979    2.3953 H         1 ATP         0.4386
     38 H2'        -0.0011    0.0027    0.0003 H         1 ATP         0.0788
     39 HO2'       -0.1563   -0.9855    2.0596 H         1 ATP         0.4363
     40 H1'         1.7826    1.9024    1.6451 H         1 ATP         0.1225
     41 H8         -1.4030    1.8165    0.9473 H         1 ATP         0.3824
     42 HN62       -1.3197    6.9504   -2.4583 H         1 ATP         0.4018
     43 H2          2.8857    5.5186   -2.1994 H         1 ATP         0.0652
     44 H44         0.9433    6.6815   -2.6502 H         1 ATP         0.4503
     45 H45        -2.4254    3.8199   -0.2108 H         1 ATP         0.5209
@<TRIPOS>BOND
     1    1    2 2
     2    1    3 1
     3    1    4 1
     4    1    8 1
     5    4   32 1
     6    5    6 2
     7    5    7 1
     8    5    8 1
     9    5   12 1
    10    9   10 2
    11    9   11 1
    12    9   12 1
    13    9   13 1
    14   13   14 1
    15   14   15 1
    16   14   33 1
    17   14   34 1
    18   15   16 1
    19   15   17 1
    20   15   35 1
    21   16   21 1
    22   17   18 1
    23   17   19 1
    24   17   36 1
    25   18   37 1
    26   19   20 1
    27   19   21 1
    28   19   38 1
    29   20   39 1
    30   21   22 1
    31   21   40 1
    32   22   23 ar
    33   22   31 ar
    34   23   24 ar
    35   23   41 1
    36   24   25 ar
    37   24   45 1
    38   25   26 ar
    39   25   31 ar
    40   26   27 2
    41   26   28 ar
    42   27   42 1
    43   28   29 ar
    44   28   44 1
    45   29   30 ar
    46   29   43 1
    47   30   31 ar
@<TRIPOS>SUBSTRUCTURE
     1 ATP         1 GROUP 0 A     ****
@<TRIPOS>MOLECULE
[[[3,4-dihydroxy-5-(6-imino-7,8-dihydro-1~{H}-purin-8-ylium-9-yl)tetrahydrofuran-2-yl]methoxy-oxido-phosphoryl]oxy-oxido-phosphoryl] hydrogen phosphate
   45    47     1     0     0
SMALL
USER_CHARGES

@<TRIPOS>ATOM
      1 PG         -0.9577    2.2963   -6.7250 P.3       1 ATP         1.5631
      2 O1G        -0.2934    2.6833   -8.0274 O.co2     1 ATP        -0.8806
      3 O2G        -2.0295    3.1686   -6.1099 O.co2     1 ATP        -0.8806
      4 O3G        -1.5450    0.7800   -6.8727 O.3       1 ATP        -0.8165
      5 PB          1.2543    3.0325   -4.9061 P.3       1 ATP         1.6877
      6 O1B         2.2261    3.5186   -5.9582 O.co2     1 ATP        -0.8727
      7 O2B         0.4864    4.0057   -4.0397 O.co2     1 ATP        -0.8727
      8 O3B         0.1949    2.0065   -5.6064 O.3       1 ATP        -0.8330
      9 PA          2.8621    0.6170   -4.3270 P.3       1 ATP         1.6036
     10 O1A         4.0995    1.0217   -5.0986 O.co2     1 ATP        -0.9062
     11 O2A         1.8962   -0.4011   -4.8927 O.co2     1 ATP        -0.9062
     12 O3A         2.0209    1.9632   -3.9398 O.3       1 ATP        -0.8166
     13 O5'         3.2903    0.1346   -2.8241 O.3       1 ATP        -0.5510
     14 C5'         2.2816   -0.2918   -1.9206 C.3       1 ATP         0.2099
     15 C4'         2.7248    0.0226   -0.4980 C.3       1 ATP         0.0598
     16 O4'         2.4697    1.4219   -0.2462 O.3       1 ATP        -0.3455
     17 C3'         1.9404   -0.7419    0.5596 C.3       1 ATP         0.0742
     18 O3'         2.7418   -0.8086    1.7389 O.3       1 ATP        -0.6025
     19 C2'         0.7477    0.1630    0.7858 C.3       1 ATP         0.1145
     20 O2'         0.1373   -0.0577    2.0407 O.3       1 ATP        -0.5835
     21 C1'         1.3733    1.5427    0.6747 C.3       1 ATP         0.3776
     22 N9          0.4520    2.5240    0.1767 N.pl3     1 ATP        -0.4429
     23 C8         -0.2004    2.4829   -0.9804 C.ar      1 ATP         0.2964
     24 N7         -0.9830    3.5431   -1.1568 N.pl3     1 ATP        -0.4957
     25 C5         -0.8095    4.3012   -0.0331 C.ar      1 ATP        -0.1346
     26 C6         -1.4065    5.5904    0.3585 C.ar      1 ATP         0.7213
     27 N6         -2.2501    6.2030   -0.4084 N.2       1 ATP        -0.8215
     28 N1         -0.9585    6.0272    1.5994 N.pl3     1 ATP        -0.8455
     29 C2         -0.0508    5.3009    2.3532 C.ar      1 ATP         0.6477
     30 N3          0.4890    4.1592    2.0257 N.2       1 ATP        -0.5707
     31 C4          0.0637    3.7006    0.7995 C.ar      1 ATP         0.2637
     32 HOG3       -0.9167    0.0532   -7.0709 H         1 ATP         0.4378
     33 H5'1        1.3514    0.2330   -2.1577 H         1 ATP         0.0340
     34 H5'2        2.1280   -1.3678   -2.0460 H         1 ATP         0.0340
     35 H4'         3.8044   -0.1397   -0.4040 H         1 ATP         0.0910
     36 H3'         1.6764   -1.7639    0.2728 H         1 ATP         0.0656
     37 HO3'        3.5554   -1.2733    1.4914 H         1 ATP         0.4386
     38 H2'        -0.0011    0.0027    0.0003 H         1 ATP         0.0788
     39 HO2'       -0.1563   -0.9855    2.0596 H         1 ATP         0.4363
     40 H1'         1.7826    1.9024    1.6451 H         1 ATP         0.1225
     41 H8         -0.1116    1.6863   -1.6984 H         1 ATP         0.3824
     42 HN62       -2.5420    7.0730    0.0447 H         1 ATP         0.4018
     43 H2          0.1969    5.7893    3.3086 H         1 ATP         0.0652
     44 H44        -1.3097    6.9080    1.9642 H         1 ATP         0.4503
     45 H45        -1.5735    3.7351   -1.9538 H         1 ATP         0.5209
@<TRIPOS>BOND
     1    1    2 2
     2    1    3 1
     3    1    4 1
     4    1    8 1
     5    4   32 1
     6    5    6 2
     7    5    7 1
     8    5    8 1
     9    5   12 1
    10    9   10 2
    11    9   11 1
    12    9   12 1
    13    9   13 1
    14   13   14 1
    15   14   15 1
    16   14   33 1
    17   14   34 1
    18   15   16 1
    19   15   17 1
    20   15   35 1
    21   16   21 1
    22   17   18 1
    23   17   19 1
    24   17   36 1
    25   18   37 1
    26   19   20 1
    27   19   21 1
    28   19   38 1
    29   20   39 1
    30   21   22 1
    31   21   40 1
    32   22   23 ar
    33   22   31 ar
    34   23   24 ar
    35   23   41 1
    36   24   25 ar
    37   24   45 1
    38   25   26 ar
    39   25   31 ar
    40   26   27 2
    41   26   28 ar
    42   27   42 1
    43   28   29 ar
    44   28   44 1
    45   29   30 ar
    46   29   43 1
    47   30   31 ar
@<TRIPOS>SUBSTRUCTURE
     1 ATP         1 GROUP 0 A     ****
@<TRIPOS>MOLECULE
[[[3,4-dihydroxy-5-(6-imino-7,8-dihydro-1~{H}-purin-8-ylium-9-yl)tetrahydrofuran-2-yl]methoxy-oxido-phosphoryl]oxy-oxido-phosphoryl] hydrogen phosphate
   45    47     1     0     0
SMALL
USER_CHARGES

@<TRIPOS>ATOM
      1 PG          0.4109   -3.4152   -4.7763 P.3       1 ATP         1.5631
      2 O1G        -1.0916   -3.2744   -4.8762 O.co2     1 ATP        -0.8806
      3 O2G         1.1328   -3.1380   -3.4764 O.co2     1 ATP        -0.8806
      4 O3G         0.8275   -4.9071   -5.2927 O.3       1 ATP        -0.8165
      5 PB          1.1473   -0.9224   -6.1859 P.3       1 ATP         1.6877
      6 O1B         2.0649   -0.6149   -7.3483 O.co2     1 ATP        -0.8727
      7 O2B        -0.2683   -0.3916   -6.1436 O.co2     1 ATP        -0.8727
      8 O3B         1.1067   -2.5396   -5.9649 O.3       1 ATP        -0.8330
      9 PA          2.3336    0.9636   -4.2390 P.3       1 ATP         1.6036
     10 O1A         1.0795    1.7631   -3.9591 O.co2     1 ATP        -0.9062
     11 O2A         3.4185    1.5158   -5.1377 O.co2     1 ATP        -0.9062
     12 O3A         1.9032   -0.5097   -4.7991 O.3       1 ATP        -0.8166
     13 O5'         3.0213    0.5153   -2.8245 O.3       1 ATP        -0.5510
     14 C5'         2.2816   -0.2918   -1.9206 C.3       1 ATP         0.2099
     15 C4'         2.7248    0.0226   -0.4980 C.3       1 ATP         0.0598
     16 O4'         2.4697    1.4219   -0.2462 O.3       1 ATP        -0.3455
     17 C3'         1.9404   -0.7419    0.5596 C.3       1 ATP         0.0742
     18 O3'         2.7418   -0.8086    1.7389 O.3       1 ATP        -0.6025
     19 C2'         0.7477    0.1630    0.7858 C.3       1 ATP         0.1145
     20 O2'         0.1373   -0.0577    2.0407 O.3       1 ATP        -0.5835
     21 C1'         1.3733    1.5427    0.6747 C.3       1 ATP         0.3776
     22 N9          0.4520    2.5240    0.1767 N.pl3     1 ATP        -0.4429
     23 C8         -0.2004    2.4829   -0.9804 C.ar      1 ATP         0.2964
     24 N7         -0.9830    3.5431   -1.1568 N.pl3     1 ATP        -0.4957
     25 C5         -0.8095    4.3012   -0.0331 C.ar      1 ATP        -0.1346
     26 C6         -1.4065    5.5904    0.3585 C.ar      1 ATP         0.7213
     27 N6         -2.2501    6.2030   -0.4084 N.2       1 ATP        -0.8215
     28 N1         -0.9585    6.0272    1.5994 N.pl3     1 ATP        -0.8455
     29 C2         -0.0508    5.3009    2.3532 C.ar      1 ATP         0.6477
     30 N3          0.4890    4.1592    2.0257 N.2       1 ATP        -0.5707
     31 C4          0.0637    3.7006    0.7995 C.ar      1 ATP         0.2637
     32 HOG3        1.7768   -5.1543   -5.2888 H         1 ATP         0.4378
     33 H5'1        1.2163   -0.0770   -2.0471 H         1 ATP         0.0340
     34 H5'2        2.4655   -1.3443   -2.1563 H         1 ATP         0.0340
     35 H4'         3.8044   -0.1397   -0.4040 H         1 ATP         0.0910
     36 H3'         1.6764   -1.7639    0.2728 H         1 ATP         0.0656
     37 HO3'        2.2232   -1.2979    2.3953 H         1 ATP         0.4386
     38 H2'        -0.0011    0.0027    0.0003 H         1 ATP         0.0788
     39 HO2'       -0.1563   -0.9855    2.0596 H         1 ATP         0.4363
     40 H1'         1.7826    1.9024    1.6451 H         1 ATP         0.1225
     41 H8         -0.1116    1.6863   -1.6984 H         1 ATP         0.3824
     42 HN62       -2.5420    7.0730    0.0447 H         1 ATP         0.4018
     43 H2          0.1969    5.7893    3.3086 H         1 ATP         0.0652
     44 H44        -1.3097    6.9080    1.9642 H         1 ATP         0.4503
     45 H45        -1.5735    3.7351   -1.9538 H         1 ATP         0.5209
@<TRIPOS>BOND
     1    1    2 2
     2    1    3 1
     3    1    4 1
     4    1    8 1
     5    4   32 1
     6    5    6 2
     7    5    7 1
     8    5    8 1
     9    5   12 1
    10    9   10 2
    11    9   11 1
    12    9   12 1
    13    9   13 1
    14   13   14 1
    15   14   15 1
    16   14   33 1
    17   14   34 1
    18   15   16 1
    19   15   17 1
    20   15   35 1
    21   16   21 1
    22   17   18 1
    23   17   19 1
    24   17   36 1
    25   18   37 1
    26   19   20 1
    27   19   21 1
    28   19   38 1
    29   20   39 1
    30   21   22 1
    31   21   40 1
    32   22   23 ar
    33   22   31 ar
    34   23   24 ar
    35   23   41 1
    36   24   25 ar
    37   24   45 1
    38   25   26 ar
    39   25   31 ar
    40   26   27 2
    41   26   28 ar
    42   27   42 1
    43   28   29 ar
    44   28   44 1
    45   29   30 ar
    46   29   43 1
    47   30   31 ar
@<TRIPOS>SUBSTRUCTURE
     1 ATP         1 GROUP 0 A     ****
@<TRIPOS>MOLECULE
[[[3,4-dihydroxy-5-(6-imino-7,8-dihydro-1~{H}-purin-8-ylium-9-yl)tetrahydrofuran-2-yl]methoxy-oxido-phosphoryl]oxy-oxido-phosphoryl] hydrogen phosphate
   45    47     1     0     0
SMALL
USER_CHARGES

@<TRIPOS>ATOM
      1 PG          4.3724   -4.3978   -6.2845 P.3       1 ATP         1.5631
      2 O1G         3.2218   -5.1276   -6.9410 O.co2     1 ATP        -0.8806
      3 O2G         5.2956   -5.1096   -5.3207 O.co2     1 ATP        -0.8806
      4 O3G         5.2779   -3.7012   -7.4510 O.3       1 ATP        -0.8165
      5 PB          2.9040   -1.8329   -6.1936 P.3       1 ATP         1.6877
      6 O1B         3.7310   -1.0914   -7.2201 O.co2     1 ATP        -0.8727
      7 O2B         1.5334   -2.3740   -6.5345 O.co2     1 ATP        -0.8727
      8 O3B         3.8050   -3.0439   -5.5713 O.3       1 ATP        -0.8330
      9 PA          3.9554   -0.2064   -3.9565 P.3       1 ATP         1.6036
     10 O1A         4.6400    0.8514   -4.7948 O.co2     1 ATP        -0.9062
     11 O2A         4.7576   -1.2975   -3.2816 O.co2     1 ATP        -0.9062
     12 O3A         2.7840   -0.9098   -4.8526 O.3       1 ATP        -0.8166
     13 O5'         3.0213    0.5153   -2.8245 O.3       1 ATP        -0.5510
     14 C5'         2.2816   -0.2918   -1.9206 C.3       1 ATP         0.2099
     15 C4'         2.7248    0.0226   -0.4980 C.3       1 ATP         0.0598
     16 O4'         2.4697    1.4219   -0.2462 O.3       1 ATP        -0.3455
     17 C3'         1.9404   -0.7419    0.5596 C.3       1 ATP         0.0742
     18 O3'         2.7418   -0.8086    1.7389 O.3       1 ATP        -0.6025
     19 C2'         0.7477    0.1630    0.7858 C.3       1 ATP         0.1145
     20 O2'         0.1373   -0.0577    2.0407 O.3       1 ATP        -0.5835
     21 C1'         1.3733    1.5427    0.6747 C.3       1 ATP         0.3776
     22 N9          0.4520    2.5240    0.1767 N.pl3     1 ATP        -0.4429
     23 C8          0.2216    2.8192   -1.0985 C.ar      1 ATP         0.2964
     24 N7         -0.6906    3.7763   -1.2384 N.pl3     1 ATP        -0.4957
     25 C5         -1.0575    4.1037    0.0366 C.ar      1 ATP        -0.1346
     26 C6         -2.0291    5.0943    0.5330 C.ar      1 ATP         0.7213
     27 N6         -2.7093    5.8371   -0.2800 N.2       1 ATP        -0.8215
     28 N1         -2.1051    5.1136    1.9204 N.pl3     1 ATP        -0.8455
     29 C2         -1.3354    4.2774    2.7129 C.ar      1 ATP         0.6477
     30 N3         -0.4707    3.3945    2.2944 N.2       1 ATP        -0.5707
     31 C4         -0.3734    3.3525    0.9220 C.ar      1 ATP         0.2637
     32 HOG3        6.0687   -3.1863   -7.1832 H         1 ATP         0.4378
     33 H5'1        1.2163   -0.0770   -2.0471 H         1 ATP         0.0340
     34 H5'2        2.4655   -1.3443   -2.1563 H         1 ATP         0.0340
     35 H4'         3.8044   -0.1397   -0.4040 H         1 ATP         0.0910
     36 H3'         1.6764   -1.7639    0.2728 H         1 ATP         0.0656
     37 HO3'        2.2232   -1.2979    2.3953 H         1 ATP         0.4386
     38 H2'        -0.0011    0.0027    0.0003 H         1 ATP         0.0788
     39 HO2'       -0.6141    0.5574    2.1082 H         1 ATP         0.4363
     40 H1'         1.7826    1.9024    1.6451 H         1 ATP         0.1225
     41 H8          0.7125    2.3429   -1.9292 H         1 ATP         0.3824
     42 HN62       -3.3217    6.4517    0.2629 H         1 ATP         0.4018
     43 H2         -1.5188    4.4223    3.7890 H         1 ATP         0.0652
     44 H44        -2.7470    5.7626    2.3665 H         1 ATP         0.4503
     45 H45        -1.0305    4.1680   -2.1054 H         1 ATP         0.5209
@<TRIPOS>BOND
     1    1    2 2
     2    1    3 1
     3    1    4 1
     4    1    8 1
     5    4   32 1
     6    5    6 2
     7    5    7 1
     8    5    8 1
     9    5   12 1
    10    9   10 2
    11    9   11 1
    12    9   12 1
    13    9   13 1
    14   13   14 1
    15   14   15 1
    16   14   33 1
    17   14   34 1
    18   15   16 1
    19   15   17 1
    20   15   35 1
    21   16   21 1
    22   17   18 1
    23   17   19 1
    24   17   36 1
    25   18   37 1
    26   19   20 1
    27   19   21 1
    28   19   38 1
    29   20   39 1
    30   21   22 1
    31   21   40 1
    32   22   23 ar
    33   22   31 ar
    34   23   24 ar
    35   23   41 1
    36   24   25 ar
    37   24   45 1
    38   25   26 ar
    39   25   31 ar
    40   26   27 2
    41   26   28 ar
    42   27   42 1
    43   28   29 ar
    44   28   44 1
    45   29   30 ar
    46   29   43 1
    47   30   31 ar
@<TRIPOS>SUBSTRUCTURE
     1 ATP         1 GROUP 0 A     ****
@<TRIPOS>MOLECULE
[[[3,4-dihydroxy-5-(6-imino-7,8-dihydro-1~{H}-purin-8-ylium-9-yl)tetrahydrofuran-2-yl]methoxy-oxido-phosphoryl]oxy-oxido-phosphoryl] hydrogen phosphate
   45    47     1     0     0
SMALL
USER_CHARGES

@<TRIPOS>ATOM
      1 PG          1.3311   -2.8902   -7.6703 P.3       1 ATP         1.5631
      2 O1G         1.8867   -2.3419   -8.9657 O.co2     1 ATP        -0.8806
      3 O2G        -0.1606   -2.9470   -7.4267 O.co2     1 ATP        -0.8806
      4 O3G         1.9530   -4.3804   -7.4287 O.3       1 ATP        -0.8165
      5 PB          3.6265   -1.9107   -6.0843 P.3       1 ATP         1.6877
      6 O1B         4.2358   -3.2566   -5.7605 O.co2     1 ATP        -0.8727
      7 O2B         4.2302   -1.0109   -7.1395 O.co2     1 ATP        -0.8727
      8 O3B         2.0423   -2.1203   -6.4192 O.3       1 ATP        -0.8330
      9 PA          2.7407    0.3769   -4.4297 P.3       1 ATP         1.6036
     10 O1A         1.2546    0.2227   -4.6707 O.co2     1 ATP        -0.9062
     11 O2A         3.5325    1.4517   -5.1421 O.co2     1 ATP        -0.9062
     12 O3A         3.4685   -1.0610   -4.6995 O.3       1 ATP        -0.8166
     13 O5'         3.0213    0.5153   -2.8245 O.3       1 ATP        -0.5510
     14 C5'         2.2816   -0.2918   -1.9206 C.3       1 ATP         0.2099
     15 C4'         2.7248    0.0226   -0.4980 C.3       1 ATP         0.0598
     16 O4'         2.4697    1.4219   -0.2462 O.3       1 ATP        -0.3455
     17 C3'         1.9404   -0.7419    0.5596 C.3       1 ATP         0.0742
     18 O3'         2.7418   -0.8086    1.7389 O.3       1 ATP        -0.6025
     19 C2'         0.7477    0.1630    0.7858 C.3       1 ATP         0.1145
     20 O2'         0.1373   -0.0577    2.0407 O.3       1 ATP        -0.5835
     21 C1'         1.3733    1.5427    0.6747 C.3       1 ATP         0.3776
     22 N9          0.4520    2.5240    0.1767 N.pl3     1 ATP        -0.4429
     23 C8          0.2216    2.8192   -1.0985 C.ar      1 ATP         0.2964
     24 N7         -0.6906    3.7763   -1.2384 N.pl3     1 ATP        -0.4957
     25 C5         -1.0575    4.1037    0.0366 C.ar      1 ATP        -0.1346
     26 C6         -2.0291    5.0943    0.5330 C.ar      1 ATP         0.7213
     27 N6         -2.7093    5.8371   -0.2800 N.2       1 ATP        -0.8215
     28 N1         -2.1051    5.1136    1.9204 N.pl3     1 ATP        -0.8455
     29 C2         -1.3354    4.2774    2.7129 C.ar      1 ATP         0.6477
     30 N3         -0.4707    3.3945    2.2944 N.2       1 ATP        -0.5707
     31 C4         -0.3734    3.3525    0.9220 C.ar      1 ATP         0.2637
     32 HOG3        2.9267   -4.4736   -7.3548 H         1 ATP         0.4378
     33 H5'1        1.2163   -0.0770   -2.0471 H         1 ATP         0.0340
     34 H5'2        2.4655   -1.3443   -2.1563 H         1 ATP         0.0340
     35 H4'         3.8044   -0.1397   -0.4040 H         1 ATP         0.0910
     36 H3'         1.6764   -1.7639    0.2728 H         1 ATP         0.0656
     37 HO3'        3.5554   -1.2733    1.4914 H         1 ATP         0.4386
     38 H2'        -0.0011    0.0027    0.0003 H         1 ATP         0.0788
     39 HO2'       -0.1563   -0.9855    2.0596 H         1 ATP         0.4363
     40 H1'         1.7826    1.9024    1.6451 H         1 ATP         0.1225
     41 H8          0.7125    2.3429   -1.9292 H         1 ATP         0.3824
     42 HN62       -3.3217    6.4517    0.2629 H         1 ATP         0.4018
     43 H2         -1.5188    4.4223    3.7890 H         1 ATP         0.0652
     44 H44        -2.7470    5.7626    2.3665 H         1 ATP         0.4503
     45 H45        -1.0305    4.1680   -2.1054 H         1 ATP         0.5209
@<TRIPOS>BOND
     1    1    2 2
     2    1    3 1
     3    1    4 1
     4    1    8 1
     5    4   32 1
     6    5    6 2
     7    5    7 1
     8    5    8 1
     9    5   12 1
    10    9   10 2
    11    9   11 1
    12    9   12 1
    13    9   13 1
    14   13   14 1
    15   14   15 1
    16   14   33 1
    17   14   34 1
    18   15   16 1
    19   15   17 1
    20   15   35 1
    21   16   21 1
    22   17   18 1
    23   17   19 1
    24   17   36 1
    25   18   37 1
    26   19   20 1
    27   19   21 1
    28   19   38 1
    29   20   39 1
    30   21   22 1
    31   21   40 1
    32   22   23 ar
    33   22   31 ar
    34   23   24 ar
    35   23   41 1
    36   24   25 ar
    37   24   45 1
    38   25   26 ar
    39   25   31 ar
    40   26   27 2
    41   26   28 ar
    42   27   42 1
    43   28   29 ar
    44   28   44 1
    45   29   30 ar
    46   29   43 1
    47   30   31 ar
@<TRIPOS>SUBSTRUCTURE
     1 ATP         1 GROUP 0 A     ****
@<TRIPOS>MOLECULE
[[[3,4-dihydroxy-5-(6-imino-7,8-dihydro-1~{H}-purin-8-ylium-9-yl)tetrahydrofuran-2-yl]methoxy-oxido-phosphoryl]oxy-oxido-phosphoryl] hydrogen phosphate
   45    47     1     0     0
SMALL
USER_CHARGES

@<TRIPOS>ATOM
      1 PG          6.5300    0.1830   -6.3230 P.3       1 ATP         1.5631
      2 O1G         7.2819   -0.9560   -6.9748 O.co2     1 ATP        -0.8806
      3 O2G         7.1900    1.0509   -5.2747 O.co2     1 ATP        -0.8806
      4 O3G         5.9341    1.1497   -7.4961 O.3       1 ATP        -0.8165
      5 PB          4.8431   -1.4299   -4.5074 P.3       1 ATP         1.6877
      6 O1B         5.3599   -2.7929   -4.9108 O.co2     1 ATP        -0.8727
      7 O2B         5.2704   -0.7830   -3.2088 O.co2     1 ATP        -0.8727
      8 O3B         5.1189   -0.3828   -5.7294 O.3       1 ATP        -0.8330
      9 PA          2.1372   -2.2718   -3.6563 P.3       1 ATP         1.6036
     10 O1A         2.4859   -3.7437   -3.7017 O.co2     1 ATP        -0.9062
     11 O2A         0.7459   -1.7951   -4.0125 O.co2     1 ATP        -0.9062
     12 O3A         3.2120   -1.4489   -4.5713 O.3       1 ATP        -0.8166
     13 O5'         2.5245   -1.6648   -2.1878 O.3       1 ATP        -0.5510
     14 C5'         2.2816   -0.2918   -1.9206 C.3       1 ATP         0.2099
     15 C4'         2.7248    0.0226   -0.4980 C.3       1 ATP         0.0598
     16 O4'         2.4697    1.4219   -0.2462 O.3       1 ATP        -0.3455
     17 C3'         1.9404   -0.7419    0.5596 C.3       1 ATP         0.0742
     18 O3'         2.7418   -0.8086    1.7389 O.3       1 ATP        -0.6025
     19 C2'         0.7477    0.1630    0.7858 C.3       1 ATP         0.1145
     20 O2'         0.1373   -0.0577    2.0407 O.3       1 ATP        -0.5835
     21 C1'         1.3733    1.5427    0.6747 C.3       1 ATP         0.3776
     22 N9          0.4520    2.5240    0.1767 N.pl3     1 ATP        -0.4429
     23 C8         -0.2004    2.4829   -0.9804 C.ar      1 ATP         0.2964
     24 N7         -0.9830    3.5431   -1.1568 N.pl3     1 ATP        -0.4957
     25 C5         -0.8095    4.3012   -0.0331 C.ar      1 ATP        -0.1346
     26 C6         -1.4065    5.5904    0.3585 C.ar      1 ATP         0.7213
     27 N6         -2.2501    6.2030   -0.4084 N.2       1 ATP        -0.8215
     28 N1         -0.9585    6.0272    1.5994 N.pl3     1 ATP        -0.8455
     29 C2         -0.0508    5.3009    2.3532 C.ar      1 ATP         0.6477
     30 N3          0.4890    4.1592    2.0257 N.2       1 ATP        -0.5707
     31 C4          0.0637    3.7006    0.7995 C.ar      1 ATP         0.2637
     32 HOG3        5.4169    1.9402   -7.2318 H         1 ATP         0.4378
     33 H5'1        2.8432    0.3119   -2.6398 H         1 ATP         0.0340
     34 H5'2        1.2128   -0.0927   -2.0428 H         1 ATP         0.0340
     35 H4'         3.8044   -0.1397   -0.4040 H         1 ATP         0.0910
     36 H3'         1.6764   -1.7639    0.2728 H         1 ATP         0.0656
     37 HO3'        2.2232   -1.2979    2.3953 H         1 ATP         0.4386
     38 H2'        -0.0011    0.0027    0.0003 H         1 ATP         0.0788
     39 HO2'       -0.1563   -0.9855    2.0596 H         1 ATP         0.4363
     40 H1'         1.7826    1.9024    1.6451 H         1 ATP         0.1225
     41 H8         -0.1116    1.6863   -1.6984 H         1 ATP         0.3824
     42 HN62       -2.5420    7.0730    0.0447 H         1 ATP         0.4018
     43 H2          0.1969    5.7893    3.3086 H         1 ATP         0.0652
     44 H44        -1.3097    6.9080    1.9642 H         1 ATP         0.4503
     45 H45        -1.5735    3.7351   -1.9538 H         1 ATP         0.5209
@<TRIPOS>BOND
     1    1    2 2
     2    1    3 1
     3    1    4 1
     4    1    8 1
     5    4   32 1
     6    5    6 2
     7    5    7 1
     8    5    8 1
     9    5   12 1
    10    9   10 2
    11    9   11 1
    12    9   12 1
    13    9   13 1
    14   13   14 1
    15   14   15 1
    16   14   33 1
    17   14   34 1
    18   15   16 1
    19   15   17 1
    20   15   35 1
    21   16   21 1
    22   17   18 1
    23   17   19 1
    24   17   36 1
    25   18   37 1
    26   19   20 1
    27   19   21 1
    28   19   38 1
    29   20   39 1
    30   21   22 1
    31   21   40 1
    32   22   23 ar
    33   22   31 ar
    34   23   24 ar
    35   23   41 1
    36   24   25 ar
    37   24   45 1
    38   25   26 ar
    39   25   31 ar
    40   26   27 2
    41   26   28 ar
    42   27   42 1
    43   28   29 ar
    44   28   44 1
    45   29   30 ar
    46   29   43 1
    47   30   31 ar
@<TRIPOS>SUBSTRUCTURE
     1 ATP         1 GROUP 0 A     ****
@<TRIPOS>MOLECULE
[[[3,4-dihydroxy-5-(6-imino-7,8-dihydro-1~{H}-purin-8-ylium-9-yl)tetrahydrofuran-2-yl]methoxy-oxido-phosphoryl]oxy-oxido-phosphoryl] hydrogen phosphate
   45    47     1     0     0
SMALL
USER_CHARGES

@<TRIPOS>ATOM
      1 PG          0.9474   -3.6839   -5.3252 P.3       1 ATP         1.5631
      2 O1G        -0.0107   -2.5203   -5.2008 O.co2     1 ATP        -0.8806
      3 O2G         1.2025   -4.6091   -4.1562 O.co2     1 ATP        -0.8806
      4 O3G         0.5046   -4.5851   -6.6127 O.3       1 ATP        -0.8165
      5 PB          3.4710   -2.1492   -5.1827 P.3       1 ATP         1.6877
      6 O1B         3.8213   -2.7081   -3.8217 O.co2     1 ATP        -0.8727
      7 O2B         4.5460   -1.8154   -6.1929 O.co2     1 ATP        -0.8727
      8 O3B         2.3781   -3.1360   -5.8881 O.3       1 ATP        -0.8330
      9 PA          2.8621    0.6170   -4.3270 P.3       1 ATP         1.6036
     10 O1A         1.5883    1.4306   -4.2519 O.co2     1 ATP        -0.9062
     11 O2A         4.0923    1.1678   -5.0148 O.co2     1 ATP        -0.9062
     12 O3A         2.5170   -0.8400   -4.9811 O.3       1 ATP        -0.8166
     13 O5'         3.2903    0.1346   -2.8241 O.3       1 ATP        -0.5510
     14 C5'         2.2816   -0.2918   -1.9206 C.3       1 ATP         0.2099
     15 C4'         2.7248    0.0226   -0.4980 C.3       1 ATP         0.0598
     16 O4'         2.4697    1.4219   -0.2462 O.3       1 ATP        -0.3455
     17 C3'         1.9404   -0.7419    0.5596 C.3       1 ATP         0.0742
     18 O3'         2.7418   -0.8086    1.7389 O.3       1 ATP        -0.6025
     19 C2'         0.7477    0.1630    0.7858 C.3       1 ATP         0.1145
     20 O2'         0.1373   -0.0577    2.0407 O.3       1 ATP        -0.5835
     21 C1'         1.3733    1.5427    0.6747 C.3       1 ATP         0.3776
     22 N9          0.4520    2.5240    0.1767 N.pl3     1 ATP        -0.4429
     23 C8          0.2216    2.8192   -1.0985 C.ar      1 ATP         0.2964
     24 N7         -0.6906    3.7763   -1.2384 N.pl3     1 ATP        -0.4957
     25 C5         -1.0575    4.1037    0.0366 C.ar      1 ATP        -0.1346
     26 C6         -2.0291    5.0943    0.5330 C.ar      1 ATP         0.7213
     27 N6         -2.7093    5.8371   -0.2800 N.2       1 ATP        -0.8215
     28 N1         -2.1051    5.1136    1.9204 N.pl3     1 ATP        -0.8455
     29 C2         -1.3354    4.2774    2.7129 C.ar      1 ATP         0.6477
     30 N3         -0.4707    3.3945    2.2944 N.2       1 ATP        -0.5707
     31 C4         -0.3734    3.3525    0.9220 C.ar      1 ATP         0.2637
     32 HOG3        1.0327   -5.3832   -6.8278 H         1 ATP         0.4378
     33 H5'1        1.3514    0.2330   -2.1577 H         1 ATP         0.0340
     34 H5'2        2.1280   -1.3678   -2.0460 H         1 ATP         0.0340
     35 H4'         3.8044   -0.1397   -0.4040 H         1 ATP         0.0910
     36 H3'         1.6764   -1.7639    0.2728 H         1 ATP         0.0656
     37 HO3'        2.2232   -1.2979    2.3953 H         1 ATP         0.4386
     38 H2'        -0.0011    0.0027    0.0003 H         1 ATP         0.0788
     39 HO2'       -0.1563   -0.9855    2.0596 H         1 ATP         0.4363
     40 H1'         1.7826    1.9024    1.6451 H         1 ATP         0.1225
     41 H8          0.7125    2.3429   -1.9292 H         1 ATP         0.3824
     42 HN62       -3.3217    6.4517    0.2629 H         1 ATP         0.4018
     43 H2         -1.5188    4.4223    3.7890 H         1 ATP         0.0652
     44 H44        -2.7470    5.7626    2.3665 H         1 ATP         0.4503
     45 H45        -1.0305    4.1680   -2.1054 H         1 ATP         0.5209
@<TRIPOS>BOND
     1    1    2 2
     2    1    3 1
     3    1    4 1
     4    1    8 1
     5    4   32 1
     6    5    6 2
     7    5    7 1
     8    5    8 1
     9    5   12 1
    10    9   10 2
    11    9   11 1
    12    9   12 1
    13    9   13 1
    14   13   14 1
    15   14   15 1
    16   14   33 1
    17   14   34 1
    18   15   16 1
    19   15   17 1
    20   15   35 1
    21   16   21 1
    22   17   18 1
    23   17   19 1
    24   17   36 1
    25   18   37 1
    26   19   20 1
    27   19   21 1
    28   19   38 1
    29   20   39 1
    30   21   22 1
    31   21   40 1
    32   22   23 ar
    33   22   31 ar
    34   23   24 ar
    35   23   41 1
    36   24   25 ar
    37   24   45 1
    38   25   26 ar
    39   25   31 ar
    40   26   27 2
    41   26   28 ar
    42   27   42 1
    43   28   29 ar
    44   28   44 1
    45   29   30 ar
    46   29   43 1
    47   30   31 ar
@<TRIPOS>SUBSTRUCTURE
     1 ATP         1 GROUP 0 A     ****
@<TRIPOS>MOLECULE
[[[3,4-dihydroxy-5-(6-imino-7,8-dihydro-1~{H}-purin-8-ylium-9-yl)tetrahydrofuran-2-yl]methoxy-oxido-phosphoryl]oxy-oxido-phosphoryl] hydrogen phosphate
   45    47     1     0     0
SMALL
USER_CHARGES

@<TRIPOS>ATOM
      1 PG          4.1302   -0.8968   -8.7162 P.3       1 ATP         1.5631
      2 O1G         4.9184    0.3343   -9.1044 O.co2     1 ATP        -0.8806
      3 O2G         2.9604   -1.3663   -9.5522 O.co2     1 ATP        -0.8806
      4 O3G         5.1700   -2.1423   -8.5338 O.3       1 ATP        -0.8165
      5 PB          2.9040   -1.8329   -6.1936 P.3       1 ATP         1.6877
      6 O1B         1.5138   -2.0918   -6.7299 O.co2     1 ATP        -0.8727
      7 O2B         3.8608   -2.9707   -5.9154 O.co2     1 ATP        -0.8727
      8 O3B         3.6463   -0.7502   -7.1644 O.3       1 ATP        -0.8330
      9 PA          3.9554   -0.2064   -3.9565 P.3       1 ATP         1.6036
     10 O1A         4.6400    0.8514   -4.7948 O.co2     1 ATP        -0.9062
     11 O2A         4.7576   -1.2975   -3.2816 O.co2     1 ATP        -0.9062
     12 O3A         2.7840   -0.9098   -4.8526 O.3       1 ATP        -0.8166
     13 O5'         3.0213    0.5153   -2.8245 O.3       1 ATP        -0.5510
     14 C5'         2.2816   -0.2918   -1.9206 C.3       1 ATP         0.2099
     15 C4'         2.7248    0.0226   -0.4980 C.3       1 ATP         0.0598
     16 O4'         2.4697    1.4219   -0.2462 O.3       1 ATP        -0.3455
     17 C3'         1.9404   -0.7419    0.5596 C.3       1 ATP         0.0742
     18 O3'         2.7418   -0.8086    1.7389 O.3       1 ATP        -0.6025
     19 C2'         0.7477    0.1630    0.7858 C.3       1 ATP         0.1145
     20 O2'         0.1373   -0.0577    2.0407 O.3       1 ATP        -0.5835
     21 C1'         1.3733    1.5427    0.6747 C.3       1 ATP         0.3776
     22 N9          0.4520    2.5240    0.1767 N.pl3     1 ATP        -0.4429
     23 C8          0.2216    2.8192   -1.0985 C.ar      1 ATP         0.2964
     24 N7         -0.6906    3.7763   -1.2384 N.pl3     1 ATP        -0.4957
     25 C5         -1.0575    4.1037    0.0366 C.ar      1 ATP        -0.1346
     26 C6         -2.0291    5.0943    0.5330 C.ar      1 ATP         0.7213
     27 N6         -2.7093    5.8371   -0.2800 N.2       1 ATP        -0.8215
     28 N1         -2.1051    5.1136    1.9204 N.pl3     1 ATP        -0.8455
     29 C2         -1.3354    4.2774    2.7129 C.ar      1 ATP         0.6477
     30 N3         -0.4707    3.3945    2.2944 N.2       1 ATP        -0.5707
     31 C4         -0.3734    3.3525    0.9220 C.ar      1 ATP         0.2637
     32 HOG3        4.8091   -3.0185   -8.2804 H         1 ATP         0.4378
     33 H5'1        1.2163   -0.0770   -2.0471 H         1 ATP         0.0340
     34 H5'2        2.4655   -1.3443   -2.1563 H         1 ATP         0.0340
     35 H4'         3.8044   -0.1397   -0.4040 H         1 ATP         0.0910
     36 H3'         1.6764   -1.7639    0.2728 H         1 ATP         0.0656
     37 HO3'        2.2232   -1.2979    2.3953 H         1 ATP         0.4386
     38 H2'        -0.0011    0.0027    0.0003 H         1 ATP         0.0788
     39 HO2'       -0.6141    0.5574    2.1082 H         1 ATP         0.4363
     40 H1'         1.7826    1.9024    1.6451 H         1 ATP         0.1225
     41 H8          0.7125    2.3429   -1.9292 H         1 ATP         0.3824
     42 HN62       -3.3217    6.4517    0.2629 H         1 ATP         0.4018
     43 H2         -1.5188    4.4223    3.7890 H         1 ATP         0.0652
     44 H44        -2.7470    5.7626    2.3665 H         1 ATP         0.4503
     45 H45        -1.0305    4.1680   -2.1054 H         1 ATP         0.5209
@<TRIPOS>BOND
     1    1    2 2
     2    1    3 1
     3    1    4 1
     4    1    8 1
     5    4   32 1
     6    5    6 2
     7    5    7 1
     8    5    8 1
     9    5   12 1
    10    9   10 2
    11    9   11 1
    12    9   12 1
    13    9   13 1
    14   13   14 1
    15   14   15 1
    16   14   33 1
    17   14   34 1
    18   15   16 1
    19   15   17 1
    20   15   35 1
    21   16   21 1
    22   17   18 1
    23   17   19 1
    24   17   36 1
    25   18   37 1
    26   19   20 1
    27   19   21 1
    28   19   38 1
    29   20   39 1
    30   21   22 1
    31   21   40 1
    32   22   23 ar
    33   22   31 ar
    34   23   24 ar
    35   23   41 1
    36   24   25 ar
    37   24   45 1
    38   25   26 ar
    39   25   31 ar
    40   26   27 2
    41   26   28 ar
    42   27   42 1
    43   28   29 ar
    44   28   44 1
    45   29   30 ar
    46   29   43 1
    47   30   31 ar
@<TRIPOS>SUBSTRUCTURE
     1 ATP         1 GROUP 0 A     ****
@<TRIPOS>MOLECULE
[[[3,4-dihydroxy-5-(6-imino-7,8-dihydro-1~{H}-purin-8-ylium-9-yl)tetrahydrofuran-2-yl]methoxy-oxido-phosphoryl]oxy-oxido-phosphoryl] hydrogen phosphate
   45    47     1     0     0
SMALL
USER_CHARGES

@<TRIPOS>ATOM
      1 PG          7.8876   -3.9824   -4.1379 P.3       1 ATP         1.5631
      2 O1G         9.0605   -3.8056   -3.1996 O.co2     1 ATP        -0.8806
      3 O2G         8.0335   -3.7262   -5.6214 O.co2     1 ATP        -0.8806
      4 O3G         7.2771   -5.4821   -3.9283 O.3       1 ATP        -0.8165
      5 PB          6.4334   -1.5035   -3.4420 P.3       1 ATP         1.6877
      6 O1B         7.4045   -0.9855   -2.4046 O.co2     1 ATP        -0.8727
      7 O2B         6.3783   -0.9065   -4.8305 O.co2     1 ATP        -0.8727
      8 O3B         6.6218   -3.1199   -3.5742 O.3       1 ATP        -0.8330
      9 PA          3.5300   -2.0730   -3.4114 P.3       1 ATP         1.6036
     10 O1A         3.6301   -3.5805   -3.5006 O.co2     1 ATP        -0.9062
     11 O2A         3.1564   -1.2495   -4.6246 O.co2     1 ATP        -0.9062
     12 O3A         4.9303   -1.4885   -2.8054 O.3       1 ATP        -0.8166
     13 O5'         2.5245   -1.6648   -2.1878 O.3       1 ATP        -0.5510
     14 C5'         2.2816   -0.2918   -1.9206 C.3       1 ATP         0.2099
     15 C4'         2.7248    0.0226   -0.4980 C.3       1 ATP         0.0598
     16 O4'         2.4697    1.4219   -0.2462 O.3       1 ATP        -0.3455
     17 C3'         1.9404   -0.7419    0.5596 C.3       1 ATP         0.0742
     18 O3'         2.7418   -0.8086    1.7389 O.3       1 ATP        -0.6025
     19 C2'         0.7477    0.1630    0.7858 C.3       1 ATP         0.1145
     20 O2'         0.1373   -0.0577    2.0407 O.3       1 ATP        -0.5835
     21 C1'         1.3733    1.5427    0.6747 C.3       1 ATP         0.3776
     22 N9          0.4520    2.5240    0.1767 N.pl3     1 ATP        -0.4429
     23 C8          0.2216    2.8192   -1.0985 C.ar      1 ATP         0.2964
     24 N7         -0.6906    3.7763   -1.2384 N.pl3     1 ATP        -0.4957
     25 C5         -1.0575    4.1037    0.0366 C.ar      1 ATP        -0.1346
     26 C6         -2.0291    5.0943    0.5330 C.ar      1 ATP         0.7213
     27 N6         -2.7093    5.8371   -0.2800 N.2       1 ATP        -0.8215
     28 N1         -2.1051    5.1136    1.9204 N.pl3     1 ATP        -0.8455
     29 C2         -1.3354    4.2774    2.7129 C.ar      1 ATP         0.6477
     30 N3         -0.4707    3.3945    2.2944 N.2       1 ATP        -0.5707
     31 C4         -0.3734    3.3525    0.9220 C.ar      1 ATP         0.2637
     32 HOG3        6.5050   -5.7518   -4.4700 H         1 ATP         0.4378
     33 H5'1        2.8432    0.3119   -2.6398 H         1 ATP         0.0340
     34 H5'2        1.2128   -0.0927   -2.0428 H         1 ATP         0.0340
     35 H4'         3.8044   -0.1397   -0.4040 H         1 ATP         0.0910
     36 H3'         1.6764   -1.7639    0.2728 H         1 ATP         0.0656
     37 HO3'        2.2232   -1.2979    2.3953 H         1 ATP         0.4386
     38 H2'        -0.0011    0.0027    0.0003 H         1 ATP         0.0788
     39 HO2'       -0.6141    0.5574    2.1082 H         1 ATP         0.4363
     40 H1'         1.7826    1.9024    1.6451 H         1 ATP         0.1225
     41 H8          0.7125    2.3429   -1.9292 H         1 ATP         0.3824
     42 HN62       -3.3217    6.4517    0.2629 H         1 ATP         0.4018
     43 H2         -1.5188    4.4223    3.7890 H         1 ATP         0.0652
     44 H44        -2.7470    5.7626    2.3665 H         1 ATP         0.4503
     45 H45        -1.0305    4.1680   -2.1054 H         1 ATP         0.5209
@<TRIPOS>BOND
     1    1    2 2
     2    1    3 1
     3    1    4 1
     4    1    8 1
     5    4   32 1
     6    5    6 2
     7    5    7 1
     8    5    8 1
     9    5   12 1
    10    9   10 2
    11    9   11 1
    12    9   12 1
    13    9   13 1
    14   13   14 1
    15   14   15 1
    16   14   33 1
    17   14   34 1
    18   15   16 1
    19   15   17 1
    20   15   35 1
    21   16   21 1
    22   17   18 1
    23   17   19 1
    24   17   36 1
    25   18   37 1
    26   19   20 1
    27   19   21 1
    28   19   38 1
    29   20   39 1
    30   21   22 1
    31   21   40 1
    32   22   23 ar
    33   22   31 ar
    34   23   24 ar
    35   23   41 1
    36   24   25 ar
    37   24   45 1
    38   25   26 ar
    39   25   31 ar
    40   26   27 2
    41   26   28 ar
    42   27   42 1
    43   28   29 ar
    44   28   44 1
    45   29   30 ar
    46   29   43 1
    47   30   31 ar
@<TRIPOS>SUBSTRUCTURE
     1 ATP         1 GROUP 0 A     ****
@<TRIPOS>MOLECULE
[[[3,4-dihydroxy-5-(6-imino-7,8-dihydro-1~{H}-purin-8-ylium-9-yl)tetrahydrofuran-2-yl]methoxy-oxido-phosphoryl]oxy-oxido-phosphoryl] hydrogen phosphate
   45    47     1     0     0
SMALL
USER_CHARGES

@<TRIPOS>ATOM
      1 PG          3.1892    0.5982   -6.7166 P.3       1 ATP         1.5631
      2 O1G         4.3089    1.6081   -6.8345 O.co2     1 ATP        -0.8806
      3 O2G         2.1714    0.6929   -5.6018 O.co2     1 ATP        -0.8806
      4 O3G         2.3936    0.5372   -8.1411 O.3       1 ATP        -0.8165
      5 PB          4.7775   -1.6435   -5.6233 P.3       1 ATP         1.6877
      6 O1B         4.9516   -3.0909   -6.0261 O.co2     1 ATP        -0.8727
      7 O2B         5.9720   -0.7592   -5.3430 O.co2     1 ATP        -0.8727
      8 O3B         3.8261   -0.9044   -6.7252 O.3       1 ATP        -0.8330
      9 PA          3.9668   -2.1116   -2.8163 P.3       1 ATP         1.6036
     10 O1A         5.0719   -1.3107   -2.1623 O.co2     1 ATP        -0.9062
     11 O2A         4.0210   -3.6235   -2.8465 O.co2     1 ATP        -0.9062
     12 O3A         3.7633   -1.5743   -4.3459 O.3       1 ATP        -0.8166
     13 O5'         2.5245   -1.6648   -2.1878 O.3       1 ATP        -0.5510
     14 C5'         2.2816   -0.2918   -1.9206 C.3       1 ATP         0.2099
     15 C4'         2.7248    0.0226   -0.4980 C.3       1 ATP         0.0598
     16 O4'         2.4697    1.4219   -0.2462 O.3       1 ATP        -0.3455
     17 C3'         1.9404   -0.7419    0.5596 C.3       1 ATP         0.0742
     18 O3'         2.7418   -0.8086    1.7389 O.3       1 ATP        -0.6025
     19 C2'         0.7477    0.1630    0.7858 C.3       1 ATP         0.1145
     20 O2'         0.1373   -0.0577    2.0407 O.3       1 ATP        -0.5835
     21 C1'         1.3733    1.5427    0.6747 C.3       1 ATP         0.3776
     22 N9          0.4520    2.5240    0.1767 N.pl3     1 ATP        -0.4429
     23 C8          0.2216    2.8192   -1.0985 C.ar      1 ATP         0.2964
     24 N7         -0.6906    3.7763   -1.2384 N.pl3     1 ATP        -0.4957
     25 C5         -1.0575    4.1037    0.0366 C.ar      1 ATP        -0.1346
     26 C6         -2.0291    5.0943    0.5330 C.ar      1 ATP         0.7213
     27 N6         -2.7093    5.8371   -0.2800 N.2       1 ATP        -0.8215
     28 N1         -2.1051    5.1136    1.9204 N.pl3     1 ATP        -0.8455
     29 C2         -1.3354    4.2774    2.7129 C.ar      1 ATP         0.6477
     30 N3         -0.4707    3.3945    2.2944 N.2       1 ATP        -0.5707
     31 C4         -0.3734    3.3525    0.9220 C.ar      1 ATP         0.2637
     32 HOG3        1.6334   -0.0770   -8.2253 H         1 ATP         0.4378
     33 H5'1        2.8432    0.3119   -2.6398 H         1 ATP         0.0340
     34 H5'2        1.2128   -0.0927   -2.0428 H         1 ATP         0.0340
     35 H4'         3.8044   -0.1397   -0.4040 H         1 ATP         0.0910
     36 H3'         1.6764   -1.7639    0.2728 H         1 ATP         0.0656
     37 HO3'        2.2232   -1.2979    2.3953 H         1 ATP         0.4386
     38 H2'        -0.0011    0.0027    0.0003 H         1 ATP         0.0788
     39 HO2'       -0.6141    0.5574    2.1082 H         1 ATP         0.4363
     40 H1'         1.7826    1.9024    1.6451 H         1 ATP         0.1225
     41 H8          0.7125    2.3429   -1.9292 H         1 ATP         0.3824
     42 HN62       -3.3217    6.4517    0.2629 H         1 ATP         0.4018
     43 H2         -1.5188    4.4223    3.7890 H         1 ATP         0.0652
     44 H44        -2.7470    5.7626    2.3665 H         1 ATP         0.4503
     45 H45        -1.0305    4.1680   -2.1054 H         1 ATP         0.5209
@<TRIPOS>BOND
     1    1    2 2
     2    1    3 1
     3    1    4 1
     4    1    8 1
     5    4   32 1
     6    5    6 2
     7    5    7 1
     8    5    8 1
     9    5   12 1
    10    9   10 2
    11    9   11 1
    12    9   12 1
    13    9   13 1
    14   13   14 1
    15   14   15 1
    16   14   33 1
    17   14   34 1
    18   15   16 1
    19   15   17 1
    20   15   35 1
    21   16   21 1
    22   17   18 1
    23   17   19 1
    24   17   36 1
    25   18   37 1
    26   19   20 1
    27   19   21 1
    28   19   38 1
    29   20   39 1
    30   21   22 1
    31   21   40 1
    32   22   23 ar
    33   22   31 ar
    34   23   24 ar
    35   23   41 1
    36   24   25 ar
    37   24   45 1
    38   25   26 ar
    39   25   31 ar
    40   26   27 2
    41   26   28 ar
    42   27   42 1
    43   28   29 ar
    44   28   44 1
    45   29   30 ar
    46   29   43 1
    47   30   31 ar
@<TRIPOS>SUBSTRUCTURE
     1 ATP         1 GROUP 0 A     ****
@<TRIPOS>MOLECULE
[[[3,4-dihydroxy-5-(6-imino-7,8-dihydro-1~{H}-purin-8-ylium-9-yl)tetrahydrofuran-2-yl]methoxy-oxido-phosphoryl]oxy-oxido-phosphoryl] hydrogen phosphate
   45    47     1     0     0
SMALL
USER_CHARGES

@<TRIPOS>ATOM
      1 PG          5.0066   -0.8767   -8.4864 P.3       1 ATP         1.5631
      2 O1G         5.8414   -2.1278   -8.6459 O.co2     1 ATP        -0.8806
      3 O2G         5.5542    0.4781   -8.8764 O.co2     1 ATP        -0.8806
      4 O3G         3.5835   -1.1014   -9.2546 O.3       1 ATP        -0.8165
      5 PB          3.6265   -1.9107   -6.0843 P.3       1 ATP         1.6877
      6 O1B         2.2574   -2.0911   -6.7013 O.co2     1 ATP        -0.8727
      7 O2B         4.5318   -3.0946   -5.8267 O.co2     1 ATP        -0.8727
      8 O3B         4.4503   -0.8013   -6.9538 O.3       1 ATP        -0.8330
      9 PA          2.7407    0.3769   -4.4297 P.3       1 ATP         1.6036
     10 O1A         1.2546    0.2227   -4.6707 O.co2     1 ATP        -0.9062
     11 O2A         3.5325    1.4517   -5.1421 O.co2     1 ATP        -0.9062
     12 O3A         3.4685   -1.0610   -4.6995 O.3       1 ATP        -0.8166
     13 O5'         3.0213    0.5153   -2.8245 O.3       1 ATP        -0.5510
     14 C5'         2.2816   -0.2918   -1.9206 C.3       1 ATP         0.2099
     15 C4'         2.7248    0.0226   -0.4980 C.3       1 ATP         0.0598
     16 O4'         2.4697    1.4219   -0.2462 O.3       1 ATP        -0.3455
     17 C3'         1.9404   -0.7419    0.5596 C.3       1 ATP         0.0742
     18 O3'         2.7418   -0.8086    1.7389 O.3       1 ATP        -0.6025
     19 C2'         0.7477    0.1630    0.7858 C.3       1 ATP         0.1145
     20 O2'         0.1373   -0.0577    2.0407 O.3       1 ATP        -0.5835
     21 C1'         1.3733    1.5427    0.6747 C.3       1 ATP         0.3776
     22 N9          0.4520    2.5240    0.1767 N.pl3     1 ATP        -0.4429
     23 C8          0.2216    2.8192   -1.0985 C.ar      1 ATP         0.2964
     24 N7         -0.6906    3.7763   -1.2384 N.pl3     1 ATP        -0.4957
     25 C5         -1.0575    4.1037    0.0366 C.ar      1 ATP        -0.1346
     26 C6         -2.0291    5.0943    0.5330 C.ar      1 ATP         0.7213
     27 N6         -2.7093    5.8371   -0.2800 N.2       1 ATP        -0.8215
     28 N1         -2.1051    5.1136    1.9204 N.pl3     1 ATP        -0.8455
     29 C2         -1.3354    4.2774    2.7129 C.ar      1 ATP         0.6477
     30 N3         -0.4707    3.3945    2.2944 N.2       1 ATP        -0.5707
     31 C4         -0.3734    3.3525    0.9220 C.ar      1 ATP         0.2637
     32 HOG3        3.0064   -1.8389   -8.9623 H         1 ATP         0.4378
     33 H5'1        1.2163   -0.0770   -2.0471 H         1 ATP         0.0340
     34 H5'2        2.4655   -1.3443   -2.1563 H         1 ATP         0.0340
     35 H4'         3.8044   -0.1397   -0.4040 H         1 ATP         0.0910
     36 H3'         1.6764   -1.7639    0.2728 H         1 ATP         0.0656
     37 HO3'        3.5554   -1.2733    1.4914 H         1 ATP         0.4386
     38 H2'        -0.0011    0.0027    0.0003 H         1 ATP         0.0788
     39 HO2'       -0.1563   -0.9855    2.0596 H         1 ATP         0.4363
     40 H1'         1.7826    1.9024    1.6451 H         1 ATP         0.1225
     41 H8          0.7125    2.3429   -1.9292 H         1 ATP         0.3824
     42 HN62       -3.3217    6.4517    0.2629 H         1 ATP         0.4018
     43 H2         -1.5188    4.4223    3.7890 H         1 ATP         0.0652
     44 H44        -2.7470    5.7626    2.3665 H         1 ATP         0.4503
     45 H45        -1.0305    4.1680   -2.1054 H         1 ATP         0.5209
@<TRIPOS>BOND
     1    1    2 2
     2    1    3 1
     3    1    4 1
     4    1    8 1
     5    4   32 1
     6    5    6 2
     7    5    7 1
     8    5    8 1
     9    5   12 1
    10    9   10 2
    11    9   11 1
    12    9   12 1
    13    9   13 1
    14   13   14 1
    15   14   15 1
    16   14   33 1
    17   14   34 1
    18   15   16 1
    19   15   17 1
    20   15   35 1
    21   16   21 1
    22   17   18 1
    23   17   19 1
    24   17   36 1
    25   18   37 1
    26   19   20 1
    27   19   21 1
    28   19   38 1
    29   20   39 1
    30   21   22 1
    31   21   40 1
    32   22   23 ar
    33   22   31 ar
    34   23   24 ar
    35   23   41 1
    36   24   25 ar
    37   24   45 1
    38   25   26 ar
    39   25   31 ar
    40   26   27 2
    41   26   28 ar
    42   27   42 1
    43   28   29 ar
    44   28   44 1
    45   29   30 ar
    46   29   43 1
    47   30   31 ar
@<TRIPOS>SUBSTRUCTURE
     1 ATP         1 GROUP 0 A     ****
@<TRIPOS>MOLECULE
[[[3,4-dihydroxy-5-(6-imino-7,8-dihydro-1~{H}-purin-8-ylium-9-yl)tetrahydrofuran-2-yl]methoxy-oxido-phosphoryl]oxy-oxido-phosphoryl] hydrogen phosphate
   45    47     1     0     0
SMALL
USER_CHARGES

@<TRIPOS>ATOM
      1 PG          4.9661   -4.5980   -1.8927 P.3       1 ATP         1.5631
      2 O1G         4.7292   -3.3554   -1.0636 O.co2     1 ATP        -0.8806
      3 O2G         6.3532   -4.9558   -2.3780 O.co2     1 ATP        -0.8806
      4 O3G         4.3500   -5.8808   -1.0922 O.3       1 ATP        -0.8165
      5 PB          3.8904   -3.5880   -4.4552 P.3       1 ATP         1.6877
      6 O1B         5.2574   -3.5534   -5.1014 O.co2     1 ATP        -0.8727
      7 O2B         2.6504   -3.9040   -5.2616 O.co2     1 ATP        -0.8727
      8 O3B         3.9459   -4.5891   -3.1666 O.3       1 ATP        -0.8330
      9 PA          3.4844   -0.6652   -4.2374 P.3       1 ATP         1.6036
     10 O1A         2.2033   -0.5901   -5.0397 O.co2     1 ATP        -0.9062
     11 O2A         4.8033   -0.2388   -4.8443 O.co2     1 ATP        -0.9062
     12 O3A         3.6528   -2.1836   -3.6578 O.3       1 ATP        -0.8166
     13 O5'         3.2903    0.1346   -2.8241 O.3       1 ATP        -0.5510
     14 C5'         2.2816   -0.2918   -1.9206 C.3       1 ATP         0.2099
     15 C4'         2.7248    0.0226   -0.4980 C.3       1 ATP         0.0598
     16 O4'         2.4697    1.4219   -0.2462 O.3       1 ATP        -0.3455
     17 C3'         1.9404   -0.7419    0.5596 C.3       1 ATP         0.0742
     18 O3'         2.7418   -0.8086    1.7389 O.3       1 ATP        -0.6025
     19 C2'         0.7477    0.1630    0.7858 C.3       1 ATP         0.1145
     20 O2'         0.1373   -0.0577    2.0407 O.3       1 ATP        -0.5835
     21 C1'         1.3733    1.5427    0.6747 C.3       1 ATP         0.3776
     22 N9          0.4520    2.5240    0.1767 N.pl3     1 ATP        -0.4429
     23 C8          0.2216    2.8192   -1.0985 C.ar      1 ATP         0.2964
     24 N7         -0.6906    3.7763   -1.2384 N.pl3     1 ATP        -0.4957
     25 C5         -1.0575    4.1037    0.0366 C.ar      1 ATP        -0.1346
     26 C6         -2.0291    5.0943    0.5330 C.ar      1 ATP         0.7213
     27 N6         -2.7093    5.8371   -0.2800 N.2       1 ATP        -0.8215
     28 N1         -2.1051    5.1136    1.9204 N.pl3     1 ATP        -0.8455
     29 C2         -1.3354    4.2774    2.7129 C.ar      1 ATP         0.6477
     30 N3         -0.4707    3.3945    2.2944 N.2       1 ATP        -0.5707
     31 C4         -0.3734    3.3525    0.9220 C.ar      1 ATP         0.2637
     32 HOG3        4.4254   -6.7681   -1.5037 H         1 ATP         0.4378
     33 H5'1        1.3514    0.2330   -2.1577 H         1 ATP         0.0340
     34 H5'2        2.1280   -1.3678   -2.0460 H         1 ATP         0.0340
     35 H4'         3.8044   -0.1397   -0.4040 H         1 ATP         0.0910
     36 H3'         1.6764   -1.7639    0.2728 H         1 ATP         0.0656
     37 HO3'        3.5554   -1.2733    1.4914 H         1 ATP         0.4386
     38 H2'        -0.0011    0.0027    0.0003 H         1 ATP         0.0788
     39 HO2'       -0.1563   -0.9855    2.0596 H         1 ATP         0.4363
     40 H1'         1.7826    1.9024    1.6451 H         1 ATP         0.1225
     41 H8          0.7125    2.3429   -1.9292 H         1 ATP         0.3824
     42 HN62       -3.3217    6.4517    0.2629 H         1 ATP         0.4018
     43 H2         -1.5188    4.4223    3.7890 H         1 ATP         0.0652
     44 H44        -2.7470    5.7626    2.3665 H         1 ATP         0.4503
     45 H45        -1.0305    4.1680   -2.1054 H         1 ATP         0.5209
@<TRIPOS>BOND
     1    1    2 2
     2    1    3 1
     3    1    4 1
     4    1    8 1
     5    4   32 1
     6    5    6 2
     7    5    7 1
     8    5    8 1
     9    5   12 1
    10    9   10 2
    11    9   11 1
    12    9   12 1
    13    9   13 1
    14   13   14 1
    15   14   15 1
    16   14   33 1
    17   14   34 1
    18   15   16 1
    19   15   17 1
    20   15   35 1
    21   16   21 1
    22   17   18 1
    23   17   19 1
    24   17   36 1
    25   18   37 1
    26   19   20 1
    27   19   21 1
    28   19   38 1
    29   20   39 1
    30   21   22 1
    31   21   40 1
    32   22   23 ar
    33   22   31 ar
    34   23   24 ar
    35   23   41 1
    36   24   25 ar
    37   24   45 1
    38   25   26 ar
    39   25   31 ar
    40   26   27 2
    41   26   28 ar
    42   27   42 1
    43   28   29 ar
    44   28   44 1
    45   29   30 ar
    46   29   43 1
    47   30   31 ar
@<TRIPOS>SUBSTRUCTURE
     1 ATP         1 GROUP 0 A     ****
@<TRIPOS>MOLECULE
[[[3,4-dihydroxy-5-(6-imino-7,8-dihydro-1~{H}-purin-8-ylium-9-yl)tetrahydrofuran-2-yl]methoxy-oxido-phosphoryl]oxy-oxido-phosphoryl] hydrogen phosphate
   45    47     1     0     0
SMALL
USER_CHARGES

@<TRIPOS>ATOM
      1 PG         -2.5826   -2.8254   -4.4160 P.3       1 ATP         1.5631
      2 O1G        -2.8691   -4.2955   -4.6266 O.co2     1 ATP        -0.8806
      3 O2G        -1.8113   -2.0287   -5.4445 O.co2     1 ATP        -0.8806
      4 O3G        -3.9935   -2.0595   -4.1184 O.3       1 ATP        -0.8165
      5 PB         -0.4171   -3.1149   -2.4234 P.3       1 ATP         1.6877
      6 O1B        -0.1802   -2.5286   -1.0495 O.co2     1 ATP        -0.8727
      7 O2B        -0.2816   -4.6001   -2.6754 O.co2     1 ATP        -0.8727
      8 O3B        -1.8805   -2.6249   -2.9563 O.3       1 ATP        -0.8330
      9 PA          2.1372   -2.2718   -3.6563 P.3       1 ATP         1.6036
     10 O1A         2.4977   -1.2667   -4.7287 O.co2     1 ATP        -0.9062
     11 O2A         2.6452   -3.6953   -3.7281 O.co2     1 ATP        -0.9062
     12 O3A         0.5112   -2.3140   -3.5013 O.3       1 ATP        -0.8166
     13 O5'         2.5245   -1.6648   -2.1878 O.3       1 ATP        -0.5510
     14 C5'         2.2816   -0.2918   -1.9206 C.3       1 ATP         0.2099
     15 C4'         2.7248    0.0226   -0.4980 C.3       1 ATP         0.0598
     16 O4'         2.4697    1.4219   -0.2462 O.3       1 ATP        -0.3455
     17 C3'         1.9404   -0.7419    0.5596 C.3       1 ATP         0.0742
     18 O3'         2.7418   -0.8086    1.7389 O.3       1 ATP        -0.6025
     19 C2'         0.7477    0.1630    0.7858 C.3       1 ATP         0.1145
     20 O2'         0.1373   -0.0577    2.0407 O.3       1 ATP        -0.5835
     21 C1'         1.3733    1.5427    0.6747 C.3       1 ATP         0.3776
     22 N9          0.4520    2.5240    0.1767 N.pl3     1 ATP        -0.4429
     23 C8          0.2216    2.8192   -1.0985 C.ar      1 ATP         0.2964
     24 N7         -0.6906    3.7763   -1.2384 N.pl3     1 ATP        -0.4957
     25 C5         -1.0575    4.1037    0.0366 C.ar      1 ATP        -0.1346
     26 C6         -2.0291    5.0943    0.5330 C.ar      1 ATP         0.7213
     27 N6         -2.7093    5.8371   -0.2800 N.2       1 ATP        -0.8215
     28 N1         -2.1051    5.1136    1.9204 N.pl3     1 ATP        -0.8455
     29 C2         -1.3354    4.2774    2.7129 C.ar      1 ATP         0.6477
     30 N3         -0.4707    3.3945    2.2944 N.2       1 ATP        -0.5707
     31 C4         -0.3734    3.3525    0.9220 C.ar      1 ATP         0.2637
     32 HOG3       -3.9749   -1.0917   -3.9592 H         1 ATP         0.4378
     33 H5'1        2.8432    0.3119   -2.6398 H         1 ATP         0.0340
     34 H5'2        1.2128   -0.0927   -2.0428 H         1 ATP         0.0340
     35 H4'         3.8044   -0.1397   -0.4040 H         1 ATP         0.0910
     36 H3'         1.6764   -1.7639    0.2728 H         1 ATP         0.0656
     37 HO3'        3.5554   -1.2733    1.4914 H         1 ATP         0.4386
     38 H2'        -0.0011    0.0027    0.0003 H         1 ATP         0.0788
     39 HO2'       -0.1563   -0.9855    2.0596 H         1 ATP         0.4363
     40 H1'         1.7826    1.9024    1.6451 H         1 ATP         0.1225
     41 H8          0.7125    2.3429   -1.9292 H         1 ATP         0.3824
     42 HN62       -3.3217    6.4517    0.2629 H         1 ATP         0.4018
     43 H2         -1.5188    4.4223    3.7890 H         1 ATP         0.0652
     44 H44        -2.7470    5.7626    2.3665 H         1 ATP         0.4503
     45 H45        -1.0305    4.1680   -2.1054 H         1 ATP         0.5209
@<TRIPOS>BOND
     1    1    2 2
     2    1    3 1
     3    1    4 1
     4    1    8 1
     5    4   32 1
     6    5    6 2
     7    5    7 1
     8    5    8 1
     9    5   12 1
    10    9   10 2
    11    9   11 1
    12    9   12 1
    13    9   13 1
    14   13   14 1
    15   14   15 1
    16   14   33 1
    17   14   34 1
    18   15   16 1
    19   15   17 1
    20   15   35 1
    21   16   21 1
    22   17   18 1
    23   17   19 1
    24   17   36 1
    25   18   37 1
    26   19   20 1
    27   19   21 1
    28   19   38 1
    29   20   39 1
    30   21   22 1
    31   21   40 1
    32   22   23 ar
    33   22   31 ar
    34   23   24 ar
    35   23   41 1
    36   24   25 ar
    37   24   45 1
    38   25   26 ar
    39   25   31 ar
    40   26   27 2
    41   26   28 ar
    42   27   42 1
    43   28   29 ar
    44   28   44 1
    45   29   30 ar
    46   29   43 1
    47   30   31 ar
@<TRIPOS>SUBSTRUCTURE
     1 ATP         1 GROUP 0 A     ****
@<TRIPOS>MOLECULE
[[[3,4-dihydroxy-5-(6-imino-7,8-dihydro-1~{H}-purin-8-ylium-9-yl)tetrahydrofuran-2-yl]methoxy-oxido-phosphoryl]oxy-oxido-phosphoryl] hydrogen phosphate
   45    47     1     0     0
SMALL
USER_CHARGES

@<TRIPOS>ATOM
      1 PG         -5.6895   -7.3024   -1.5615 P.3       1 ATP         1.5631
      2 O1G        -5.2997   -8.7617   -1.6377 O.co2     1 ATP        -0.8806
      3 O2G        -6.0421   -6.5258   -2.8107 O.co2     1 ATP        -0.8806
      4 O3G        -6.9135   -7.1476   -0.4921 O.3       1 ATP        -0.8165
      5 PB         -4.5164   -4.9354   -0.2331 P.3       1 ATP         1.6877
      6 O1B        -4.4628   -4.0312   -1.4443 O.co2     1 ATP        -0.8727
      7 O2B        -5.5759   -4.7570    0.8314 O.co2     1 ATP        -0.8727
      8 O3B        -4.5391   -6.4875   -0.7392 O.3       1 ATP        -0.8330
      9 PA         -2.4917   -5.8416    1.7251 P.3       1 ATP         1.6036
     10 O1A        -2.4374   -7.2893    1.2876 O.co2     1 ATP        -0.9062
     11 O2A        -3.2382   -5.4398    2.9785 O.co2     1 ATP        -0.9062
     12 O3A        -3.0495   -4.9381    0.4832 O.3       1 ATP        -0.8166
     13 O5'        -0.9724   -5.2440    1.8220 O.3       1 ATP        -0.5510
     14 C5'        -0.7840   -3.8935    2.2172 C.3       1 ATP         0.2099
     15 C4'        -0.0724   -3.1466    1.1027 C.3       1 ATP         0.0598
     16 O4'        -0.8674   -3.1929   -0.0945 O.3       1 ATP        -0.3455
     17 C3'         0.1338   -1.6715    1.4027 C.3       1 ATP         0.0742
     18 O3'         1.2893   -1.4445    2.1808 O.3       1 ATP        -0.6025
     19 C2'         0.2158   -1.0724    0.0128 C.3       1 ATP         0.1145
     20 O2'         1.5141   -1.2448   -0.5513 O.3       1 ATP        -0.5835
     21 C1'        -0.7897   -1.9176   -0.7583 C.3       1 ATP         0.3776
     22 N9         -2.1040   -1.3333   -0.7704 N.pl3     1 ATP        -0.4429
     23 C8         -3.0590   -1.5123    0.1363 C.ar      1 ATP         0.2964
     24 N7         -4.1655   -0.8354   -0.1554 N.pl3     1 ATP        -0.4957
     25 C5         -3.8852   -0.1874   -1.3253 C.ar      1 ATP        -0.1346
     26 C6         -4.7113    0.7160   -2.1458 C.ar      1 ATP         0.7213
     27 N6         -5.9213    1.0209   -1.8021 N.2       1 ATP        -0.8215
     28 N1         -4.0411    1.1673   -3.2764 N.pl3     1 ATP        -0.8455
     29 C2         -2.7403    0.7865   -3.5638 C.ar      1 ATP         0.6477
     30 N3         -1.9921   -0.0108   -2.8519 N.2       1 ATP        -0.5707
     31 C4         -2.6302   -0.4747   -1.7239 C.ar      1 ATP         0.2637
     32 HOG3       -7.2814   -6.2528   -0.3298 H         1 ATP         0.4378
     33 H5'1       -1.7618   -3.4448    2.4164 H         1 ATP         0.0340
     34 H5'2       -0.1874   -3.8744    3.1341 H         1 ATP         0.0340
     35 H4'         0.8874   -3.6466    0.8805 H         1 ATP         0.0910
     36 H3'        -0.7376   -1.2333    1.9867 H         1 ATP         0.0656
     37 HO3'        1.3408   -0.4870    2.3219 H         1 ATP         0.4386
     38 H2'        -0.0384   -0.0310    0.0096 H         1 ATP         0.0788
     39 HO2'        2.1463   -0.7958    0.0370 H         1 ATP         0.4363
     40 H1'        -0.4769   -2.1002   -1.8093 H         1 ATP         0.1225
     41 H8         -2.9569   -2.1323    1.0098 H         1 ATP         0.3824
     42 HN62       -6.3169    1.6552   -2.5012 H         1 ATP         0.4018
     43 H2         -2.3612    1.2343   -4.4957 H         1 ATP         0.0652
     44 H44        -4.5223    1.7976   -3.9117 H         1 ATP         0.4503
     45 H45        -5.0218   -0.8132    0.3804 H         1 ATP         0.5209
@<TRIPOS>BOND
     1    1    2 2
     2    1    3 1
     3    1    4 1
     4    1    8 1
     5    4   32 1
     6    5    6 2
     7    5    7 1
     8    5    8 1
     9    5   12 1
    10    9   10 2
    11    9   11 1
    12    9   12 1
    13    9   13 1
    14   13   14 1
    15   14   15 1
    16   14   33 1
    17   14   34 1
    18   15   16 1
    19   15   17 1
    20   15   35 1
    21   16   21 1
    22   17   18 1
    23   17   19 1
    24   17   36 1
    25   18   37 1
    26   19   20 1
    27   19   21 1
    28   19   38 1
    29   20   39 1
    30   21   22 1
    31   21   40 1
    32   22   23 ar
    33   22   31 ar
    34   23   24 ar
    35   23   41 1
    36   24   25 ar
    37   24   45 1
    38   25   26 ar
    39   25   31 ar
    40   26   27 2
    41   26   28 ar
    42   27   42 1
    43   28   29 ar
    44   28   44 1
    45   29   30 ar
    46   29   43 1
    47   30   31 ar
@<TRIPOS>SUBSTRUCTURE
     1 ATP         1 GROUP 0 A     ****
@<TRIPOS>MOLECULE
[[[3,4-dihydroxy-5-(6-imino-7,8-dihydro-1~{H}-purin-8-ylium-9-yl)tetrahydrofuran-2-yl]methoxy-oxido-phosphoryl]oxy-oxido-phosphoryl] hydrogen phosphate
   45    47     1     0     0
SMALL
USER_CHARGES

@<TRIPOS>ATOM
      1 PG         -4.4208   -1.7462    4.8210 P.3       1 ATP         1.5631
      2 O1G        -5.6533   -2.6216    4.7742 O.co2     1 ATP        -0.8806
      3 O2G        -3.5072   -1.6254    3.6216 O.co2     1 ATP        -0.8806
      4 O3G        -4.8675   -0.2461    5.2856 O.3       1 ATP        -0.8165
      5 PB         -2.7158   -3.5318    6.4483 P.3       1 ATP         1.6877
      6 O1B        -1.9136   -3.3363    7.7155 O.co2     1 ATP        -0.8727
      7 O2B        -3.6624   -4.7012    6.2930 O.co2     1 ATP        -0.8727
      8 O3B        -3.5294   -2.1534    6.1261 O.3       1 ATP        -0.8330
      9 PA         -0.5250   -4.5707    4.7525 P.3       1 ATP         1.6036
     10 O1A        -1.1707   -5.8917    4.3943 O.co2     1 ATP        -0.9062
     11 O2A         0.5744   -4.5032    5.7901 O.co2     1 ATP        -0.9062
     12 O3A        -1.6952   -3.5113    5.1745 O.3       1 ATP        -0.8166
     13 O5'         0.0118   -3.8395    3.3916 O.3       1 ATP        -0.5510
     14 C5'        -0.7840   -3.8935    2.2172 C.3       1 ATP         0.2099
     15 C4'        -0.0724   -3.1466    1.1027 C.3       1 ATP         0.0598
     16 O4'        -0.8674   -3.1929   -0.0945 O.3       1 ATP        -0.3455
     17 C3'         0.1338   -1.6715    1.4027 C.3       1 ATP         0.0742
     18 O3'         1.2893   -1.4445    2.1808 O.3       1 ATP        -0.6025
     19 C2'         0.2158   -1.0724    0.0128 C.3       1 ATP         0.1145
     20 O2'         1.5141   -1.2448   -0.5513 O.3       1 ATP        -0.5835
     21 C1'        -0.7897   -1.9176   -0.7583 C.3       1 ATP         0.3776
     22 N9         -2.1040   -1.3333   -0.7704 N.pl3     1 ATP        -0.4429
     23 C8         -3.0590   -1.5123    0.1363 C.ar      1 ATP         0.2964
     24 N7         -4.1655   -0.8354   -0.1554 N.pl3     1 ATP        -0.4957
     25 C5         -3.8852   -0.1874   -1.3253 C.ar      1 ATP        -0.1346
     26 C6         -4.7113    0.7160   -2.1458 C.ar      1 ATP         0.7213
     27 N6         -5.9213    1.0209   -1.8021 N.2       1 ATP        -0.8215
     28 N1         -4.0411    1.1673   -3.2764 N.pl3     1 ATP        -0.8455
     29 C2         -2.7403    0.7865   -3.5638 C.ar      1 ATP         0.6477
     30 N3         -1.9921   -0.0108   -2.8519 N.2       1 ATP        -0.5707
     31 C4         -2.6302   -0.4747   -1.7239 C.ar      1 ATP         0.2637
     32 HOG3       -4.1747    0.4440    5.3644 H         1 ATP         0.4378
     33 H5'1       -0.9348   -4.9415    1.9415 H         1 ATP         0.0340
     34 H5'2       -1.7548   -3.4350    2.4278 H         1 ATP         0.0340
     35 H4'         0.8874   -3.6466    0.8805 H         1 ATP         0.0910
     36 H3'        -0.7376   -1.2333    1.9867 H         1 ATP         0.0656
     37 HO3'        1.1626   -1.9325    3.0084 H         1 ATP         0.4386
     38 H2'        -0.0384   -0.0310    0.0096 H         1 ATP         0.0788
     39 HO2'        2.1463   -0.7958    0.0370 H         1 ATP         0.4363
     40 H1'        -0.4769   -2.1002   -1.8093 H         1 ATP         0.1225
     41 H8         -2.9569   -2.1323    1.0098 H         1 ATP         0.3824
     42 HN62       -6.3169    1.6552   -2.5012 H         1 ATP         0.4018
     43 H2         -2.3612    1.2343   -4.4957 H         1 ATP         0.0652
     44 H44        -4.5223    1.7976   -3.9117 H         1 ATP         0.4503
     45 H45        -5.0218   -0.8132    0.3804 H         1 ATP         0.5209
@<TRIPOS>BOND
     1    1    2 2
     2    1    3 1
     3    1    4 1
     4    1    8 1
     5    4   32 1
     6    5    6 2
     7    5    7 1
     8    5    8 1
     9    5   12 1
    10    9   10 2
    11    9   11 1
    12    9   12 1
    13    9   13 1
    14   13   14 1
    15   14   15 1
    16   14   33 1
    17   14   34 1
    18   15   16 1
    19   15   17 1
    20   15   35 1
    21   16   21 1
    22   17   18 1
    23   17   19 1
    24   17   36 1
    25   18   37 1
    26   19   20 1
    27   19   21 1
    28   19   38 1
    29   20   39 1
    30   21   22 1
    31   21   40 1
    32   22   23 ar
    33   22   31 ar
    34   23   24 ar
    35   23   41 1
    36   24   25 ar
    37   24   45 1
    38   25   26 ar
    39   25   31 ar
    40   26   27 2
    41   26   28 ar
    42   27   42 1
    43   28   29 ar
    44   28   44 1
    45   29   30 ar
    46   29   43 1
    47   30   31 ar
@<TRIPOS>SUBSTRUCTURE
     1 ATP         1 GROUP 0 A     ****
@<TRIPOS>MOLECULE
[[[3,4-dihydroxy-5-(6-imino-7,8-dihydro-1~{H}-purin-8-ylium-9-yl)tetrahydrofuran-2-yl]methoxy-oxido-phosphoryl]oxy-oxido-phosphoryl] hydrogen phosphate
   45    47     1     0     0
SMALL
USER_CHARGES

@<TRIPOS>ATOM
      1 PG         -6.4430   -7.9080    0.8673 P.3       1 ATP         1.5631
      2 O1G        -7.2801   -7.3121   -0.2425 O.co2     1 ATP        -0.8806
      3 O2G        -7.0622   -8.2706    2.1988 O.co2     1 ATP        -0.8806
      4 O3G        -5.6648   -9.2191    0.2832 O.3       1 ATP        -0.8165
      5 PB         -5.0753   -5.4290    1.7204 P.3       1 ATP         1.6877
      6 O1B        -5.7214   -4.4906    0.7258 O.co2     1 ATP        -0.8727
      7 O2B        -5.5056   -5.4512    3.1702 O.co2     1 ATP        -0.8727
      8 O3B        -5.1485   -6.9493    1.1295 O.3       1 ATP        -0.8330
      9 PA         -2.2652   -6.0681    2.3913 P.3       1 ATP         1.6036
     10 O1A        -2.2513   -7.4754    1.8349 O.co2     1 ATP        -0.9062
     11 O2A        -2.3602   -5.8267    3.8821 O.co2     1 ATP        -0.9062
     12 O3A        -3.4569   -5.2249    1.6575 O.3       1 ATP        -0.8166
     13 O5'        -0.9724   -5.2440    1.8220 O.3       1 ATP        -0.5510
     14 C5'        -0.7840   -3.8935    2.2172 C.3       1 ATP         0.2099
     15 C4'        -0.0724   -3.1466    1.1027 C.3       1 ATP         0.0598
     16 O4'        -0.8674   -3.1929   -0.0945 O.3       1 ATP        -0.3455
     17 C3'         0.1338   -1.6715    1.4027 C.3       1 ATP         0.0742
     18 O3'         1.2893   -1.4445    2.1808 O.3       1 ATP        -0.6025
     19 C2'         0.2158   -1.0724    0.0128 C.3       1 ATP         0.1145
     20 O2'         1.5141   -1.2448   -0.5513 O.3       1 ATP        -0.5835
     21 C1'        -0.7897   -1.9176   -0.7583 C.3       1 ATP         0.3776
     22 N9         -2.1040   -1.3333   -0.7704 N.pl3     1 ATP        -0.4429
     23 C8         -3.0590   -1.5123    0.1363 C.ar      1 ATP         0.2964
     24 N7         -4.1655   -0.8354   -0.1554 N.pl3     1 ATP        -0.4957
     25 C5         -3.8852   -0.1874   -1.3253 C.ar      1 ATP        -0.1346
     26 C6         -4.7113    0.7160   -2.1458 C.ar      1 ATP         0.7213
     27 N6         -5.9213    1.0209   -1.8021 N.2       1 ATP        -0.8215
     28 N1         -4.0411    1.1673   -3.2764 N.pl3     1 ATP        -0.8455
     29 C2         -2.7403    0.7865   -3.5638 C.ar      1 ATP         0.6477
     30 N3         -1.9921   -0.0108   -2.8519 N.2       1 ATP        -0.5707
     31 C4         -2.6302   -0.4747   -1.7239 C.ar      1 ATP         0.2637
     32 HOG3       -5.0764   -9.7204    0.8872 H         1 ATP         0.4378
     33 H5'1       -1.7618   -3.4448    2.4164 H         1 ATP         0.0340
     34 H5'2       -0.1874   -3.8744    3.1341 H         1 ATP         0.0340
     35 H4'         0.8874   -3.6466    0.8805 H         1 ATP         0.0910
     36 H3'        -0.7376   -1.2333    1.9867 H         1 ATP         0.0656
     37 HO3'        1.3408   -0.4870    2.3219 H         1 ATP         0.4386
     38 H2'        -0.0384   -0.0310    0.0096 H         1 ATP         0.0788
     39 HO2'        2.1463   -0.7958    0.0370 H         1 ATP         0.4363
     40 H1'        -0.4769   -2.1002   -1.8093 H         1 ATP         0.1225
     41 H8         -2.9569   -2.1323    1.0098 H         1 ATP         0.3824
     42 HN62       -6.3169    1.6552   -2.5012 H         1 ATP         0.4018
     43 H2         -2.3612    1.2343   -4.4957 H         1 ATP         0.0652
     44 H44        -4.5223    1.7976   -3.9117 H         1 ATP         0.4503
     45 H45        -5.0218   -0.8132    0.3804 H         1 ATP         0.5209
@<TRIPOS>BOND
     1    1    2 2
     2    1    3 1
     3    1    4 1
     4    1    8 1
     5    4   32 1
     6    5    6 2
     7    5    7 1
     8    5    8 1
     9    5   12 1
    10    9   10 2
    11    9   11 1
    12    9   12 1
    13    9   13 1
    14   13   14 1
    15   14   15 1
    16   14   33 1
    17   14   34 1
    18   15   16 1
    19   15   17 1
    20   15   35 1
    21   16   21 1
    22   17   18 1
    23   17   19 1
    24   17   36 1
    25   18   37 1
    26   19   20 1
    27   19   21 1
    28   19   38 1
    29   20   39 1
    30   21   22 1
    31   21   40 1
    32   22   23 ar
    33   22   31 ar
    34   23   24 ar
    35   23   41 1
    36   24   25 ar
    37   24   45 1
    38   25   26 ar
    39   25   31 ar
    40   26   27 2
    41   26   28 ar
    42   27   42 1
    43   28   29 ar
    44   28   44 1
    45   29   30 ar
    46   29   43 1
    47   30   31 ar
@<TRIPOS>SUBSTRUCTURE
     1 ATP         1 GROUP 0 A     ****
@<TRIPOS>MOLECULE
[[[3,4-dihydroxy-5-(6-imino-7,8-dihydro-1~{H}-purin-8-ylium-9-yl)tetrahydrofuran-2-yl]methoxy-oxido-phosphoryl]oxy-oxido-phosphoryl] hydrogen phosphate
   45    47     1     0     0
SMALL
USER_CHARGES

@<TRIPOS>ATOM
      1 PG          0.7415    0.1482   -6.6441 P.3       1 ATP         1.5631
      2 O1G         2.0981    0.7602   -6.3748 O.co2     1 ATP        -0.8806
      3 O2G        -0.4961    0.6620   -5.9426 O.co2     1 ATP        -0.8806
      4 O3G         0.4722    0.1719   -8.2544 O.3       1 ATP        -0.8165
      5 PB          1.0954   -2.3317   -5.0730 P.3       1 ATP         1.6877
      6 O1B         0.0915   -1.9011   -4.0269 O.co2     1 ATP        -0.8727
      7 O2B         1.2610   -3.7877   -5.4474 O.co2     1 ATP        -0.8727
      8 O3B         0.8365   -1.4675   -6.4338 O.3       1 ATP        -0.8330
      9 PA          3.5300   -2.0730   -3.4114 P.3       1 ATP         1.6036
     10 O1A         4.7117   -1.1277   -3.4301 O.co2     1 ATP        -0.9062
     11 O2A         3.7385   -3.5712   -3.3717 O.co2     1 ATP        -0.9062
     12 O3A         2.5575   -1.7232   -4.6769 O.3       1 ATP        -0.8166
     13 O5'         2.5245   -1.6648   -2.1878 O.3       1 ATP        -0.5510
     14 C5'         2.2816   -0.2918   -1.9206 C.3       1 ATP         0.2099
     15 C4'         2.7248    0.0226   -0.4980 C.3       1 ATP         0.0598
     16 O4'         2.4697    1.4219   -0.2462 O.3       1 ATP        -0.3455
     17 C3'         1.9404   -0.7419    0.5596 C.3       1 ATP         0.0742
     18 O3'         2.7418   -0.8086    1.7389 O.3       1 ATP        -0.6025
     19 C2'         0.7477    0.1630    0.7858 C.3       1 ATP         0.1145
     20 O2'         0.1373   -0.0577    2.0407 O.3       1 ATP        -0.5835
     21 C1'         1.3733    1.5427    0.6747 C.3       1 ATP         0.3776
     22 N9          0.4520    2.5240    0.1767 N.pl3     1 ATP        -0.4429
     23 C8          0.2216    2.8192   -1.0985 C.ar      1 ATP         0.2964
     24 N7         -0.6906    3.7763   -1.2384 N.pl3     1 ATP        -0.4957
     25 C5         -1.0575    4.1037    0.0366 C.ar      1 ATP        -0.1346
     26 C6         -2.0291    5.0943    0.5330 C.ar      1 ATP         0.7213
     27 N6         -2.7093    5.8371   -0.2800 N.2       1 ATP        -0.8215
     28 N1         -2.1051    5.1136    1.9204 N.pl3     1 ATP        -0.8455
     29 C2         -1.3354    4.2774    2.7129 C.ar      1 ATP         0.6477
     30 N3         -0.4707    3.3945    2.2944 N.2       1 ATP        -0.5707
     31 C4         -0.3734    3.3525    0.9220 C.ar      1 ATP         0.2637
     32 HOG3       -0.3732   -0.1937   -8.5918 H         1 ATP         0.4378
     33 H5'1        2.8432    0.3119   -2.6398 H         1 ATP         0.0340
     34 H5'2        1.2128   -0.0927   -2.0428 H         1 ATP         0.0340
     35 H4'         3.8044   -0.1397   -0.4040 H         1 ATP         0.0910
     36 H3'         1.6764   -1.7639    0.2728 H         1 ATP         0.0656
     37 HO3'        3.5554   -1.2733    1.4914 H         1 ATP         0.4386
     38 H2'        -0.0011    0.0027    0.0003 H         1 ATP         0.0788
     39 HO2'       -0.6141    0.5574    2.1082 H         1 ATP         0.4363
     40 H1'         1.7826    1.9024    1.6451 H         1 ATP         0.1225
     41 H8          0.7125    2.3429   -1.9292 H         1 ATP         0.3824
     42 HN62       -3.3217    6.4517    0.2629 H         1 ATP         0.4018
     43 H2         -1.5188    4.4223    3.7890 H         1 ATP         0.0652
     44 H44        -2.7470    5.7626    2.3665 H         1 ATP         0.4503
     45 H45        -1.0305    4.1680   -2.1054 H         1 ATP         0.5209
@<TRIPOS>BOND
     1    1    2 2
     2    1    3 1
     3    1    4 1
     4    1    8 1
     5    4   32 1
     6    5    6 2
     7    5    7 1
     8    5    8 1
     9    5   12 1
    10    9   10 2
    11    9   11 1
    12    9   12 1
    13    9   13 1
    14   13   14 1
    15   14   15 1
    16   14   33 1
    17   14   34 1
    18   15   16 1
    19   15   17 1
    20   15   35 1
    21   16   21 1
    22   17   18 1
    23   17   19 1
    24   17   36 1
    25   18   37 1
    26   19   20 1
    27   19   21 1
    28   19   38 1
    29   20   39 1
    30   21   22 1
    31   21   40 1
    32   22   23 ar
    33   22   31 ar
    34   23   24 ar
    35   23   41 1
    36   24   25 ar
    37   24   45 1
    38   25   26 ar
    39   25   31 ar
    40   26   27 2
    41   26   28 ar
    42   27   42 1
    43   28   29 ar
    44   28   44 1
    45   29   30 ar
    46   29   43 1
    47   30   31 ar
@<TRIPOS>SUBSTRUCTURE
     1 ATP         1 GROUP 0 A     ****
@<TRIPOS>MOLECULE
[[[3,4-dihydroxy-5-(6-imino-7,8-dihydro-1~{H}-purin-8-ylium-9-yl)tetrahydrofuran-2-yl]methoxy-oxido-phosphoryl]oxy-oxido-phosphoryl] hydrogen phosphate
   45    47     1     0     0
SMALL
USER_CHARGES

@<TRIPOS>ATOM
      1 PG         -6.6449   -5.2742    4.2216 P.3       1 ATP         1.5631
      2 O1G        -7.1856   -6.6866    4.2155 O.co2     1 ATP        -0.8806
      3 O2G        -7.5240   -4.1036    3.8413 O.co2     1 ATP        -0.8806
      4 O3G        -5.9899   -4.9759    5.6873 O.3       1 ATP        -0.8165
      5 PB         -5.0753   -5.4290    1.7204 P.3       1 ATP         1.6877
      6 O1B        -5.3968   -6.8648    1.3701 O.co2     1 ATP        -0.8727
      7 O2B        -5.7381   -4.2787    0.9960 O.co2     1 ATP        -0.8727
      8 O3B        -5.2807   -5.2238    3.3271 O.3       1 ATP        -0.8330
      9 PA         -2.2652   -6.0681    2.3913 P.3       1 ATP         1.6036
     10 O1A        -2.2513   -7.4754    1.8349 O.co2     1 ATP        -0.9062
     11 O2A        -2.3602   -5.8267    3.8821 O.co2     1 ATP        -0.9062
     12 O3A        -3.4569   -5.2249    1.6575 O.3       1 ATP        -0.8166
     13 O5'        -0.9724   -5.2440    1.8220 O.3       1 ATP        -0.5510
     14 C5'        -0.7840   -3.8935    2.2172 C.3       1 ATP         0.2099
     15 C4'        -0.0724   -3.1466    1.1027 C.3       1 ATP         0.0598
     16 O4'        -0.8674   -3.1929   -0.0945 O.3       1 ATP        -0.3455
     17 C3'         0.1338   -1.6715    1.4027 C.3       1 ATP         0.0742
     18 O3'         1.2893   -1.4445    2.1808 O.3       1 ATP        -0.6025
     19 C2'         0.2158   -1.0724    0.0128 C.3       1 ATP         0.1145
     20 O2'         1.5141   -1.2448   -0.5513 O.3       1 ATP        -0.5835
     21 C1'        -0.7897   -1.9176   -0.7583 C.3       1 ATP         0.3776
     22 N9         -2.1040   -1.3333   -0.7704 N.pl3     1 ATP        -0.4429
     23 C8         -3.0590   -1.5123    0.1363 C.ar      1 ATP         0.2964
     24 N7         -4.1655   -0.8354   -0.1554 N.pl3     1 ATP        -0.4957
     25 C5         -3.8852   -0.1874   -1.3253 C.ar      1 ATP        -0.1346
     26 C6         -4.7113    0.7160   -2.1458 C.ar      1 ATP         0.7213
     27 N6         -5.9213    1.0209   -1.8021 N.2       1 ATP        -0.8215
     28 N1         -4.0411    1.1673   -3.2764 N.pl3     1 ATP        -0.8455
     29 C2         -2.7403    0.7865   -3.5638 C.ar      1 ATP         0.6477
     30 N3         -1.9921   -0.0108   -2.8519 N.2       1 ATP        -0.5707
     31 C4         -2.6302   -0.4747   -1.7239 C.ar      1 ATP         0.2637
     32 HOG3       -5.5933   -4.0937    5.8506 H         1 ATP         0.4378
     33 H5'1       -1.7618   -3.4448    2.4164 H         1 ATP         0.0340
     34 H5'2       -0.1874   -3.8744    3.1341 H         1 ATP         0.0340
     35 H4'         0.8874   -3.6466    0.8805 H         1 ATP         0.0910
     36 H3'        -0.7376   -1.2333    1.9867 H         1 ATP         0.0656
     37 HO3'        1.3408   -0.4870    2.3219 H         1 ATP         0.4386
     38 H2'        -0.0384   -0.0310    0.0096 H         1 ATP         0.0788
     39 HO2'        1.4998   -0.8412   -1.4369 H         1 ATP         0.4363
     40 H1'        -0.4769   -2.1002   -1.8093 H         1 ATP         0.1225
     41 H8         -2.9569   -2.1323    1.0098 H         1 ATP         0.3824
     42 HN62       -6.3169    1.6552   -2.5012 H         1 ATP         0.4018
     43 H2         -2.3612    1.2343   -4.4957 H         1 ATP         0.0652
     44 H44        -4.5223    1.7976   -3.9117 H         1 ATP         0.4503
     45 H45        -5.0218   -0.8132    0.3804 H         1 ATP         0.5209
@<TRIPOS>BOND
     1    1    2 2
     2    1    3 1
     3    1    4 1
     4    1    8 1
     5    4   32 1
     6    5    6 2
     7    5    7 1
     8    5    8 1
     9    5   12 1
    10    9   10 2
    11    9   11 1
    12    9   12 1
    13    9   13 1
    14   13   14 1
    15   14   15 1
    16   14   33 1
    17   14   34 1
    18   15   16 1
    19   15   17 1
    20   15   35 1
    21   16   21 1
    22   17   18 1
    23   17   19 1
    24   17   36 1
    25   18   37 1
    26   19   20 1
    27   19   21 1
    28   19   38 1
    29   20   39 1
    30   21   22 1
    31   21   40 1
    32   22   23 ar
    33   22   31 ar
    34   23   24 ar
    35   23   41 1
    36   24   25 ar
    37   24   45 1
    38   25   26 ar
    39   25   31 ar
    40   26   27 2
    41   26   28 ar
    42   27   42 1
    43   28   29 ar
    44   28   44 1
    45   29   30 ar
    46   29   43 1
    47   30   31 ar
@<TRIPOS>SUBSTRUCTURE
     1 ATP         1 GROUP 0 A     ****
@<TRIPOS>MOLECULE
[[[3,4-dihydroxy-5-(6-imino-7,8-dihydro-1~{H}-purin-8-ylium-9-yl)tetrahydrofuran-2-yl]methoxy-oxido-phosphoryl]oxy-oxido-phosphoryl] hydrogen phosphate
   45    47     1     0     0
SMALL
USER_CHARGES

@<TRIPOS>ATOM
      1 PG          5.1506   -5.6388   -3.8936 P.3       1 ATP         1.5631
      2 O1G         5.5265   -6.4459   -2.6710 O.co2     1 ATP        -0.8806
      3 O2G         6.0113   -5.6649   -5.1370 O.co2     1 ATP        -0.8806
      4 O3G         3.6194   -6.0182   -4.3150 O.3       1 ATP        -0.8165
      5 PB          5.9691   -2.9796   -2.8925 P.3       1 ATP         1.6877
      6 O1B         6.4554   -3.4190   -1.5295 O.co2     1 ATP        -0.8727
      7 O2B         6.9421   -2.6392   -3.9992 O.co2     1 ATP        -0.8727
      8 O3B         4.9072   -4.0867   -3.4513 O.3       1 ATP        -0.8330
      9 PA          4.0010   -0.9663   -3.8028 P.3       1 ATP         1.6036
     10 O1A         2.9573   -1.9364   -4.3125 O.co2     1 ATP        -0.9062
     11 O2A         4.9066   -0.2285   -4.7646 O.co2     1 ATP        -0.9062
     12 O3A         4.9353   -1.7307   -2.7016 O.3       1 ATP        -0.8166
     13 O5'         3.2903    0.1346   -2.8241 O.3       1 ATP        -0.5510
     14 C5'         2.2816   -0.2918   -1.9206 C.3       1 ATP         0.2099
     15 C4'         2.7248    0.0226   -0.4980 C.3       1 ATP         0.0598
     16 O4'         2.4697    1.4219   -0.2462 O.3       1 ATP        -0.3455
     17 C3'         1.9404   -0.7419    0.5596 C.3       1 ATP         0.0742
     18 O3'         2.7418   -0.8086    1.7389 O.3       1 ATP        -0.6025
     19 C2'         0.7477    0.1630    0.7858 C.3       1 ATP         0.1145
     20 O2'         0.1373   -0.0577    2.0407 O.3       1 ATP        -0.5835
     21 C1'         1.3733    1.5427    0.6747 C.3       1 ATP         0.3776
     22 N9          0.4520    2.5240    0.1767 N.pl3     1 ATP        -0.4429
     23 C8          0.2216    2.8192   -1.0985 C.ar      1 ATP         0.2964
     24 N7         -0.6906    3.7763   -1.2384 N.pl3     1 ATP        -0.4957
     25 C5         -1.0575    4.1037    0.0366 C.ar      1 ATP        -0.1346
     26 C6         -2.0291    5.0943    0.5330 C.ar      1 ATP         0.7213
     27 N6         -2.7093    5.8371   -0.2800 N.2       1 ATP        -0.8215
     28 N1         -2.1051    5.1136    1.9204 N.pl3     1 ATP        -0.8455
     29 C2         -1.3354    4.2774    2.7129 C.ar      1 ATP         0.6477
     30 N3         -0.4707    3.3945    2.2944 N.2       1 ATP        -0.5707
     31 C4         -0.3734    3.3525    0.9220 C.ar      1 ATP         0.2637
     32 HOG3        3.2265   -5.5741   -5.0963 H         1 ATP         0.4378
     33 H5'1        1.3514    0.2330   -2.1577 H         1 ATP         0.0340
     34 H5'2        2.1280   -1.3678   -2.0460 H         1 ATP         0.0340
     35 H4'         3.8044   -0.1397   -0.4040 H         1 ATP         0.0910
     36 H3'         1.6764   -1.7639    0.2728 H         1 ATP         0.0656
     37 HO3'        2.2232   -1.2979    2.3953 H         1 ATP         0.4386
     38 H2'        -0.0011    0.0027    0.0003 H         1 ATP         0.0788
     39 HO2'       -0.6141    0.5574    2.1082 H         1 ATP         0.4363
     40 H1'         1.7826    1.9024    1.6451 H         1 ATP         0.1225
     41 H8          0.7125    2.3429   -1.9292 H         1 ATP         0.3824
     42 HN62       -3.3217    6.4517    0.2629 H         1 ATP         0.4018
     43 H2         -1.5188    4.4223    3.7890 H         1 ATP         0.0652
     44 H44        -2.7470    5.7626    2.3665 H         1 ATP         0.4503
     45 H45        -1.0305    4.1680   -2.1054 H         1 ATP         0.5209
@<TRIPOS>BOND
     1    1    2 2
     2    1    3 1
     3    1    4 1
     4    1    8 1
     5    4   32 1
     6    5    6 2
     7    5    7 1
     8    5    8 1
     9    5   12 1
    10    9   10 2
    11    9   11 1
    12    9   12 1
    13    9   13 1
    14   13   14 1
    15   14   15 1
    16   14   33 1
    17   14   34 1
    18   15   16 1
    19   15   17 1
    20   15   35 1
    21   16   21 1
    22   17   18 1
    23   17   19 1
    24   17   36 1
    25   18   37 1
    26   19   20 1
    27   19   21 1
    28   19   38 1
    29   20   39 1
    30   21   22 1
    31   21   40 1
    32   22   23 ar
    33   22   31 ar
    34   23   24 ar
    35   23   41 1
    36   24   25 ar
    37   24   45 1
    38   25   26 ar
    39   25   31 ar
    40   26   27 2
    41   26   28 ar
    42   27   42 1
    43   28   29 ar
    44   28   44 1
    45   29   30 ar
    46   29   43 1
    47   30   31 ar
@<TRIPOS>SUBSTRUCTURE
     1 ATP         1 GROUP 0 A     ****
@<TRIPOS>MOLECULE
[[[3,4-dihydroxy-5-(6-imino-7,8-dihydro-1~{H}-purin-8-ylium-9-yl)tetrahydrofuran-2-yl]methoxy-oxido-phosphoryl]oxy-oxido-phosphoryl] hydrogen phosphate
   45    47     1     0     0
SMALL
USER_CHARGES

@<TRIPOS>ATOM
      1 PG         -4.0082    0.2947   -1.9998 P.3       1 ATP         1.5631
      2 O1G        -4.9325   -0.8201   -1.5635 O.co2     1 ATP        -0.8806
      3 O2G        -4.3104    1.1172   -3.2326 O.co2     1 ATP        -0.8806
      4 O3G        -3.7896    1.3101   -0.7399 O.3       1 ATP        -0.8165
      5 PB         -1.8625   -1.3832   -3.1504 P.3       1 ATP         1.6877
      6 O1B        -2.4891   -2.7308   -2.8701 O.co2     1 ATP        -0.8727
      7 O2B        -1.8687   -0.7906   -4.5420 O.co2     1 ATP        -0.8727
      8 O3B        -2.4883   -0.2890   -2.1128 O.3       1 ATP        -0.8330
      9 PA          0.9669   -2.2479   -3.1034 P.3       1 ATP         1.6036
     10 O1A         1.3286   -1.7940   -4.5010 O.co2     1 ATP        -0.9062
     11 O2A         0.7194   -3.7105   -2.8048 O.co2     1 ATP        -0.9062
     12 O3A        -0.3285   -1.3931   -2.5923 O.3       1 ATP        -0.8166
     13 O5'         2.0820   -1.6920   -2.0440 O.3       1 ATP        -0.5510
     14 C5'         2.2816   -0.2918   -1.9206 C.3       1 ATP         0.2099
     15 C4'         2.7248    0.0226   -0.4980 C.3       1 ATP         0.0598
     16 O4'         2.4697    1.4219   -0.2462 O.3       1 ATP        -0.3455
     17 C3'         1.9404   -0.7419    0.5596 C.3       1 ATP         0.0742
     18 O3'         2.7418   -0.8086    1.7389 O.3       1 ATP        -0.6025
     19 C2'         0.7477    0.1630    0.7858 C.3       1 ATP         0.1145
     20 O2'         0.1373   -0.0577    2.0407 O.3       1 ATP        -0.5835
     21 C1'         1.3733    1.5427    0.6747 C.3       1 ATP         0.3776
     22 N9          0.4520    2.5240    0.1767 N.pl3     1 ATP        -0.4429
     23 C8          0.2216    2.8192   -1.0985 C.ar      1 ATP         0.2964
     24 N7         -0.6906    3.7763   -1.2384 N.pl3     1 ATP        -0.4957
     25 C5         -1.0575    4.1037    0.0366 C.ar      1 ATP        -0.1346
     26 C6         -2.0291    5.0943    0.5330 C.ar      1 ATP         0.7213
     27 N6         -2.7093    5.8371   -0.2800 N.2       1 ATP        -0.8215
     28 N1         -2.1051    5.1136    1.9204 N.pl3     1 ATP        -0.8455
     29 C2         -1.3354    4.2774    2.7129 C.ar      1 ATP         0.6477
     30 N3         -0.4707    3.3945    2.2944 N.2       1 ATP        -0.5707
     31 C4         -0.3734    3.3525    0.9220 C.ar      1 ATP         0.2637
     32 HOG3       -3.2097    2.0914   -0.8652 H         1 ATP         0.4378
     33 H5'1        3.0463    0.0197   -2.6385 H         1 ATP         0.0340
     34 H5'2        1.3428    0.2199   -2.1523 H         1 ATP         0.0340
     35 H4'         3.8044   -0.1397   -0.4040 H         1 ATP         0.0910
     36 H3'         1.6764   -1.7639    0.2728 H         1 ATP         0.0656
     37 HO3'        2.2232   -1.2979    2.3953 H         1 ATP         0.4386
     38 H2'        -0.0011    0.0027    0.0003 H         1 ATP         0.0788
     39 HO2'       -0.1563   -0.9855    2.0596 H         1 ATP         0.4363
     40 H1'         1.7826    1.9024    1.6451 H         1 ATP         0.1225
     41 H8          0.7125    2.3429   -1.9292 H         1 ATP         0.3824
     42 HN62       -3.3217    6.4517    0.2629 H         1 ATP         0.4018
     43 H2         -1.5188    4.4223    3.7890 H         1 ATP         0.0652
     44 H44        -2.7470    5.7626    2.3665 H         1 ATP         0.4503
     45 H45        -1.0305    4.1680   -2.1054 H         1 ATP         0.5209
@<TRIPOS>BOND
     1    1    2 2
     2    1    3 1
     3    1    4 1
     4    1    8 1
     5    4   32 1
     6    5    6 2
     7    5    7 1
     8    5    8 1
     9    5   12 1
    10    9   10 2
    11    9   11 1
    12    9   12 1
    13    9   13 1
    14   13   14 1
    15   14   15 1
    16   14   33 1
    17   14   34 1
    18   15   16 1
    19   15   17 1
    20   15   35 1
    21   16   21 1
    22   17   18 1
    23   17   19 1
    24   17   36 1
    25   18   37 1
    26   19   20 1
    27   19   21 1
    28   19   38 1
    29   20   39 1
    30   21   22 1
    31   21   40 1
    32   22   23 ar
    33   22   31 ar
    34   23   24 ar
    35   23   41 1
    36   24   25 ar
    37   24   45 1
    38   25   26 ar
    39   25   31 ar
    40   26   27 2
    41   26   28 ar
    42   27   42 1
    43   28   29 ar
    44   28   44 1
    45   29   30 ar
    46   29   43 1
    47   30   31 ar
@<TRIPOS>SUBSTRUCTURE
     1 ATP         1 GROUP 0 A     ****
@<TRIPOS>MOLECULE
[[[3,4-dihydroxy-5-(6-imino-7,8-dihydro-1~{H}-purin-8-ylium-9-yl)tetrahydrofuran-2-yl]methoxy-oxido-phosphoryl]oxy-oxido-phosphoryl] hydrogen phosphate
   45    47     1     0     0
SMALL
USER_CHARGES

@<TRIPOS>ATOM
      1 PG         -0.1360    0.3569   -6.0813 P.3       1 ATP         1.5631
      2 O1G         0.8670    1.4842   -6.1848 O.co2     1 ATP        -0.8806
      3 O2G        -1.0450    0.2334   -4.8788 O.co2     1 ATP        -0.8806
      4 O3G        -1.0569    0.3566   -7.4296 O.3       1 ATP        -0.8165
      5 PB          1.7546   -1.8062   -5.3814 P.3       1 ATP         1.6877
      6 O1B         2.0241   -3.1801   -5.9535 O.co2     1 ATP        -0.8727
      7 O2B         2.8823   -0.8353   -5.1108 O.co2     1 ATP        -0.8727
      8 O3B         0.6355   -1.0632   -6.3093 O.3       1 ATP        -0.8330
      9 PA          1.2681   -2.6345   -2.5827 P.3       1 ATP         1.6036
     10 O1A         1.7719   -4.0417   -2.8198 O.co2     1 ATP        -0.9062
     11 O2A         0.1424   -2.3700   -1.6068 O.co2     1 ATP        -0.9062
     12 O3A         0.8674   -1.9707   -4.0210 O.3       1 ATP        -0.8166
     13 O5'         2.5245   -1.6648   -2.1878 O.3       1 ATP        -0.5510
     14 C5'         2.2816   -0.2918   -1.9206 C.3       1 ATP         0.2099
     15 C4'         2.7248    0.0226   -0.4980 C.3       1 ATP         0.0598
     16 O4'         2.4697    1.4219   -0.2462 O.3       1 ATP        -0.3455
     17 C3'         1.9404   -0.7419    0.5596 C.3       1 ATP         0.0742
     18 O3'         2.7418   -0.8086    1.7389 O.3       1 ATP        -0.6025
     19 C2'         0.7477    0.1630    0.7858 C.3       1 ATP         0.1145
     20 O2'         0.1373   -0.0577    2.0407 O.3       1 ATP        -0.5835
     21 C1'         1.3733    1.5427    0.6747 C.3       1 ATP         0.3776
     22 N9          0.4520    2.5240    0.1767 N.pl3     1 ATP        -0.4429
     23 C8          0.2216    2.8192   -1.0985 C.ar      1 ATP         0.2964
     24 N7         -0.6906    3.7763   -1.2384 N.pl3     1 ATP        -0.4957
     25 C5         -1.0575    4.1037    0.0366 C.ar      1 ATP        -0.1346
     26 C6         -2.0291    5.0943    0.5330 C.ar      1 ATP         0.7213
     27 N6         -2.7093    5.8371   -0.2800 N.2       1 ATP        -0.8215
     28 N1         -2.1051    5.1136    1.9204 N.pl3     1 ATP        -0.8455
     29 C2         -1.3354    4.2774    2.7129 C.ar      1 ATP         0.6477
     30 N3         -0.4707    3.3945    2.2944 N.2       1 ATP        -0.5707
     31 C4         -0.3734    3.3525    0.9220 C.ar      1 ATP         0.2637
     32 HOG3       -1.7606   -0.3216   -7.5142 H         1 ATP         0.4378
     33 H5'1        2.8432    0.3119   -2.6398 H         1 ATP         0.0340
     34 H5'2        1.2128   -0.0927   -2.0428 H         1 ATP         0.0340
     35 H4'         3.8044   -0.1397   -0.4040 H         1 ATP         0.0910
     36 H3'         1.6764   -1.7639    0.2728 H         1 ATP         0.0656
     37 HO3'        2.2232   -1.2979    2.3953 H         1 ATP         0.4386
     38 H2'        -0.0011    0.0027    0.0003 H         1 ATP         0.0788
     39 HO2'       -0.6141    0.5574    2.1082 H         1 ATP         0.4363
     40 H1'         1.7826    1.9024    1.6451 H         1 ATP         0.1225
     41 H8          0.7125    2.3429   -1.9292 H         1 ATP         0.3824
     42 HN62       -3.3217    6.4517    0.2629 H         1 ATP         0.4018
     43 H2         -1.5188    4.4223    3.7890 H         1 ATP         0.0652
     44 H44        -2.7470    5.7626    2.3665 H         1 ATP         0.4503
     45 H45        -1.0305    4.1680   -2.1054 H         1 ATP         0.5209
@<TRIPOS>BOND
     1    1    2 2
     2    1    3 1
     3    1    4 1
     4    1    8 1
     5    4   32 1
     6    5    6 2
     7    5    7 1
     8    5    8 1
     9    5   12 1
    10    9   10 2
    11    9   11 1
    12    9   12 1
    13    9   13 1
    14   13   14 1
    15   14   15 1
    16   14   33 1
    17   14   34 1
    18   15   16 1
    19   15   17 1
    20   15   35 1
    21   16   21 1
    22   17   18 1
    23   17   19 1
    24   17   36 1
    25   18   37 1
    26   19   20 1
    27   19   21 1
    28   19   38 1
    29   20   39 1
    30   21   22 1
    31   21   40 1
    32   22   23 ar
    33   22   31 ar
    34   23   24 ar
    35   23   41 1
    36   24   25 ar
    37   24   45 1
    38   25   26 ar
    39   25   31 ar
    40   26   27 2
    41   26   28 ar
    42   27   42 1
    43   28   29 ar
    44   28   44 1
    45   29   30 ar
    46   29   43 1
    47   30   31 ar
@<TRIPOS>SUBSTRUCTURE
     1 ATP         1 GROUP 0 A     ****
@<TRIPOS>MOLECULE
[[[3,4-dihydroxy-5-(6-imino-7,8-dihydro-1~{H}-purin-8-ylium-9-yl)tetrahydrofuran-2-yl]methoxy-oxido-phosphoryl]oxy-oxido-phosphoryl] hydrogen phosphate
   45    47     1     0     0
SMALL
USER_CHARGES

@<TRIPOS>ATOM
      1 PG         -2.0735   -5.1691   -0.7687 P.3       1 ATP         1.5631
      2 O1G        -2.3980   -4.7720    0.6541 O.co2     1 ATP        -0.8806
      3 O2G        -1.8374   -6.6170   -1.1370 O.co2     1 ATP        -0.8806
      4 O3G        -3.2290   -4.5659   -1.7520 O.3       1 ATP        -0.8165
      5 PB         -0.1474   -4.1805   -2.7828 P.3       1 ATP         1.6877
      6 O1B         0.4971   -5.5083   -3.1131 O.co2     1 ATP        -0.8727
      7 O2B        -1.1475   -3.5406   -3.7197 O.co2     1 ATP        -0.8727
      8 O3B        -0.8119   -4.2771   -1.2946 O.3       1 ATP        -0.8330
      9 PA          2.1633   -2.4499   -3.4314 P.3       1 ATP         1.6036
     10 O1A         1.4760   -1.5972   -4.4759 O.co2     1 ATP        -0.9062
     11 O2A         3.1220   -3.5478   -3.8377 O.co2     1 ATP        -0.9062
     12 O3A         1.0274   -3.0968   -2.4510 O.3       1 ATP        -0.8166
     13 O5'         2.9216   -1.4836   -2.3516 O.3       1 ATP        -0.5510
     14 C5'         2.2816   -0.2918   -1.9206 C.3       1 ATP         0.2099
     15 C4'         2.7248    0.0226   -0.4980 C.3       1 ATP         0.0598
     16 O4'         2.4697    1.4219   -0.2462 O.3       1 ATP        -0.3455
     17 C3'         1.9404   -0.7419    0.5596 C.3       1 ATP         0.0742
     18 O3'         2.7418   -0.8086    1.7389 O.3       1 ATP        -0.6025
     19 C2'         0.7477    0.1630    0.7858 C.3       1 ATP         0.1145
     20 O2'         0.1373   -0.0577    2.0407 O.3       1 ATP        -0.5835
     21 C1'         1.3733    1.5427    0.6747 C.3       1 ATP         0.3776
     22 N9          0.4520    2.5240    0.1767 N.pl3     1 ATP        -0.4429
     23 C8         -0.2004    2.4829   -0.9804 C.ar      1 ATP         0.2964
     24 N7         -0.9830    3.5431   -1.1568 N.pl3     1 ATP        -0.4957
     25 C5         -0.8095    4.3012   -0.0331 C.ar      1 ATP        -0.1346
     26 C6         -1.4065    5.5904    0.3585 C.ar      1 ATP         0.7213
     27 N6         -2.2501    6.2030   -0.4084 N.2       1 ATP        -0.8215
     28 N1         -0.9585    6.0272    1.5994 N.pl3     1 ATP        -0.8455
     29 C2         -0.0508    5.3009    2.3532 C.ar      1 ATP         0.6477
     30 N3          0.4890    4.1592    2.0257 N.2       1 ATP        -0.5707
     31 C4          0.0637    3.7006    0.7995 C.ar      1 ATP         0.2637
     32 HOG3       -3.1597   -4.7390   -2.7150 H         1 ATP         0.4378
     33 H5'1        2.5589    0.5217   -2.5976 H         1 ATP         0.0340
     34 H5'2        1.1982   -0.4388   -1.9617 H         1 ATP         0.0340
     35 H4'         3.8044   -0.1397   -0.4040 H         1 ATP         0.0910
     36 H3'         1.6764   -1.7639    0.2728 H         1 ATP         0.0656
     37 HO3'        2.2232   -1.2979    2.3953 H         1 ATP         0.4386
     38 H2'        -0.0011    0.0027    0.0003 H         1 ATP         0.0788
     39 HO2'       -0.6141    0.5574    2.1082 H         1 ATP         0.4363
     40 H1'         1.7826    1.9024    1.6451 H         1 ATP         0.1225
     41 H8         -0.1116    1.6863   -1.6984 H         1 ATP         0.3824
     42 HN62       -2.5420    7.0730    0.0447 H         1 ATP         0.4018
     43 H2          0.1969    5.7893    3.3086 H         1 ATP         0.0652
     44 H44        -1.3097    6.9080    1.9642 H         1 ATP         0.4503
     45 H45        -1.5735    3.7351   -1.9538 H         1 ATP         0.5209
@<TRIPOS>BOND
     1    1    2 2
     2    1    3 1
     3    1    4 1
     4    1    8 1
     5    4   32 1
     6    5    6 2
     7    5    7 1
     8    5    8 1
     9    5   12 1
    10    9   10 2
    11    9   11 1
    12    9   12 1
    13    9   13 1
    14   13   14 1
    15   14   15 1
    16   14   33 1
    17   14   34 1
    18   15   16 1
    19   15   17 1
    20   15   35 1
    21   16   21 1
    22   17   18 1
    23   17   19 1
    24   17   36 1
    25   18   37 1
    26   19   20 1
    27   19   21 1
    28   19   38 1
    29   20   39 1
    30   21   22 1
    31   21   40 1
    32   22   23 ar
    33   22   31 ar
    34   23   24 ar
    35   23   41 1
    36   24   25 ar
    37   24   45 1
    38   25   26 ar
    39   25   31 ar
    40   26   27 2
    41   26   28 ar
    42   27   42 1
    43   28   29 ar
    44   28   44 1
    45   29   30 ar
    46   29   43 1
    47   30   31 ar
@<TRIPOS>SUBSTRUCTURE
     1 ATP         1 GROUP 0 A     ****
@<TRIPOS>MOLECULE
[[[3,4-dihydroxy-5-(6-imino-7,8-dihydro-1~{H}-purin-8-ylium-9-yl)tetrahydrofuran-2-yl]methoxy-oxido-phosphoryl]oxy-oxido-phosphoryl] hydrogen phosphate
   45    47     1     0     0
SMALL
USER_CHARGES

@<TRIPOS>ATOM
      1 PG         -3.1614    1.2026    5.7471 P.3       1 ATP         1.5631
      2 O1G        -2.4320    1.7869    6.9362 O.co2     1 ATP        -0.8806
      3 O2G        -4.6456    0.9179    5.8088 O.co2     1 ATP        -0.8806
      4 O3G        -2.8674    2.1428    4.4450 O.3       1 ATP        -0.8165
      5 PB         -2.2053   -1.5829    6.0128 P.3       1 ATP         1.6877
      6 O1B        -1.3408   -1.3826    7.2375 O.co2     1 ATP        -0.8727
      7 O2B        -3.5586   -2.2512    6.1100 O.co2     1 ATP        -0.8727
      8 O3B        -2.3840   -0.1465    5.2577 O.3       1 ATP        -0.8330
      9 PA         -0.7215   -3.8652    4.8532 P.3       1 ATP         1.6036
     10 O1A        -1.8735   -4.8461    4.8225 O.co2     1 ATP        -0.9062
     11 O2A         0.3496   -3.9631    5.9175 O.co2     1 ATP        -0.9062
     12 O3A        -1.3248   -2.3468    4.8700 O.3       1 ATP        -0.8166
     13 O5'         0.0118   -3.8395    3.3916 O.3       1 ATP        -0.5510
     14 C5'        -0.7840   -3.8935    2.2172 C.3       1 ATP         0.2099
     15 C4'        -0.0724   -3.1466    1.1027 C.3       1 ATP         0.0598
     16 O4'        -0.8674   -3.1929   -0.0945 O.3       1 ATP        -0.3455
     17 C3'         0.1338   -1.6715    1.4027 C.3       1 ATP         0.0742
     18 O3'         1.2893   -1.4445    2.1808 O.3       1 ATP        -0.6025
     19 C2'         0.2158   -1.0724    0.0128 C.3       1 ATP         0.1145
     20 O2'         1.5141   -1.2448   -0.5513 O.3       1 ATP        -0.5835
     21 C1'        -0.7897   -1.9176   -0.7583 C.3       1 ATP         0.3776
     22 N9         -2.1040   -1.3333   -0.7704 N.pl3     1 ATP        -0.4429
     23 C8         -3.0590   -1.5123    0.1363 C.ar      1 ATP         0.2964
     24 N7         -4.1655   -0.8354   -0.1554 N.pl3     1 ATP        -0.4957
     25 C5         -3.8852   -0.1874   -1.3253 C.ar      1 ATP        -0.1346
     26 C6         -4.7113    0.7160   -2.1458 C.ar      1 ATP         0.7213
     27 N6         -5.9213    1.0209   -1.8021 N.2       1 ATP        -0.8215
     28 N1         -4.0411    1.1673   -3.2764 N.pl3     1 ATP        -0.8455
     29 C2         -2.7403    0.7865   -3.5638 C.ar      1 ATP         0.6477
     30 N3         -1.9921   -0.0108   -2.8519 N.2       1 ATP        -0.5707
     31 C4         -2.6302   -0.4747   -1.7239 C.ar      1 ATP         0.2637
     32 HOG3       -3.2742    1.8937    3.5879 H         1 ATP         0.4378
     33 H5'1       -0.9348   -4.9415    1.9415 H         1 ATP         0.0340
     34 H5'2       -1.7548   -3.4350    2.4278 H         1 ATP         0.0340
     35 H4'         0.8874   -3.6466    0.8805 H         1 ATP         0.0910
     36 H3'        -0.7376   -1.2333    1.9867 H         1 ATP         0.0656
     37 HO3'        1.3408   -0.4870    2.3219 H         1 ATP         0.4386
     38 H2'        -0.0384   -0.0310    0.0096 H         1 ATP         0.0788
     39 HO2'        2.1463   -0.7958    0.0370 H         1 ATP         0.4363
     40 H1'        -0.4769   -2.1002   -1.8093 H         1 ATP         0.1225
     41 H8         -2.9569   -2.1323    1.0098 H         1 ATP         0.3824
     42 HN62       -6.3169    1.6552   -2.5012 H         1 ATP         0.4018
     43 H2         -2.3612    1.2343   -4.4957 H         1 ATP         0.0652
     44 H44        -4.5223    1.7976   -3.9117 H         1 ATP         0.4503
     45 H45        -5.0218   -0.8132    0.3804 H         1 ATP         0.5209
@<TRIPOS>BOND
     1    1    2 2
     2    1    3 1
     3    1    4 1
     4    1    8 1
     5    4   32 1
     6    5    6 2
     7    5    7 1
     8    5    8 1
     9    5   12 1
    10    9   10 2
    11    9   11 1
    12    9   12 1
    13    9   13 1
    14   13   14 1
    15   14   15 1
    16   14   33 1
    17   14   34 1
    18   15   16 1
    19   15   17 1
    20   15   35 1
    21   16   21 1
    22   17   18 1
    23   17   19 1
    24   17   36 1
    25   18   37 1
    26   19   20 1
    27   19   21 1
    28   19   38 1
    29   20   39 1
    30   21   22 1
    31   21   40 1
    32   22   23 ar
    33   22   31 ar
    34   23   24 ar
    35   23   41 1
    36   24   25 ar
    37   24   45 1
    38   25   26 ar
    39   25   31 ar
    40   26   27 2
    41   26   28 ar
    42   27   42 1
    43   28   29 ar
    44   28   44 1
    45   29   30 ar
    46   29   43 1
    47   30   31 ar
@<TRIPOS>SUBSTRUCTURE
     1 ATP         1 GROUP 0 A     ****
@<TRIPOS>MOLECULE
[[[3,4-dihydroxy-5-(6-imino-7,8-dihydro-1~{H}-purin-8-ylium-9-yl)tetrahydrofuran-2-yl]methoxy-oxido-phosphoryl]oxy-oxido-phosphoryl] hydrogen phosphate
   45    47     1     0     0
SMALL
USER_CHARGES

@<TRIPOS>ATOM
      1 PG          3.4811   -5.3107    4.3188 P.3       1 ATP         1.5631
      2 O1G         3.4657   -4.9352    5.7838 O.co2     1 ATP        -0.8806
      3 O2G         2.8391   -4.4175    3.2807 O.co2     1 ATP        -0.8806
      4 O3G         5.0256   -5.5966    3.8730 O.3       1 ATP        -0.8165
      5 PB          1.3844   -7.3936    4.4110 P.3       1 ATP         1.6877
      6 O1B         1.3232   -8.8317    3.9467 O.co2     1 ATP        -0.8727
      7 O2B         0.9508   -7.0017    5.8060 O.co2     1 ATP        -0.8727
      8 O3B         2.8922   -6.8237    4.1520 O.3       1 ATP        -0.8330
      9 PA         -1.0040   -6.4123    2.9660 P.3       1 ATP         1.6036
     10 O1A        -1.7672   -5.9146    4.1744 O.co2     1 ATP        -0.9062
     11 O2A        -1.3786   -7.7174    2.2982 O.co2     1 ATP        -0.9062
     12 O3A         0.5873   -6.4616    3.3335 O.3       1 ATP        -0.8166
     13 O5'        -0.9724   -5.2440    1.8220 O.3       1 ATP        -0.5510
     14 C5'        -0.7840   -3.8935    2.2172 C.3       1 ATP         0.2099
     15 C4'        -0.0724   -3.1466    1.1027 C.3       1 ATP         0.0598
     16 O4'        -0.8674   -3.1929   -0.0945 O.3       1 ATP        -0.3455
     17 C3'         0.1338   -1.6715    1.4027 C.3       1 ATP         0.0742
     18 O3'         1.2893   -1.4445    2.1808 O.3       1 ATP        -0.6025
     19 C2'         0.2158   -1.0724    0.0128 C.3       1 ATP         0.1145
     20 O2'         1.5141   -1.2448   -0.5513 O.3       1 ATP        -0.5835
     21 C1'        -0.7897   -1.9176   -0.7583 C.3       1 ATP         0.3776
     22 N9         -2.1040   -1.3333   -0.7704 N.pl3     1 ATP        -0.4429
     23 C8         -3.0590   -1.5123    0.1363 C.ar      1 ATP         0.2964
     24 N7         -4.1655   -0.8354   -0.1554 N.pl3     1 ATP        -0.4957
     25 C5         -3.8852   -0.1874   -1.3253 C.ar      1 ATP        -0.1346
     26 C6         -4.7113    0.7160   -2.1458 C.ar      1 ATP         0.7213
     27 N6         -5.9213    1.0209   -1.8021 N.2       1 ATP        -0.8215
     28 N1         -4.0411    1.1673   -3.2764 N.pl3     1 ATP        -0.8455
     29 C2         -2.7403    0.7865   -3.5638 C.ar      1 ATP         0.6477
     30 N3         -1.9921   -0.0108   -2.8519 N.2       1 ATP        -0.5707
     31 C4         -2.6302   -0.4747   -1.7239 C.ar      1 ATP         0.2637
     32 HOG3        5.2032   -5.8536    2.9431 H         1 ATP         0.4378
     33 H5'1       -1.7618   -3.4448    2.4164 H         1 ATP         0.0340
     34 H5'2       -0.1874   -3.8744    3.1341 H         1 ATP         0.0340
     35 H4'         0.8874   -3.6466    0.8805 H         1 ATP         0.0910
     36 H3'        -0.7376   -1.2333    1.9867 H         1 ATP         0.0656
     37 HO3'        1.3408   -0.4870    2.3219 H         1 ATP         0.4386
     38 H2'        -0.0384   -0.0310    0.0096 H         1 ATP         0.0788
     39 HO2'        2.1463   -0.7958    0.0370 H         1 ATP         0.4363
     40 H1'        -0.4769   -2.1002   -1.8093 H         1 ATP         0.1225
     41 H8         -2.9569   -2.1323    1.0098 H         1 ATP         0.3824
     42 HN62       -6.3169    1.6552   -2.5012 H         1 ATP         0.4018
     43 H2         -2.3612    1.2343   -4.4957 H         1 ATP         0.0652
     44 H44        -4.5223    1.7976   -3.9117 H         1 ATP         0.4503
     45 H45        -5.0218   -0.8132    0.3804 H         1 ATP         0.5209
@<TRIPOS>BOND
     1    1    2 2
     2    1    3 1
     3    1    4 1
     4    1    8 1
     5    4   32 1
     6    5    6 2
     7    5    7 1
     8    5    8 1
     9    5   12 1
    10    9   10 2
    11    9   11 1
    12    9   12 1
    13    9   13 1
    14   13   14 1
    15   14   15 1
    16   14   33 1
    17   14   34 1
    18   15   16 1
    19   15   17 1
    20   15   35 1
    21   16   21 1
    22   17   18 1
    23   17   19 1
    24   17   36 1
    25   18   37 1
    26   19   20 1
    27   19   21 1
    28   19   38 1
    29   20   39 1
    30   21   22 1
    31   21   40 1
    32   22   23 ar
    33   22   31 ar
    34   23   24 ar
    35   23   41 1
    36   24   25 ar
    37   24   45 1
    38   25   26 ar
    39   25   31 ar
    40   26   27 2
    41   26   28 ar
    42   27   42 1
    43   28   29 ar
    44   28   44 1
    45   29   30 ar
    46   29   43 1
    47   30   31 ar
@<TRIPOS>SUBSTRUCTURE
     1 ATP         1 GROUP 0 A     ****
@<TRIPOS>MOLECULE
[[[3,4-dihydroxy-5-(6-imino-7,8-dihydro-1~{H}-purin-8-ylium-9-yl)tetrahydrofuran-2-yl]methoxy-oxido-phosphoryl]oxy-oxido-phosphoryl] hydrogen phosphate
   45    47     1     0     0
SMALL
USER_CHARGES

@<TRIPOS>ATOM
      1 PG          2.0950   -2.7844   -6.6096 P.3       1 ATP         1.5631
      2 O1G         2.5399   -2.3930   -8.0011 O.co2     1 ATP        -0.8806
      3 O2G         1.2599   -1.8454   -5.7677 O.co2     1 ATP        -0.8806
      4 O3G         1.3290   -4.2237   -6.6955 O.3       1 ATP        -0.8165
      5 PB          4.6772   -2.3763   -5.2277 P.3       1 ATP         1.6877
      6 O1B         5.5245   -3.2449   -4.3250 O.co2     1 ATP        -0.8727
      7 O2B         5.2811   -1.6519   -6.4101 O.co2     1 ATP        -0.8727
      8 O3B         3.3994   -3.2503   -5.7463 O.3       1 ATP        -0.8330
      9 PA          4.4374   -0.0466   -3.4193 P.3       1 ATP         1.6036
     10 O1A         5.0360    0.9827   -4.3535 O.co2     1 ATP        -0.9062
     11 O2A         5.2435   -0.6084   -2.2686 O.co2     1 ATP        -0.9062
     12 O3A         3.8708   -1.2955   -4.3076 O.3       1 ATP        -0.8166
     13 O5'         3.0213    0.5153   -2.8245 O.3       1 ATP        -0.5510
     14 C5'         2.2816   -0.2918   -1.9206 C.3       1 ATP         0.2099
     15 C4'         2.7248    0.0226   -0.4980 C.3       1 ATP         0.0598
     16 O4'         2.4697    1.4219   -0.2462 O.3       1 ATP        -0.3455
     17 C3'         1.9404   -0.7419    0.5596 C.3       1 ATP         0.0742
     18 O3'         2.7418   -0.8086    1.7389 O.3       1 ATP        -0.6025
     19 C2'         0.7477    0.1630    0.7858 C.3       1 ATP         0.1145
     20 O2'         0.1373   -0.0577    2.0407 O.3       1 ATP        -0.5835
     21 C1'         1.3733    1.5427    0.6747 C.3       1 ATP         0.3776
     22 N9          0.4520    2.5240    0.1767 N.pl3     1 ATP        -0.4429
     23 C8          0.2216    2.8192   -1.0985 C.ar      1 ATP         0.2964
     24 N7         -0.6906    3.7763   -1.2384 N.pl3     1 ATP        -0.4957
     25 C5         -1.0575    4.1037    0.0366 C.ar      1 ATP        -0.1346
     26 C6         -2.0291    5.0943    0.5330 C.ar      1 ATP         0.7213
     27 N6         -2.7093    5.8371   -0.2800 N.2       1 ATP        -0.8215
     28 N1         -2.1051    5.1136    1.9204 N.pl3     1 ATP        -0.8455
     29 C2         -1.3354    4.2774    2.7129 C.ar      1 ATP         0.6477
     30 N3         -0.4707    3.3945    2.2944 N.2       1 ATP        -0.5707
     31 C4         -0.3734    3.3525    0.9220 C.ar      1 ATP         0.2637
     32 HOG3        0.9780   -4.6160   -5.8678 H         1 ATP         0.4378
     33 H5'1        1.2163   -0.0770   -2.0471 H         1 ATP         0.0340
     34 H5'2        2.4655   -1.3443   -2.1563 H         1 ATP         0.0340
     35 H4'         3.8044   -0.1397   -0.4040 H         1 ATP         0.0910
     36 H3'         1.6764   -1.7639    0.2728 H         1 ATP         0.0656
     37 HO3'        2.2232   -1.2979    2.3953 H         1 ATP         0.4386
     38 H2'        -0.0011    0.0027    0.0003 H         1 ATP         0.0788
     39 HO2'       -0.1563   -0.9855    2.0596 H         1 ATP         0.4363
     40 H1'         1.7826    1.9024    1.6451 H         1 ATP         0.1225
     41 H8          0.7125    2.3429   -1.9292 H         1 ATP         0.3824
     42 HN62       -3.3217    6.4517    0.2629 H         1 ATP         0.4018
     43 H2         -1.5188    4.4223    3.7890 H         1 ATP         0.0652
     44 H44        -2.7470    5.7626    2.3665 H         1 ATP         0.4503
     45 H45        -1.0305    4.1680   -2.1054 H         1 ATP         0.5209
@<TRIPOS>BOND
     1    1    2 2
     2    1    3 1
     3    1    4 1
     4    1    8 1
     5    4   32 1
     6    5    6 2
     7    5    7 1
     8    5    8 1
     9    5   12 1
    10    9   10 2
    11    9   11 1
    12    9   12 1
    13    9   13 1
    14   13   14 1
    15   14   15 1
    16   14   33 1
    17   14   34 1
    18   15   16 1
    19   15   17 1
    20   15   35 1
    21   16   21 1
    22   17   18 1
    23   17   19 1
    24   17   36 1
    25   18   37 1
    26   19   20 1
    27   19   21 1
    28   19   38 1
    29   20   39 1
    30   21   22 1
    31   21   40 1
    32   22   23 ar
    33   22   31 ar
    34   23   24 ar
    35   23   41 1
    36   24   25 ar
    37   24   45 1
    38   25   26 ar
    39   25   31 ar
    40   26   27 2
    41   26   28 ar
    42   27   42 1
    43   28   29 ar
    44   28   44 1
    45   29   30 ar
    46   29   43 1
    47   30   31 ar
@<TRIPOS>SUBSTRUCTURE
     1 ATP         1 GROUP 0 A     ****
@<TRIPOS>MOLECULE
[[[3,4-dihydroxy-5-(6-imino-7,8-dihydro-1~{H}-purin-8-ylium-9-yl)tetrahydrofuran-2-yl]methoxy-oxido-phosphoryl]oxy-oxido-phosphoryl] hydrogen phosphate
   45    47     1     0     0
SMALL
USER_CHARGES

@<TRIPOS>ATOM
      1 PG          0.1056   -2.9107   -7.4742 P.3       1 ATP         1.5631
      2 O1G        -0.0464   -4.3793   -7.1466 O.co2     1 ATP        -0.8806
      3 O2G         0.5919   -2.4642   -8.8351 O.co2     1 ATP        -0.8806
      4 O3G        -1.3089   -2.1593   -7.1569 O.3       1 ATP        -0.8165
      5 PB          2.6034   -2.4155   -5.9711 P.3       1 ATP         1.6877
      6 O1B         2.7949   -3.8158   -5.4329 O.co2     1 ATP        -0.8727
      7 O2B         3.4334   -1.8996   -7.1255 O.co2     1 ATP        -0.8727
      8 O3B         1.0240   -2.2025   -6.3258 O.3       1 ATP        -0.8330
      9 PA          4.0010   -0.9663   -3.8028 P.3       1 ATP         1.6036
     10 O1A         5.0351   -0.2791   -4.6680 O.co2     1 ATP        -0.9062
     11 O2A         4.3698   -2.1728   -2.9673 O.co2     1 ATP        -0.9062
     12 O3A         2.7156   -1.3587   -4.7320 O.3       1 ATP        -0.8166
     13 O5'         3.2903    0.1346   -2.8241 O.3       1 ATP        -0.5510
     14 C5'         2.2816   -0.2918   -1.9206 C.3       1 ATP         0.2099
     15 C4'         2.7248    0.0226   -0.4980 C.3       1 ATP         0.0598
     16 O4'         2.4697    1.4219   -0.2462 O.3       1 ATP        -0.3455
     17 C3'         1.9404   -0.7419    0.5596 C.3       1 ATP         0.0742
     18 O3'         2.7418   -0.8086    1.7389 O.3       1 ATP        -0.6025
     19 C2'         0.7477    0.1630    0.7858 C.3       1 ATP         0.1145
     20 O2'         0.1373   -0.0577    2.0407 O.3       1 ATP        -0.5835
     21 C1'         1.3733    1.5427    0.6747 C.3       1 ATP         0.3776
     22 N9          0.4520    2.5240    0.1767 N.pl3     1 ATP        -0.4429
     23 C8          0.2216    2.8192   -1.0985 C.ar      1 ATP         0.2964
     24 N7         -0.6906    3.7763   -1.2384 N.pl3     1 ATP        -0.4957
     25 C5         -1.0575    4.1037    0.0366 C.ar      1 ATP        -0.1346
     26 C6         -2.0291    5.0943    0.5330 C.ar      1 ATP         0.7213
     27 N6         -2.7093    5.8371   -0.2800 N.2       1 ATP        -0.8215
     28 N1         -2.1051    5.1136    1.9204 N.pl3     1 ATP        -0.8455
     29 C2         -1.3354    4.2774    2.7129 C.ar      1 ATP         0.6477
     30 N3         -0.4707    3.3945    2.2944 N.2       1 ATP        -0.5707
     31 C4         -0.3734    3.3525    0.9220 C.ar      1 ATP         0.2637
     32 HOG3       -1.3715   -1.1940   -7.3195 H         1 ATP         0.4378
     33 H5'1        1.3514    0.2330   -2.1577 H         1 ATP         0.0340
     34 H5'2        2.1280   -1.3678   -2.0460 H         1 ATP         0.0340
     35 H4'         3.8044   -0.1397   -0.4040 H         1 ATP         0.0910
     36 H3'         1.6764   -1.7639    0.2728 H         1 ATP         0.0656
     37 HO3'        3.5554   -1.2733    1.4914 H         1 ATP         0.4386
     38 H2'        -0.0011    0.0027    0.0003 H         1 ATP         0.0788
     39 HO2'       -0.6141    0.5574    2.1082 H         1 ATP         0.4363
     40 H1'         1.7826    1.9024    1.6451 H         1 ATP         0.1225
     41 H8          0.7125    2.3429   -1.9292 H         1 ATP         0.3824
     42 HN62       -3.3217    6.4517    0.2629 H         1 ATP         0.4018
     43 H2         -1.5188    4.4223    3.7890 H         1 ATP         0.0652
     44 H44        -2.7470    5.7626    2.3665 H         1 ATP         0.4503
     45 H45        -1.0305    4.1680   -2.1054 H         1 ATP         0.5209
@<TRIPOS>BOND
     1    1    2 2
     2    1    3 1
     3    1    4 1
     4    1    8 1
     5    4   32 1
     6    5    6 2
     7    5    7 1
     8    5    8 1
     9    5   12 1
    10    9   10 2
    11    9   11 1
    12    9   12 1
    13    9   13 1
    14   13   14 1
    15   14   15 1
    16   14   33 1
    17   14   34 1
    18   15   16 1
    19   15   17 1
    20   15   35 1
    21   16   21 1
    22   17   18 1
    23   17   19 1
    24   17   36 1
    25   18   37 1
    26   19   20 1
    27   19   21 1
    28   19   38 1
    29   20   39 1
    30   21   22 1
    31   21   40 1
    32   22   23 ar
    33   22   31 ar
    34   23   24 ar
    35   23   41 1
    36   24   25 ar
    37   24   45 1
    38   25   26 ar
    39   25   31 ar
    40   26   27 2
    41   26   28 ar
    42   27   42 1
    43   28   29 ar
    44   28   44 1
    45   29   30 ar
    46   29   43 1
    47   30   31 ar
@<TRIPOS>SUBSTRUCTURE
     1 ATP         1 GROUP 0 A     ****
@<TRIPOS>MOLECULE
[[[3,4-dihydroxy-5-(6-imino-7,8-dihydro-1~{H}-purin-8-ylium-9-yl)tetrahydrofuran-2-yl]methoxy-oxido-phosphoryl]oxy-oxido-phosphoryl] hydrogen phosphate
   45    47     1     0     0
SMALL
USER_CHARGES

@<TRIPOS>ATOM
      1 PG          4.7989   -2.5928   -8.1119 P.3       1 ATP         1.5631
      2 O1G         3.6377   -2.6714   -9.0778 O.co2     1 ATP        -0.8806
      3 O2G         5.6823   -3.7942   -7.8591 O.co2     1 ATP        -0.8806
      4 O3G         5.7461   -1.3340   -8.5409 O.3       1 ATP        -0.8165
      5 PB          3.4101   -0.6680   -6.3484 P.3       1 ATP         1.6877
      6 O1B         4.2778    0.5355   -6.6418 O.co2     1 ATP        -0.8727
      7 O2B         2.0294   -0.8039   -6.9508 O.co2     1 ATP        -0.8727
      8 O3B         4.2617   -2.0208   -6.6808 O.3       1 ATP        -0.8330
      9 PA          2.6196   -2.0516   -3.8552 P.3       1 ATP         1.6036
     10 O1A         3.4100   -3.3219   -4.0828 O.co2     1 ATP        -0.9062
     11 O2A         1.1235   -2.0206   -4.0803 O.co2     1 ATP        -0.9062
     12 O3A         3.2955   -0.8484   -4.7300 O.3       1 ATP        -0.8166
     13 O5'         2.9216   -1.4836   -2.3516 O.3       1 ATP        -0.5510
     14 C5'         2.2816   -0.2918   -1.9206 C.3       1 ATP         0.2099
     15 C4'         2.7248    0.0226   -0.4980 C.3       1 ATP         0.0598
     16 O4'         2.4697    1.4219   -0.2462 O.3       1 ATP        -0.3455
     17 C3'         1.9404   -0.7419    0.5596 C.3       1 ATP         0.0742
     18 O3'         2.7418   -0.8086    1.7389 O.3       1 ATP        -0.6025
     19 C2'         0.7477    0.1630    0.7858 C.3       1 ATP         0.1145
     20 O2'         0.1373   -0.0577    2.0407 O.3       1 ATP        -0.5835
     21 C1'         1.3733    1.5427    0.6747 C.3       1 ATP         0.3776
     22 N9          0.4520    2.5240    0.1767 N.pl3     1 ATP        -0.4429
     23 C8          0.2216    2.8192   -1.0985 C.ar      1 ATP         0.2964
     24 N7         -0.6906    3.7763   -1.2384 N.pl3     1 ATP        -0.4957
     25 C5         -1.0575    4.1037    0.0366 C.ar      1 ATP        -0.1346
     26 C6         -2.0291    5.0943    0.5330 C.ar      1 ATP         0.7213
     27 N6         -2.7093    5.8371   -0.2800 N.2       1 ATP        -0.8215
     28 N1         -2.1051    5.1136    1.9204 N.pl3     1 ATP        -0.8455
     29 C2         -1.3354    4.2774    2.7129 C.ar      1 ATP         0.6477
     30 N3         -0.4707    3.3945    2.2944 N.2       1 ATP        -0.5707
     31 C4         -0.3734    3.3525    0.9220 C.ar      1 ATP         0.2637
     32 HOG3        6.5478   -1.1495   -8.0066 H         1 ATP         0.4378
     33 H5'1        2.5589    0.5217   -2.5976 H         1 ATP         0.0340
     34 H5'2        1.1982   -0.4388   -1.9617 H         1 ATP         0.0340
     35 H4'         3.8044   -0.1397   -0.4040 H         1 ATP         0.0910
     36 H3'         1.6764   -1.7639    0.2728 H         1 ATP         0.0656
     37 HO3'        2.2232   -1.2979    2.3953 H         1 ATP         0.4386
     38 H2'        -0.0011    0.0027    0.0003 H         1 ATP         0.0788
     39 HO2'       -0.6141    0.5574    2.1082 H         1 ATP         0.4363
     40 H1'         1.7826    1.9024    1.6451 H         1 ATP         0.1225
     41 H8          0.7125    2.3429   -1.9292 H         1 ATP         0.3824
     42 HN62       -3.3217    6.4517    0.2629 H         1 ATP         0.4018
     43 H2         -1.5188    4.4223    3.7890 H         1 ATP         0.0652
     44 H44        -2.7470    5.7626    2.3665 H         1 ATP         0.4503
     45 H45        -1.0305    4.1680   -2.1054 H         1 ATP         0.5209
@<TRIPOS>BOND
     1    1    2 2
     2    1    3 1
     3    1    4 1
     4    1    8 1
     5    4   32 1
     6    5    6 2
     7    5    7 1
     8    5    8 1
     9    5   12 1
    10    9   10 2
    11    9   11 1
    12    9   12 1
    13    9   13 1
    14   13   14 1
    15   14   15 1
    16   14   33 1
    17   14   34 1
    18   15   16 1
    19   15   17 1
    20   15   35 1
    21   16   21 1
    22   17   18 1
    23   17   19 1
    24   17   36 1
    25   18   37 1
    26   19   20 1
    27   19   21 1
    28   19   38 1
    29   20   39 1
    30   21   22 1
    31   21   40 1
    32   22   23 ar
    33   22   31 ar
    34   23   24 ar
    35   23   41 1
    36   24   25 ar
    37   24   45 1
    38   25   26 ar
    39   25   31 ar
    40   26   27 2
    41   26   28 ar
    42   27   42 1
    43   28   29 ar
    44   28   44 1
    45   29   30 ar
    46   29   43 1
    47   30   31 ar
@<TRIPOS>SUBSTRUCTURE
     1 ATP         1 GROUP 0 A     ****
@<TRIPOS>MOLECULE
[[[3,4-dihydroxy-5-(6-imino-7,8-dihydro-1~{H}-purin-8-ylium-9-yl)tetrahydrofuran-2-yl]methoxy-oxido-phosphoryl]oxy-oxido-phosphoryl] hydrogen phosphate
   45    47     1     0     0
SMALL
USER_CHARGES

@<TRIPOS>ATOM
      1 PG          1.6483   -5.6135    6.2175 P.3       1 ATP         1.5631
      2 O1G         0.2662   -5.0765    6.5158 O.co2     1 ATP        -0.8806
      3 O2G         2.7262   -4.7151    5.6531 O.co2     1 ATP        -0.8806
      4 O3G         2.2264   -6.3341    7.5637 O.3       1 ATP        -0.8165
      5 PB          0.9908   -7.0673    3.7279 P.3       1 ATP         1.6877
      6 O1B         1.7721   -6.0993    2.8677 O.co2     1 ATP        -0.8727
      7 O2B         0.8990   -8.5342    3.3712 O.co2     1 ATP        -0.8727
      8 O3B         1.5114   -6.9352    5.2697 O.3       1 ATP        -0.8330
      9 PA         -1.7207   -6.2770    2.8455 P.3       1 ATP         1.6036
     10 O1A        -2.8745   -5.5693    3.5224 O.co2     1 ATP        -0.9062
     11 O2A        -1.9354   -7.5877    2.1206 O.co2     1 ATP        -0.9062
     12 O3A        -0.5195   -6.4829    3.9339 O.3       1 ATP        -0.8166
     13 O5'        -0.9724   -5.2440    1.8220 O.3       1 ATP        -0.5510
     14 C5'        -0.7840   -3.8935    2.2172 C.3       1 ATP         0.2099
     15 C4'        -0.0724   -3.1466    1.1027 C.3       1 ATP         0.0598
     16 O4'        -0.8674   -3.1929   -0.0945 O.3       1 ATP        -0.3455
     17 C3'         0.1338   -1.6715    1.4027 C.3       1 ATP         0.0742
     18 O3'         1.2893   -1.4445    2.1808 O.3       1 ATP        -0.6025
     19 C2'         0.2158   -1.0724    0.0128 C.3       1 ATP         0.1145
     20 O2'         1.5141   -1.2448   -0.5513 O.3       1 ATP        -0.5835
     21 C1'        -0.7897   -1.9176   -0.7583 C.3       1 ATP         0.3776
     22 N9         -2.1040   -1.3333   -0.7704 N.pl3     1 ATP        -0.4429
     23 C8         -3.0590   -1.5123    0.1363 C.ar      1 ATP         0.2964
     24 N7         -4.1655   -0.8354   -0.1554 N.pl3     1 ATP        -0.4957
     25 C5         -3.8852   -0.1874   -1.3253 C.ar      1 ATP        -0.1346
     26 C6         -4.7113    0.7160   -2.1458 C.ar      1 ATP         0.7213
     27 N6         -5.9213    1.0209   -1.8021 N.2       1 ATP        -0.8215
     28 N1         -4.0411    1.1673   -3.2764 N.pl3     1 ATP        -0.8455
     29 C2         -2.7403    0.7865   -3.5638 C.ar      1 ATP         0.6477
     30 N3         -1.9921   -0.0108   -2.8519 N.2       1 ATP        -0.5707
     31 C4         -2.6302   -0.4747   -1.7239 C.ar      1 ATP         0.2637
     32 HOG3        3.1208   -6.7357    7.5309 H         1 ATP         0.4378
     33 H5'1       -1.7618   -3.4448    2.4164 H         1 ATP         0.0340
     34 H5'2       -0.1874   -3.8744    3.1341 H         1 ATP         0.0340
     35 H4'         0.8874   -3.6466    0.8805 H         1 ATP         0.0910
     36 H3'        -0.7376   -1.2333    1.9867 H         1 ATP         0.0656
     37 HO3'        1.1626   -1.9325    3.0084 H         1 ATP         0.4386
     38 H2'        -0.0384   -0.0310    0.0096 H         1 ATP         0.0788
     39 HO2'        2.1463   -0.7958    0.0370 H         1 ATP         0.4363
     40 H1'        -0.4769   -2.1002   -1.8093 H         1 ATP         0.1225
     41 H8         -2.9569   -2.1323    1.0098 H         1 ATP         0.3824
     42 HN62       -6.3169    1.6552   -2.5012 H         1 ATP         0.4018
     43 H2         -2.3612    1.2343   -4.4957 H         1 ATP         0.0652
     44 H44        -4.5223    1.7976   -3.9117 H         1 ATP         0.4503
     45 H45        -5.0218   -0.8132    0.3804 H         1 ATP         0.5209
@<TRIPOS>BOND
     1    1    2 2
     2    1    3 1
     3    1    4 1
     4    1    8 1
     5    4   32 1
     6    5    6 2
     7    5    7 1
     8    5    8 1
     9    5   12 1
    10    9   10 2
    11    9   11 1
    12    9   12 1
    13    9   13 1
    14   13   14 1
    15   14   15 1
    16   14   33 1
    17   14   34 1
    18   15   16 1
    19   15   17 1
    20   15   35 1
    21   16   21 1
    22   17   18 1
    23   17   19 1
    24   17   36 1
    25   18   37 1
    26   19   20 1
    27   19   21 1
    28   19   38 1
    29   20   39 1
    30   21   22 1
    31   21   40 1
    32   22   23 ar
    33   22   31 ar
    34   23   24 ar
    35   23   41 1
    36   24   25 ar
    37   24   45 1
    38   25   26 ar
    39   25   31 ar
    40   26   27 2
    41   26   28 ar
    42   27   42 1
    43   28   29 ar
    44   28   44 1
    45   29   30 ar
    46   29   43 1
    47   30   31 ar
@<TRIPOS>SUBSTRUCTURE
     1 ATP         1 GROUP 0 A     ****
@<TRIPOS>MOLECULE
[[[3,4-dihydroxy-5-(6-imino-7,8-dihydro-1~{H}-purin-8-ylium-9-yl)tetrahydrofuran-2-yl]methoxy-oxido-phosphoryl]oxy-oxido-phosphoryl] hydrogen phosphate
   45    47     1     0     0
SMALL
USER_CHARGES

@<TRIPOS>ATOM
      1 PG          7.1304   -0.2227   -6.0144 P.3       1 ATP         1.5631
      2 O1G         8.3277    0.4917   -5.4283 O.co2     1 ATP        -0.8806
      3 O2G         6.3174    0.4050   -7.1247 O.co2     1 ATP        -0.8806
      4 O3G         7.5981   -1.7121   -6.4927 O.3       1 ATP        -0.8165
      5 PB          6.4334   -1.5035   -3.4420 P.3       1 ATP         1.6877
      6 O1B         6.7842   -2.9244   -3.8235 O.co2     1 ATP        -0.8727
      7 O2B         7.3438   -0.6828   -2.5559 O.co2     1 ATP        -0.8727
      8 O3B         6.1257   -0.6568   -4.8036 O.3       1 ATP        -0.8330
      9 PA          3.5300   -2.0730   -3.4114 P.3       1 ATP         1.6036
     10 O1A         3.6301   -3.5805   -3.5006 O.co2     1 ATP        -0.9062
     11 O2A         3.1564   -1.2495   -4.6246 O.co2     1 ATP        -0.9062
     12 O3A         4.9303   -1.4885   -2.8054 O.3       1 ATP        -0.8166
     13 O5'         2.5245   -1.6648   -2.1878 O.3       1 ATP        -0.5510
     14 C5'         2.2816   -0.2918   -1.9206 C.3       1 ATP         0.2099
     15 C4'         2.7248    0.0226   -0.4980 C.3       1 ATP         0.0598
     16 O4'         2.4697    1.4219   -0.2462 O.3       1 ATP        -0.3455
     17 C3'         1.9404   -0.7419    0.5596 C.3       1 ATP         0.0742
     18 O3'         2.7418   -0.8086    1.7389 O.3       1 ATP        -0.6025
     19 C2'         0.7477    0.1630    0.7858 C.3       1 ATP         0.1145
     20 O2'         0.1373   -0.0577    2.0407 O.3       1 ATP        -0.5835
     21 C1'         1.3733    1.5427    0.6747 C.3       1 ATP         0.3776
     22 N9          0.4520    2.5240    0.1767 N.pl3     1 ATP        -0.4429
     23 C8          0.2216    2.8192   -1.0985 C.ar      1 ATP         0.2964
     24 N7         -0.6906    3.7763   -1.2384 N.pl3     1 ATP        -0.4957
     25 C5         -1.0575    4.1037    0.0366 C.ar      1 ATP        -0.1346
     26 C6         -2.0291    5.0943    0.5330 C.ar      1 ATP         0.7213
     27 N6         -2.7093    5.8371   -0.2800 N.2       1 ATP        -0.8215
     28 N1         -2.1051    5.1136    1.9204 N.pl3     1 ATP        -0.8455
     29 C2         -1.3354    4.2774    2.7129 C.ar      1 ATP         0.6477
     30 N3         -0.4707    3.3945    2.2944 N.2       1 ATP        -0.5707
     31 C4         -0.3734    3.3525    0.9220 C.ar      1 ATP         0.2637
     32 HOG3        6.9288   -2.3042   -6.8974 H         1 ATP         0.4378
     33 H5'1        2.8432    0.3119   -2.6398 H         1 ATP         0.0340
     34 H5'2        1.2128   -0.0927   -2.0428 H         1 ATP         0.0340
     35 H4'         3.8044   -0.1397   -0.4040 H         1 ATP         0.0910
     36 H3'         1.6764   -1.7639    0.2728 H         1 ATP         0.0656
     37 HO3'        2.2232   -1.2979    2.3953 H         1 ATP         0.4386
     38 H2'        -0.0011    0.0027    0.0003 H         1 ATP         0.0788
     39 HO2'       -0.6141    0.5574    2.1082 H         1 ATP         0.4363
     40 H1'         1.7826    1.9024    1.6451 H         1 ATP         0.1225
     41 H8          0.7125    2.3429   -1.9292 H         1 ATP         0.3824
     42 HN62       -3.3217    6.4517    0.2629 H         1 ATP         0.4018
     43 H2         -1.5188    4.4223    3.7890 H         1 ATP         0.0652
     44 H44        -2.7470    5.7626    2.3665 H         1 ATP         0.4503
     45 H45        -1.0305    4.1680   -2.1054 H         1 ATP         0.5209
@<TRIPOS>BOND
     1    1    2 2
     2    1    3 1
     3    1    4 1
     4    1    8 1
     5    4   32 1
     6    5    6 2
     7    5    7 1
     8    5    8 1
     9    5   12 1
    10    9   10 2
    11    9   11 1
    12    9   12 1
    13    9   13 1
    14   13   14 1
    15   14   15 1
    16   14   33 1
    17   14   34 1
    18   15   16 1
    19   15   17 1
    20   15   35 1
    21   16   21 1
    22   17   18 1
    23   17   19 1
    24   17   36 1
    25   18   37 1
    26   19   20 1
    27   19   21 1
    28   19   38 1
    29   20   39 1
    30   21   22 1
    31   21   40 1
    32   22   23 ar
    33   22   31 ar
    34   23   24 ar
    35   23   41 1
    36   24   25 ar
    37   24   45 1
    38   25   26 ar
    39   25   31 ar
    40   26   27 2
    41   26   28 ar
    42   27   42 1
    43   28   29 ar
    44   28   44 1
    45   29   30 ar
    46   29   43 1
    47   30   31 ar
@<TRIPOS>SUBSTRUCTURE
     1 ATP         1 GROUP 0 A     ****
@<TRIPOS>MOLECULE
[[[3,4-dihydroxy-5-(6-imino-7,8-dihydro-1~{H}-purin-8-ylium-9-yl)tetrahydrofuran-2-yl]methoxy-oxido-phosphoryl]oxy-oxido-phosphoryl] hydrogen phosphate
   45    47     1     0     0
SMALL
USER_CHARGES

@<TRIPOS>ATOM
      1 PG          3.9816   -4.2728   -4.3984 P.3       1 ATP         1.5631
      2 O1G         2.5265   -3.9545   -4.6603 O.co2     1 ATP        -0.8806
      3 O2G         4.4603   -4.6356   -3.0102 O.co2     1 ATP        -0.8806
      4 O3G         4.4498   -5.4472   -5.4316 O.3       1 ATP        -0.8165
      5 PB          5.0227   -1.5062   -4.4736 P.3       1 ATP         1.6877
      6 O1B         5.3188   -1.4975   -2.9904 O.co2     1 ATP        -0.8727
      7 O2B         5.8921   -0.7462   -5.4504 O.co2     1 ATP        -0.8727
      8 O3B         4.9037   -3.0555   -4.9745 O.3       1 ATP        -0.8330
      9 PA          2.7407    0.3769   -4.4297 P.3       1 ATP         1.6036
     10 O1A         1.2546    0.2227   -4.6707 O.co2     1 ATP        -0.9062
     11 O2A         3.5325    1.4517   -5.1421 O.co2     1 ATP        -0.9062
     12 O3A         3.4685   -1.0610   -4.6995 O.3       1 ATP        -0.8166
     13 O5'         3.0213    0.5153   -2.8245 O.3       1 ATP        -0.5510
     14 C5'         2.2816   -0.2918   -1.9206 C.3       1 ATP         0.2099
     15 C4'         2.7248    0.0226   -0.4980 C.3       1 ATP         0.0598
     16 O4'         2.4697    1.4219   -0.2462 O.3       1 ATP        -0.3455
     17 C3'         1.9404   -0.7419    0.5596 C.3       1 ATP         0.0742
     18 O3'         2.7418   -0.8086    1.7389 O.3       1 ATP        -0.6025
     19 C2'         0.7477    0.1630    0.7858 C.3       1 ATP         0.1145
     20 O2'         0.1373   -0.0577    2.0407 O.3       1 ATP        -0.5835
     21 C1'         1.3733    1.5427    0.6747 C.3       1 ATP         0.3776
     22 N9          0.4520    2.5240    0.1767 N.pl3     1 ATP        -0.4429
     23 C8         -0.6821    2.9098    0.7521 C.ar      1 ATP         0.2964
     24 N7         -1.3175    3.8384    0.0437 N.pl3     1 ATP        -0.4957
     25 C5         -0.5274    4.0494   -1.0512 C.ar      1 ATP        -0.1346
     26 C6         -0.6966    4.9597   -2.1977 C.ar      1 ATP         0.7213
     27 N6         -1.7259    5.7385   -2.2937 N.2       1 ATP        -0.8215
     28 N1          0.3493    4.8663   -3.1079 N.pl3     1 ATP        -0.8455
     29 C2          1.4148    4.0005   -2.9208 C.ar      1 ATP         0.6477
     30 N3          1.5838    3.1876   -1.9144 N.2       1 ATP        -0.5707
     31 C4          0.5619    3.2578   -0.9949 C.ar      1 ATP         0.2637
     32 HOG3        5.3762   -5.7666   -5.3866 H         1 ATP         0.4378
     33 H5'1        1.2163   -0.0770   -2.0471 H         1 ATP         0.0340
     34 H5'2        2.4655   -1.3443   -2.1563 H         1 ATP         0.0340
     35 H4'         3.8044   -0.1397   -0.4040 H         1 ATP         0.0910
     36 H3'         1.6764   -1.7639    0.2728 H         1 ATP         0.0656
     37 HO3'        2.2232   -1.2979    2.3953 H         1 ATP         0.4386
     38 H2'        -0.0011    0.0027    0.0003 H         1 ATP         0.0788
     39 HO2'       -0.1563   -0.9855    2.0596 H         1 ATP         0.4363
     40 H1'         1.7826    1.9024    1.6451 H         1 ATP         0.1225
     41 H8         -1.0516    2.5207    1.6849 H         1 ATP         0.3824
     42 HN62       -1.6520    6.2842   -3.1564 H         1 ATP         0.4018
     43 H2          2.1542    4.0525   -3.7351 H         1 ATP         0.0652
     44 H44         0.3306    5.4533   -3.9370 H         1 ATP         0.4503
     45 H45        -2.1941    4.2838    0.2756 H         1 ATP         0.5209
@<TRIPOS>BOND
     1    1    2 2
     2    1    3 1
     3    1    4 1
     4    1    8 1
     5    4   32 1
     6    5    6 2
     7    5    7 1
     8    5    8 1
     9    5   12 1
    10    9   10 2
    11    9   11 1
    12    9   12 1
    13    9   13 1
    14   13   14 1
    15   14   15 1
    16   14   33 1
    17   14   34 1
    18   15   16 1
    19   15   17 1
    20   15   35 1
    21   16   21 1
    22   17   18 1
    23   17   19 1
    24   17   36 1
    25   18   37 1
    26   19   20 1
    27   19   21 1
    28   19   38 1
    29   20   39 1
    30   21   22 1
    31   21   40 1
    32   22   23 ar
    33   22   31 ar
    34   23   24 ar
    35   23   41 1
    36   24   25 ar
    37   24   45 1
    38   25   26 ar
    39   25   31 ar
    40   26   27 2
    41   26   28 ar
    42   27   42 1
    43   28   29 ar
    44   28   44 1
    45   29   30 ar
    46   29   43 1
    47   30   31 ar
@<TRIPOS>SUBSTRUCTURE
     1 ATP         1 GROUP 0 A     ****
@<TRIPOS>MOLECULE
[[[3,4-dihydroxy-5-(6-imino-7,8-dihydro-1~{H}-purin-8-ylium-9-yl)tetrahydrofuran-2-yl]methoxy-oxido-phosphoryl]oxy-oxido-phosphoryl] hydrogen phosphate
   45    47     1     0     0
SMALL
USER_CHARGES

@<TRIPOS>ATOM
      1 PG         -0.2364   -3.5068   -6.7410 P.3       1 ATP         1.5631
      2 O1G         0.5867   -3.9805   -7.9182 O.co2     1 ATP        -0.8806
      3 O2G        -1.6067   -2.8997   -6.9448 O.co2     1 ATP        -0.8806
      4 O3G        -0.3668   -4.7340   -5.6720 O.3       1 ATP        -0.8165
      5 PB          1.2375   -1.0019   -6.1965 P.3       1 ATP         1.6877
      6 O1B         2.2668   -1.1311   -7.2970 O.co2     1 ATP        -0.8727
      7 O2B         0.0693   -0.0498   -6.3243 O.co2     1 ATP        -0.8727
      8 O3B         0.6646   -2.4882   -5.8385 O.3       1 ATP        -0.8330
      9 PA          2.8621    0.6170   -4.3270 P.3       1 ATP         1.6036
     10 O1A         1.9204    1.7976   -4.2287 O.co2     1 ATP        -0.9062
     11 O2A         4.1143    0.6947   -5.1729 O.co2     1 ATP        -0.9062
     12 O3A         2.0098   -0.6976   -4.7908 O.3       1 ATP        -0.8166
     13 O5'         3.2903    0.1346   -2.8241 O.3       1 ATP        -0.5510
     14 C5'         2.2816   -0.2918   -1.9206 C.3       1 ATP         0.2099
     15 C4'         2.7248    0.0226   -0.4980 C.3       1 ATP         0.0598
     16 O4'         2.4697    1.4219   -0.2462 O.3       1 ATP        -0.3455
     17 C3'         1.9404   -0.7419    0.5596 C.3       1 ATP         0.0742
     18 O3'         2.7418   -0.8086    1.7389 O.3       1 ATP        -0.6025
     19 C2'         0.7477    0.1630    0.7858 C.3       1 ATP         0.1145
     20 O2'         0.1373   -0.0577    2.0407 O.3       1 ATP        -0.5835
     21 C1'         1.3733    1.5427    0.6747 C.3       1 ATP         0.3776
     22 N9          0.4520    2.5240    0.1767 N.pl3     1 ATP        -0.4429
     23 C8          0.5691    3.2215   -0.9485 C.ar      1 ATP         0.2964
     24 N7         -0.4499    4.0551   -1.1342 N.pl3     1 ATP        -0.4957
     25 C5         -1.2618    3.8674   -0.0512 C.ar      1 ATP        -0.1346
     26 C6         -2.5420    4.5007    0.3120 C.ar      1 ATP         0.7213
     27 N6         -3.0874    5.3993   -0.4432 N.2       1 ATP        -0.8215
     28 N1         -3.0494    4.0205    1.5133 N.pl3     1 ATP        -0.8455
     29 C2         -2.3933    3.0527    2.2567 C.ar      1 ATP         0.6477
     30 N3         -1.2611    2.4796    1.9536 N.2       1 ATP        -0.5707
     31 C4         -0.7334    2.9358    0.7669 C.ar      1 ATP         0.2637
     32 HOG3       -0.8762   -4.5827   -4.8474 H         1 ATP         0.4378
     33 H5'1        1.3514    0.2330   -2.1577 H         1 ATP         0.0340
     34 H5'2        2.1280   -1.3678   -2.0460 H         1 ATP         0.0340
     35 H4'         3.8044   -0.1397   -0.4040 H         1 ATP         0.0910
     36 H3'         1.6764   -1.7639    0.2728 H         1 ATP         0.0656
     37 HO3'        2.2232   -1.2979    2.3953 H         1 ATP         0.4386
     38 H2'        -0.0011    0.0027    0.0003 H         1 ATP         0.0788
     39 HO2'       -0.1563   -0.9855    2.0596 H         1 ATP         0.4363
     40 H1'         1.7826    1.9024    1.6451 H         1 ATP         0.1225
     41 H8          1.3912    3.1285   -1.6365 H         1 ATP         0.3824
     42 HN62       -3.9637    5.7083   -0.0142 H         1 ATP         0.4018
     43 H2         -2.9317    2.7866    3.1796 H         1 ATP         0.0652
     44 H44        -3.9307    4.3923    1.8558 H         1 ATP         0.4503
     45 H45        -0.5835    4.6857   -1.9122 H         1 ATP         0.5209
@<TRIPOS>BOND
     1    1    2 2
     2    1    3 1
     3    1    4 1
     4    1    8 1
     5    4   32 1
     6    5    6 2
     7    5    7 1
     8    5    8 1
     9    5   12 1
    10    9   10 2
    11    9   11 1
    12    9   12 1
    13    9   13 1
    14   13   14 1
    15   14   15 1
    16   14   33 1
    17   14   34 1
    18   15   16 1
    19   15   17 1
    20   15   35 1
    21   16   21 1
    22   17   18 1
    23   17   19 1
    24   17   36 1
    25   18   37 1
    26   19   20 1
    27   19   21 1
    28   19   38 1
    29   20   39 1
    30   21   22 1
    31   21   40 1
    32   22   23 ar
    33   22   31 ar
    34   23   24 ar
    35   23   41 1
    36   24   25 ar
    37   24   45 1
    38   25   26 ar
    39   25   31 ar
    40   26   27 2
    41   26   28 ar
    42   27   42 1
    43   28   29 ar
    44   28   44 1
    45   29   30 ar
    46   29   43 1
    47   30   31 ar
@<TRIPOS>SUBSTRUCTURE
     1 ATP         1 GROUP 0 A     ****
@<TRIPOS>MOLECULE
[[[3,4-dihydroxy-5-(6-imino-7,8-dihydro-1~{H}-purin-8-ylium-9-yl)tetrahydrofuran-2-yl]methoxy-oxido-phosphoryl]oxy-oxido-phosphoryl] hydrogen phosphate
   45    47     1     0     0
SMALL
USER_CHARGES

@<TRIPOS>ATOM
      1 PG         -3.1892   -2.3669   -4.3779 P.3       1 ATP         1.5631
      2 O1G        -3.4641   -3.8370   -4.6028 O.co2     1 ATP        -0.8806
      3 O2G        -3.6383   -1.3295   -5.3829 O.co2     1 ATP        -0.8806
      4 O3G        -3.7673   -1.9499   -2.9089 O.3       1 ATP        -0.8165
      5 PB         -0.3144   -2.3805   -5.0699 P.3       1 ATP         1.6877
      6 O1B        -0.1912   -3.8540   -5.3876 O.co2     1 ATP        -0.8727
      7 O2B        -0.3678   -1.3438   -6.1699 O.co2     1 ATP        -0.8727
      8 O3B        -1.5969   -2.1632   -4.0832 O.3       1 ATP        -0.8330
      9 PA          1.2681   -2.6345   -2.5827 P.3       1 ATP         1.6036
     10 O1A         1.7719   -4.0417   -2.8198 O.co2     1 ATP        -0.9062
     11 O2A         0.1424   -2.3700   -1.6068 O.co2     1 ATP        -0.9062
     12 O3A         0.8674   -1.9707   -4.0210 O.3       1 ATP        -0.8166
     13 O5'         2.5245   -1.6648   -2.1878 O.3       1 ATP        -0.5510
     14 C5'         2.2816   -0.2918   -1.9206 C.3       1 ATP         0.2099
     15 C4'         2.7248    0.0226   -0.4980 C.3       1 ATP         0.0598
     16 O4'         2.4697    1.4219   -0.2462 O.3       1 ATP        -0.3455
     17 C3'         1.9404   -0.7419    0.5596 C.3       1 ATP         0.0742
     18 O3'         2.7418   -0.8086    1.7389 O.3       1 ATP        -0.6025
     19 C2'         0.7477    0.1630    0.7858 C.3       1 ATP         0.1145
     20 O2'         0.1373   -0.0577    2.0407 O.3       1 ATP        -0.5835
     21 C1'         1.3733    1.5427    0.6747 C.3       1 ATP         0.3776
     22 N9          0.4520    2.5240    0.1767 N.pl3     1 ATP        -0.4429
     23 C8          0.2216    2.8192   -1.0985 C.ar      1 ATP         0.2964
     24 N7         -0.6906    3.7763   -1.2384 N.pl3     1 ATP        -0.4957
     25 C5         -1.0575    4.1037    0.0366 C.ar      1 ATP        -0.1346
     26 C6         -2.0291    5.0943    0.5330 C.ar      1 ATP         0.7213
     27 N6         -2.7093    5.8371   -0.2800 N.2       1 ATP        -0.8215
     28 N1         -2.1051    5.1136    1.9204 N.pl3     1 ATP        -0.8455
     29 C2         -1.3354    4.2774    2.7129 C.ar      1 ATP         0.6477
     30 N3         -0.4707    3.3945    2.2944 N.2       1 ATP        -0.5707
     31 C4         -0.3734    3.3525    0.9220 C.ar      1 ATP         0.2637
     32 HOG3       -3.6649   -1.0201   -2.6136 H         1 ATP         0.4378
     33 H5'1        2.8432    0.3119   -2.6398 H         1 ATP         0.0340
     34 H5'2        1.2128   -0.0927   -2.0428 H         1 ATP         0.0340
     35 H4'         3.8044   -0.1397   -0.4040 H         1 ATP         0.0910
     36 H3'         1.6764   -1.7639    0.2728 H         1 ATP         0.0656
     37 HO3'        2.2232   -1.2979    2.3953 H         1 ATP         0.4386
     38 H2'        -0.0011    0.0027    0.0003 H         1 ATP         0.0788
     39 HO2'       -0.6141    0.5574    2.1082 H         1 ATP         0.4363
     40 H1'         1.7826    1.9024    1.6451 H         1 ATP         0.1225
     41 H8          0.7125    2.3429   -1.9292 H         1 ATP         0.3824
     42 HN62       -3.3217    6.4517    0.2629 H         1 ATP         0.4018
     43 H2         -1.5188    4.4223    3.7890 H         1 ATP         0.0652
     44 H44        -2.7470    5.7626    2.3665 H         1 ATP         0.4503
     45 H45        -1.0305    4.1680   -2.1054 H         1 ATP         0.5209
@<TRIPOS>BOND
     1    1    2 2
     2    1    3 1
     3    1    4 1
     4    1    8 1
     5    4   32 1
     6    5    6 2
     7    5    7 1
     8    5    8 1
     9    5   12 1
    10    9   10 2
    11    9   11 1
    12    9   12 1
    13    9   13 1
    14   13   14 1
    15   14   15 1
    16   14   33 1
    17   14   34 1
    18   15   16 1
    19   15   17 1
    20   15   35 1
    21   16   21 1
    22   17   18 1
    23   17   19 1
    24   17   36 1
    25   18   37 1
    26   19   20 1
    27   19   21 1
    28   19   38 1
    29   20   39 1
    30   21   22 1
    31   21   40 1
    32   22   23 ar
    33   22   31 ar
    34   23   24 ar
    35   23   41 1
    36   24   25 ar
    37   24   45 1
    38   25   26 ar
    39   25   31 ar
    40   26   27 2
    41   26   28 ar
    42   27   42 1
    43   28   29 ar
    44   28   44 1
    45   29   30 ar
    46   29   43 1
    47   30   31 ar
@<TRIPOS>SUBSTRUCTURE
     1 ATP         1 GROUP 0 A     ****
@<TRIPOS>MOLECULE
[[[3,4-dihydroxy-5-(6-imino-7,8-dihydro-1~{H}-purin-8-ylium-9-yl)tetrahydrofuran-2-yl]methoxy-oxido-phosphoryl]oxy-oxido-phosphoryl] hydrogen phosphate
   45    47     1     0     0
SMALL
USER_CHARGES

@<TRIPOS>ATOM
      1 PG         -0.9577    2.2963   -6.7250 P.3       1 ATP         1.5631
      2 O1G        -1.8407    3.4248   -6.2410 O.co2     1 ATP        -0.8806
      3 O2G        -1.5535    0.9785   -7.1678 O.co2     1 ATP        -0.8806
      4 O3G        -0.0027    2.8620   -7.9224 O.3       1 ATP        -0.8165
      5 PB          1.2543    3.0325   -4.9061 P.3       1 ATP         1.6877
      6 O1B         2.2261    3.5186   -5.9582 O.co2     1 ATP        -0.8727
      7 O2B         0.4864    4.0057   -4.0397 O.co2     1 ATP        -0.8727
      8 O3B         0.1949    2.0065   -5.6064 O.3       1 ATP        -0.8330
      9 PA          2.8621    0.6170   -4.3270 P.3       1 ATP         1.6036
     10 O1A         4.0995    1.0217   -5.0986 O.co2     1 ATP        -0.9062
     11 O2A         1.8962   -0.4011   -4.8927 O.co2     1 ATP        -0.9062
     12 O3A         2.0209    1.9632   -3.9398 O.3       1 ATP        -0.8166
     13 O5'         3.2903    0.1346   -2.8241 O.3       1 ATP        -0.5510
     14 C5'         2.2816   -0.2918   -1.9206 C.3       1 ATP         0.2099
     15 C4'         2.7248    0.0226   -0.4980 C.3       1 ATP         0.0598
     16 O4'         2.4697    1.4219   -0.2462 O.3       1 ATP        -0.3455
     17 C3'         1.9404   -0.7419    0.5596 C.3       1 ATP         0.0742
     18 O3'         2.7418   -0.8086    1.7389 O.3       1 ATP        -0.6025
     19 C2'         0.7477    0.1630    0.7858 C.3       1 ATP         0.1145
     20 O2'         0.1373   -0.0577    2.0407 O.3       1 ATP        -0.5835
     21 C1'         1.3733    1.5427    0.6747 C.3       1 ATP         0.3776
     22 N9          0.4520    2.5240    0.1767 N.pl3     1 ATP        -0.4429
     23 C8          0.5691    3.2215   -0.9485 C.ar      1 ATP         0.2964
     24 N7         -0.4499    4.0551   -1.1342 N.pl3     1 ATP        -0.4957
     25 C5         -1.2618    3.8674   -0.0512 C.ar      1 ATP        -0.1346
     26 C6         -2.5420    4.5007    0.3120 C.ar      1 ATP         0.7213
     27 N6         -3.0874    5.3993   -0.4432 N.2       1 ATP        -0.8215
     28 N1         -3.0494    4.0205    1.5133 N.pl3     1 ATP        -0.8455
     29 C2         -2.3933    3.0527    2.2567 C.ar      1 ATP         0.6477
     30 N3         -1.2611    2.4796    1.9536 N.2       1 ATP        -0.5707
     31 C4         -0.7334    2.9358    0.7669 C.ar      1 ATP         0.2637
     32 HOG3        0.6325    2.2447   -8.3441 H         1 ATP         0.4378
     33 H5'1        1.3514    0.2330   -2.1577 H         1 ATP         0.0340
     34 H5'2        2.1280   -1.3678   -2.0460 H         1 ATP         0.0340
     35 H4'         3.8044   -0.1397   -0.4040 H         1 ATP         0.0910
     36 H3'         1.6764   -1.7639    0.2728 H         1 ATP         0.0656
     37 HO3'        2.2232   -1.2979    2.3953 H         1 ATP         0.4386
     38 H2'        -0.0011    0.0027    0.0003 H         1 ATP         0.0788
     39 HO2'       -0.1563   -0.9855    2.0596 H         1 ATP         0.4363
     40 H1'         1.7826    1.9024    1.6451 H         1 ATP         0.1225
     41 H8          1.3912    3.1285   -1.6365 H         1 ATP         0.3824
     42 HN62       -3.9637    5.7083   -0.0142 H         1 ATP         0.4018
     43 H2         -2.9317    2.7866    3.1796 H         1 ATP         0.0652
     44 H44        -3.9307    4.3923    1.8558 H         1 ATP         0.4503
     45 H45        -0.5835    4.6857   -1.9122 H         1 ATP         0.5209
@<TRIPOS>BOND
     1    1    2 2
     2    1    3 1
     3    1    4 1
     4    1    8 1
     5    4   32 1
     6    5    6 2
     7    5    7 1
     8    5    8 1
     9    5   12 1
    10    9   10 2
    11    9   11 1
    12    9   12 1
    13    9   13 1
    14   13   14 1
    15   14   15 1
    16   14   33 1
    17   14   34 1
    18   15   16 1
    19   15   17 1
    20   15   35 1
    21   16   21 1
    22   17   18 1
    23   17   19 1
    24   17   36 1
    25   18   37 1
    26   19   20 1
    27   19   21 1
    28   19   38 1
    29   20   39 1
    30   21   22 1
    31   21   40 1
    32   22   23 ar
    33   22   31 ar
    34   23   24 ar
    35   23   41 1
    36   24   25 ar
    37   24   45 1
    38   25   26 ar
    39   25   31 ar
    40   26   27 2
    41   26   28 ar
    42   27   42 1
    43   28   29 ar
    44   28   44 1
    45   29   30 ar
    46   29   43 1
    47   30   31 ar
@<TRIPOS>SUBSTRUCTURE
     1 ATP         1 GROUP 0 A     ****
@<TRIPOS>MOLECULE
[[[3,4-dihydroxy-5-(6-imino-7,8-dihydro-1~{H}-purin-8-ylium-9-yl)tetrahydrofuran-2-yl]methoxy-oxido-phosphoryl]oxy-oxido-phosphoryl] hydrogen phosphate
   45    47     1     0     0
SMALL
USER_CHARGES

@<TRIPOS>ATOM
      1 PG         -1.1783   -0.1804   -5.3255 P.3       1 ATP         1.5631
      2 O1G        -1.8397    0.6588   -4.2551 O.co2     1 ATP        -0.8806
      3 O2G        -0.6863   -1.5784   -5.0237 O.co2     1 ATP        -0.8806
      4 O3G        -2.1723   -0.2485   -6.6191 O.3       1 ATP        -0.8165
      5 PB          1.4486    1.1770   -5.3406 P.3       1 ATP         1.6877
      6 O1B         2.2999    1.7870   -6.4318 O.co2     1 ATP        -0.8727
      7 O2B         1.1494    1.9332   -4.0655 O.co2     1 ATP        -0.8727
      8 O3B         0.0392    0.6758   -5.9950 O.3       1 ATP        -0.8330
      9 PA          3.4844   -0.6652   -4.2374 P.3       1 ATP         1.6036
     10 O1A         4.6107   -0.0317   -5.0250 O.co2     1 ATP        -0.9062
     11 O2A         3.4852   -2.1497   -3.9439 O.co2     1 ATP        -0.9062
     12 O3A         2.0649   -0.2836   -4.9510 O.3       1 ATP        -0.8166
     13 O5'         3.2903    0.1346   -2.8241 O.3       1 ATP        -0.5510
     14 C5'         2.2816   -0.2918   -1.9206 C.3       1 ATP         0.2099
     15 C4'         2.7248    0.0226   -0.4980 C.3       1 ATP         0.0598
     16 O4'         2.4697    1.4219   -0.2462 O.3       1 ATP        -0.3455
     17 C3'         1.9404   -0.7419    0.5596 C.3       1 ATP         0.0742
     18 O3'         2.7418   -0.8086    1.7389 O.3       1 ATP        -0.6025
     19 C2'         0.7477    0.1630    0.7858 C.3       1 ATP         0.1145
     20 O2'         0.1373   -0.0577    2.0407 O.3       1 ATP        -0.5835
     21 C1'         1.3733    1.5427    0.6747 C.3       1 ATP         0.3776
     22 N9          0.4520    2.5240    0.1767 N.pl3     1 ATP        -0.4429
     23 C8         -0.2004    2.4829   -0.9804 C.ar      1 ATP         0.2964
     24 N7         -0.9830    3.5431   -1.1568 N.pl3     1 ATP        -0.4957
     25 C5         -0.8095    4.3012   -0.0331 C.ar      1 ATP        -0.1346
     26 C6         -1.4065    5.5904    0.3585 C.ar      1 ATP         0.7213
     27 N6         -2.2501    6.2030   -0.4084 N.2       1 ATP        -0.8215
     28 N1         -0.9585    6.0272    1.5994 N.pl3     1 ATP        -0.8455
     29 C2         -0.0508    5.3009    2.3532 C.ar      1 ATP         0.6477
     30 N3          0.4890    4.1592    2.0257 N.2       1 ATP        -0.5707
     31 C4          0.0637    3.7006    0.7995 C.ar      1 ATP         0.2637
     32 HOG3       -1.8827   -0.7608   -7.4039 H         1 ATP         0.4378
     33 H5'1        1.3514    0.2330   -2.1577 H         1 ATP         0.0340
     34 H5'2        2.1280   -1.3678   -2.0460 H         1 ATP         0.0340
     35 H4'         3.8044   -0.1397   -0.4040 H         1 ATP         0.0910
     36 H3'         1.6764   -1.7639    0.2728 H         1 ATP         0.0656
     37 HO3'        2.2232   -1.2979    2.3953 H         1 ATP         0.4386
     38 H2'        -0.0011    0.0027    0.0003 H         1 ATP         0.0788
     39 HO2'       -0.6141    0.5574    2.1082 H         1 ATP         0.4363
     40 H1'         1.7826    1.9024    1.6451 H         1 ATP         0.1225
     41 H8         -0.1116    1.6863   -1.6984 H         1 ATP         0.3824
     42 HN62       -2.5420    7.0730    0.0447 H         1 ATP         0.4018
     43 H2          0.1969    5.7893    3.3086 H         1 ATP         0.0652
     44 H44        -1.3097    6.9080    1.9642 H         1 ATP         0.4503
     45 H45        -1.5735    3.7351   -1.9538 H         1 ATP         0.5209
@<TRIPOS>BOND
     1    1    2 2
     2    1    3 1
     3    1    4 1
     4    1    8 1
     5    4   32 1
     6    5    6 2
     7    5    7 1
     8    5    8 1
     9    5   12 1
    10    9   10 2
    11    9   11 1
    12    9   12 1
    13    9   13 1
    14   13   14 1
    15   14   15 1
    16   14   33 1
    17   14   34 1
    18   15   16 1
    19   15   17 1
    20   15   35 1
    21   16   21 1
    22   17   18 1
    23   17   19 1
    24   17   36 1
    25   18   37 1
    26   19   20 1
    27   19   21 1
    28   19   38 1
    29   20   39 1
    30   21   22 1
    31   21   40 1
    32   22   23 ar
    33   22   31 ar
    34   23   24 ar
    35   23   41 1
    36   24   25 ar
    37   24   45 1
    38   25   26 ar
    39   25   31 ar
    40   26   27 2
    41   26   28 ar
    42   27   42 1
    43   28   29 ar
    44   28   44 1
    45   29   30 ar
    46   29   43 1
    47   30   31 ar
@<TRIPOS>SUBSTRUCTURE
     1 ATP         1 GROUP 0 A     ****
@<TRIPOS>MOLECULE
[[[3,4-dihydroxy-5-(6-imino-7,8-dihydro-1~{H}-purin-8-ylium-9-yl)tetrahydrofuran-2-yl]methoxy-oxido-phosphoryl]oxy-oxido-phosphoryl] hydrogen phosphate
   45    47     1     0     0
SMALL
USER_CHARGES

@<TRIPOS>ATOM
      1 PG         -0.5144   -0.2089   -7.6555 P.3       1 ATP         1.5631
      2 O1G        -1.5284    0.8274   -7.2251 O.co2     1 ATP        -0.8806
      3 O2G        -0.9519   -1.5864   -8.1012 O.co2     1 ATP        -0.8806
      4 O3G         0.4261    0.4391   -8.8224 O.3       1 ATP        -0.8165
      5 PB          2.0066   -1.2178   -6.4849 P.3       1 ATP         1.6877
      6 O1B         1.6718   -2.6921   -6.5271 O.co2     1 ATP        -0.8727
      7 O2B         2.9550   -0.6009   -7.4886 O.co2     1 ATP        -0.8727
      8 O3B         0.6145   -0.3647   -6.4872 O.3       1 ATP        -0.8330
      9 PA          2.8621    0.6170   -4.3270 P.3       1 ATP         1.6036
     10 O1A         1.5883    1.4306   -4.2519 O.co2     1 ATP        -0.9062
     11 O2A         4.0923    1.1678   -5.0148 O.co2     1 ATP        -0.9062
     12 O3A         2.5170   -0.8400   -4.9811 O.3       1 ATP        -0.8166
     13 O5'         3.2903    0.1346   -2.8241 O.3       1 ATP        -0.5510
     14 C5'         2.2816   -0.2918   -1.9206 C.3       1 ATP         0.2099
     15 C4'         2.7248    0.0226   -0.4980 C.3       1 ATP         0.0598
     16 O4'         2.4697    1.4219   -0.2462 O.3       1 ATP        -0.3455
     17 C3'         1.9404   -0.7419    0.5596 C.3       1 ATP         0.0742
     18 O3'         2.7418   -0.8086    1.7389 O.3       1 ATP        -0.6025
     19 C2'         0.7477    0.1630    0.7858 C.3       1 ATP         0.1145
     20 O2'         0.1373   -0.0577    2.0407 O.3       1 ATP        -0.5835
     21 C1'         1.3733    1.5427    0.6747 C.3       1 ATP         0.3776
     22 N9          0.4520    2.5240    0.1767 N.pl3     1 ATP        -0.4429
     23 C8          0.2216    2.8192   -1.0985 C.ar      1 ATP         0.2964
     24 N7         -0.6906    3.7763   -1.2384 N.pl3     1 ATP        -0.4957
     25 C5         -1.0575    4.1037    0.0366 C.ar      1 ATP        -0.1346
     26 C6         -2.0291    5.0943    0.5330 C.ar      1 ATP         0.7213
     27 N6         -2.7093    5.8371   -0.2800 N.2       1 ATP        -0.8215
     28 N1         -2.1051    5.1136    1.9204 N.pl3     1 ATP        -0.8455
     29 C2         -1.3354    4.2774    2.7129 C.ar      1 ATP         0.6477
     30 N3         -0.4707    3.3945    2.2944 N.2       1 ATP        -0.5707
     31 C4         -0.3734    3.3525    0.9220 C.ar      1 ATP         0.2637
     32 HOG3        1.1386   -0.1137   -9.2085 H         1 ATP         0.4378
     33 H5'1        1.3514    0.2330   -2.1577 H         1 ATP         0.0340
     34 H5'2        2.1280   -1.3678   -2.0460 H         1 ATP         0.0340
     35 H4'         3.8044   -0.1397   -0.4040 H         1 ATP         0.0910
     36 H3'         1.6764   -1.7639    0.2728 H         1 ATP         0.0656
     37 HO3'        2.2232   -1.2979    2.3953 H         1 ATP         0.4386
     38 H2'        -0.0011    0.0027    0.0003 H         1 ATP         0.0788
     39 HO2'       -0.6141    0.5574    2.1082 H         1 ATP         0.4363
     40 H1'         1.7826    1.9024    1.6451 H         1 ATP         0.1225
     41 H8          0.7125    2.3429   -1.9292 H         1 ATP         0.3824
     42 HN62       -3.3217    6.4517    0.2629 H         1 ATP         0.4018
     43 H2         -1.5188    4.4223    3.7890 H         1 ATP         0.0652
     44 H44        -2.7470    5.7626    2.3665 H         1 ATP         0.4503
     45 H45        -1.0305    4.1680   -2.1054 H         1 ATP         0.5209
@<TRIPOS>BOND
     1    1    2 2
     2    1    3 1
     3    1    4 1
     4    1    8 1
     5    4   32 1
     6    5    6 2
     7    5    7 1
     8    5    8 1
     9    5   12 1
    10    9   10 2
    11    9   11 1
    12    9   12 1
    13    9   13 1
    14   13   14 1
    15   14   15 1
    16   14   33 1
    17   14   34 1
    18   15   16 1
    19   15   17 1
    20   15   35 1
    21   16   21 1
    22   17   18 1
    23   17   19 1
    24   17   36 1
    25   18   37 1
    26   19   20 1
    27   19   21 1
    28   19   38 1
    29   20   39 1
    30   21   22 1
    31   21   40 1
    32   22   23 ar
    33   22   31 ar
    34   23   24 ar
    35   23   41 1
    36   24   25 ar
    37   24   45 1
    38   25   26 ar
    39   25   31 ar
    40   26   27 2
    41   26   28 ar
    42   27   42 1
    43   28   29 ar
    44   28   44 1
    45   29   30 ar
    46   29   43 1
    47   30   31 ar
@<TRIPOS>SUBSTRUCTURE
     1 ATP         1 GROUP 0 A     ****
@<TRIPOS>MOLECULE
[[[3,4-dihydroxy-5-(6-imino-7,8-dihydro-1~{H}-purin-8-ylium-9-yl)tetrahydrofuran-2-yl]methoxy-oxido-phosphoryl]oxy-oxido-phosphoryl] hydrogen phosphate
   45    47     1     0     0
SMALL
USER_CHARGES

@<TRIPOS>ATOM
      1 PG          6.7468   -4.2023   -4.1667 P.3       1 ATP         1.5631
      2 O1G         7.9087   -3.7045   -4.9972 O.co2     1 ATP        -0.8806
      3 O2G         6.0585   -5.5081   -4.4966 O.co2     1 ATP        -0.8806
      4 O3G         7.2074   -4.2402   -2.6007 O.3       1 ATP        -0.8165
      5 PB          4.6772   -2.3763   -5.2277 P.3       1 ATP         1.6877
      6 O1B         5.5543   -1.6236   -6.2032 O.co2     1 ATP        -0.8727
      7 O2B         3.7032   -3.4313   -5.7029 O.co2     1 ATP        -0.8727
      8 O3B         5.6231   -3.0230   -4.0647 O.3       1 ATP        -0.8330
      9 PA          4.4374   -0.0466   -3.4193 P.3       1 ATP         1.6036
     10 O1A         5.0360    0.9827   -4.3535 O.co2     1 ATP        -0.9062
     11 O2A         5.2435   -0.6084   -2.2686 O.co2     1 ATP        -0.9062
     12 O3A         3.8708   -1.2955   -4.3076 O.3       1 ATP        -0.8166
     13 O5'         3.0213    0.5153   -2.8245 O.3       1 ATP        -0.5510
     14 C5'         2.2816   -0.2918   -1.9206 C.3       1 ATP         0.2099
     15 C4'         2.7248    0.0226   -0.4980 C.3       1 ATP         0.0598
     16 O4'         2.4697    1.4219   -0.2462 O.3       1 ATP        -0.3455
     17 C3'         1.9404   -0.7419    0.5596 C.3       1 ATP         0.0742
     18 O3'         2.7418   -0.8086    1.7389 O.3       1 ATP        -0.6025
     19 C2'         0.7477    0.1630    0.7858 C.3       1 ATP         0.1145
     20 O2'         0.1373   -0.0577    2.0407 O.3       1 ATP        -0.5835
     21 C1'         1.3733    1.5427    0.6747 C.3       1 ATP         0.3776
     22 N9          0.4520    2.5240    0.1767 N.pl3     1 ATP        -0.4429
     23 C8          0.2216    2.8192   -1.0985 C.ar      1 ATP         0.2964
     24 N7         -0.6906    3.7763   -1.2384 N.pl3     1 ATP        -0.4957
     25 C5         -1.0575    4.1037    0.0366 C.ar      1 ATP        -0.1346
     26 C6         -2.0291    5.0943    0.5330 C.ar      1 ATP         0.7213
     27 N6         -2.7093    5.8371   -0.2800 N.2       1 ATP        -0.8215
     28 N1         -2.1051    5.1136    1.9204 N.pl3     1 ATP        -0.8455
     29 C2         -1.3354    4.2774    2.7129 C.ar      1 ATP         0.6477
     30 N3         -0.4707    3.3945    2.2944 N.2       1 ATP        -0.5707
     31 C4         -0.3734    3.3525    0.9220 C.ar      1 ATP         0.2637
     32 HOG3        6.5586   -4.5438   -1.9304 H         1 ATP         0.4378
     33 H5'1        1.2163   -0.0770   -2.0471 H         1 ATP         0.0340
     34 H5'2        2.4655   -1.3443   -2.1563 H         1 ATP         0.0340
     35 H4'         3.8044   -0.1397   -0.4040 H         1 ATP         0.0910
     36 H3'         1.6764   -1.7639    0.2728 H         1 ATP         0.0656
     37 HO3'        2.2232   -1.2979    2.3953 H         1 ATP         0.4386
     38 H2'        -0.0011    0.0027    0.0003 H         1 ATP         0.0788
     39 HO2'       -0.6141    0.5574    2.1082 H         1 ATP         0.4363
     40 H1'         1.7826    1.9024    1.6451 H         1 ATP         0.1225
     41 H8          0.7125    2.3429   -1.9292 H         1 ATP         0.3824
     42 HN62       -3.3217    6.4517    0.2629 H         1 ATP         0.4018
     43 H2         -1.5188    4.4223    3.7890 H         1 ATP         0.0652
     44 H44        -2.7470    5.7626    2.3665 H         1 ATP         0.4503
     45 H45        -1.0305    4.1680   -2.1054 H         1 ATP         0.5209
@<TRIPOS>BOND
     1    1    2 2
     2    1    3 1
     3    1    4 1
     4    1    8 1
     5    4   32 1
     6    5    6 2
     7    5    7 1
     8    5    8 1
     9    5   12 1
    10    9   10 2
    11    9   11 1
    12    9   12 1
    13    9   13 1
    14   13   14 1
    15   14   15 1
    16   14   33 1
    17   14   34 1
    18   15   16 1
    19   15   17 1
    20   15   35 1
    21   16   21 1
    22   17   18 1
    23   17   19 1
    24   17   36 1
    25   18   37 1
    26   19   20 1
    27   19   21 1
    28   19   38 1
    29   20   39 1
    30   21   22 1
    31   21   40 1
    32   22   23 ar
    33   22   31 ar
    34   23   24 ar
    35   23   41 1
    36   24   25 ar
    37   24   45 1
    38   25   26 ar
    39   25   31 ar
    40   26   27 2
    41   26   28 ar
    42   27   42 1
    43   28   29 ar
    44   28   44 1
    45   29   30 ar
    46   29   43 1
    47   30   31 ar
@<TRIPOS>SUBSTRUCTURE
     1 ATP         1 GROUP 0 A     ****
@<TRIPOS>MOLECULE
[[[3,4-dihydroxy-5-(6-imino-7,8-dihydro-1~{H}-purin-8-ylium-9-yl)tetrahydrofuran-2-yl]methoxy-oxido-phosphoryl]oxy-oxido-phosphoryl] hydrogen phosphate
   45    47     1     0     0
SMALL
USER_CHARGES

@<TRIPOS>ATOM
      1 PG          4.5752   -0.9684   -7.4513 P.3       1 ATP         1.5631
      2 O1G         4.7439   -2.2443   -8.2457 O.co2     1 ATP        -0.8806
      3 O2G         5.6438   -0.5072   -6.4852 O.co2     1 ATP        -0.8806
      4 O3G         4.2540    0.2502   -8.4894 O.3       1 ATP        -0.8165
      5 PB          2.6408   -1.9833   -5.4584 P.3       1 ATP         1.6877
      6 O1B         1.2881   -1.5037   -4.9812 O.co2     1 ATP        -0.8727
      7 O2B         2.8628   -3.4230   -5.8651 O.co2     1 ATP        -0.8727
      8 O3B         3.1417   -1.0133   -6.6724 O.3       1 ATP        -0.8330
      9 PA          3.9668   -2.1116   -2.8163 P.3       1 ATP         1.6036
     10 O1A         5.0719   -1.3107   -2.1623 O.co2     1 ATP        -0.9062
     11 O2A         4.0210   -3.6235   -2.8465 O.co2     1 ATP        -0.9062
     12 O3A         3.7633   -1.5743   -4.3459 O.3       1 ATP        -0.8166
     13 O5'         2.5245   -1.6648   -2.1878 O.3       1 ATP        -0.5510
     14 C5'         2.2816   -0.2918   -1.9206 C.3       1 ATP         0.2099
     15 C4'         2.7248    0.0226   -0.4980 C.3       1 ATP         0.0598
     16 O4'         2.4697    1.4219   -0.2462 O.3       1 ATP        -0.3455
     17 C3'         1.9404   -0.7419    0.5596 C.3       1 ATP         0.0742
     18 O3'         2.7418   -0.8086    1.7389 O.3       1 ATP        -0.6025
     19 C2'         0.7477    0.1630    0.7858 C.3       1 ATP         0.1145
     20 O2'         0.1373   -0.0577    2.0407 O.3       1 ATP        -0.5835
     21 C1'         1.3733    1.5427    0.6747 C.3       1 ATP         0.3776
     22 N9          0.4520    2.5240    0.1767 N.pl3     1 ATP        -0.4429
     23 C8          0.2216    2.8192   -1.0985 C.ar      1 ATP         0.2964
     24 N7         -0.6906    3.7763   -1.2384 N.pl3     1 ATP        -0.4957
     25 C5         -1.0575    4.1037    0.0366 C.ar      1 ATP        -0.1346
     26 C6         -2.0291    5.0943    0.5330 C.ar      1 ATP         0.7213
     27 N6         -2.7093    5.8371   -0.2800 N.2       1 ATP        -0.8215
     28 N1         -2.1051    5.1136    1.9204 N.pl3     1 ATP        -0.8455
     29 C2         -1.3354    4.2774    2.7129 C.ar      1 ATP         0.6477
     30 N3         -0.4707    3.3945    2.2944 N.2       1 ATP        -0.5707
     31 C4         -0.3734    3.3525    0.9220 C.ar      1 ATP         0.2637
     32 HOG3        4.1175    1.1505   -8.1246 H         1 ATP         0.4378
     33 H5'1        2.8432    0.3119   -2.6398 H         1 ATP         0.0340
     34 H5'2        1.2128   -0.0927   -2.0428 H         1 ATP         0.0340
     35 H4'         3.8044   -0.1397   -0.4040 H         1 ATP         0.0910
     36 H3'         1.6764   -1.7639    0.2728 H         1 ATP         0.0656
     37 HO3'        2.2232   -1.2979    2.3953 H         1 ATP         0.4386
     38 H2'        -0.0011    0.0027    0.0003 H         1 ATP         0.0788
     39 HO2'       -0.6141    0.5574    2.1082 H         1 ATP         0.4363
     40 H1'         1.7826    1.9024    1.6451 H         1 ATP         0.1225
     41 H8          0.7125    2.3429   -1.9292 H         1 ATP         0.3824
     42 HN62       -3.3217    6.4517    0.2629 H         1 ATP         0.4018
     43 H2         -1.5188    4.4223    3.7890 H         1 ATP         0.0652
     44 H44        -2.7470    5.7626    2.3665 H         1 ATP         0.4503
     45 H45        -1.0305    4.1680   -2.1054 H         1 ATP         0.5209
@<TRIPOS>BOND
     1    1    2 2
     2    1    3 1
     3    1    4 1
     4    1    8 1
     5    4   32 1
     6    5    6 2
     7    5    7 1
     8    5    8 1
     9    5   12 1
    10    9   10 2
    11    9   11 1
    12    9   12 1
    13    9   13 1
    14   13   14 1
    15   14   15 1
    16   14   33 1
    17   14   34 1
    18   15   16 1
    19   15   17 1
    20   15   35 1
    21   16   21 1
    22   17   18 1
    23   17   19 1
    24   17   36 1
    25   18   37 1
    26   19   20 1
    27   19   21 1
    28   19   38 1
    29   20   39 1
    30   21   22 1
    31   21   40 1
    32   22   23 ar
    33   22   31 ar
    34   23   24 ar
    35   23   41 1
    36   24   25 ar
    37   24   45 1
    38   25   26 ar
    39   25   31 ar
    40   26   27 2
    41   26   28 ar
    42   27   42 1
    43   28   29 ar
    44   28   44 1
    45   29   30 ar
    46   29   43 1
    47   30   31 ar
@<TRIPOS>SUBSTRUCTURE
     1 ATP         1 GROUP 0 A     ****
@<TRIPOS>MOLECULE
[[[3,4-dihydroxy-5-(6-imino-7,8-dihydro-1~{H}-purin-8-ylium-9-yl)tetrahydrofuran-2-yl]methoxy-oxido-phosphoryl]oxy-oxido-phosphoryl] hydrogen phosphate
   45    47     1     0     0
SMALL
USER_CHARGES

@<TRIPOS>ATOM
      1 PG          7.6328   -0.4643   -0.8631 P.3       1 ATP         1.5631
      2 O1G         6.4019    0.2839   -0.4021 O.co2     1 ATP        -0.8806
      3 O2G         8.8141    0.2723   -1.4545 O.co2     1 ATP        -0.8806
      4 O3G         8.1658   -1.3946    0.3683 O.3       1 ATP        -0.8165
      5 PB          6.5300   -1.5474   -3.3838 P.3       1 ATP         1.6877
      6 O1B         7.4114   -0.6629   -4.2371 O.co2     1 ATP        -0.8727
      7 O2B         6.1391   -2.9360   -3.8384 O.co2     1 ATP        -0.8727
      8 O3B         7.1806   -1.6496   -1.8898 O.3       1 ATP        -0.8330
      9 PA          3.9554   -0.2064   -3.9565 P.3       1 ATP         1.6036
     10 O1A         3.2313   -1.4129   -4.5136 O.co2     1 ATP        -0.9062
     11 O2A         4.4942    0.8660   -4.8781 O.co2     1 ATP        -0.9062
     12 O3A         5.1753   -0.7215   -2.9994 O.3       1 ATP        -0.8166
     13 O5'         3.0213    0.5153   -2.8245 O.3       1 ATP        -0.5510
     14 C5'         2.2816   -0.2918   -1.9206 C.3       1 ATP         0.2099
     15 C4'         2.7248    0.0226   -0.4980 C.3       1 ATP         0.0598
     16 O4'         2.4697    1.4219   -0.2462 O.3       1 ATP        -0.3455
     17 C3'         1.9404   -0.7419    0.5596 C.3       1 ATP         0.0742
     18 O3'         2.7418   -0.8086    1.7389 O.3       1 ATP        -0.6025
     19 C2'         0.7477    0.1630    0.7858 C.3       1 ATP         0.1145
     20 O2'         0.1373   -0.0577    2.0407 O.3       1 ATP        -0.5835
     21 C1'         1.3733    1.5427    0.6747 C.3       1 ATP         0.3776
     22 N9          0.4520    2.5240    0.1767 N.pl3     1 ATP        -0.4429
     23 C8         -0.2004    2.4829   -0.9804 C.ar      1 ATP         0.2964
     24 N7         -0.9830    3.5431   -1.1568 N.pl3     1 ATP        -0.4957
     25 C5         -0.8095    4.3012   -0.0331 C.ar      1 ATP        -0.1346
     26 C6         -1.4065    5.5904    0.3585 C.ar      1 ATP         0.7213
     27 N6         -2.2501    6.2030   -0.4084 N.2       1 ATP        -0.8215
     28 N1         -0.9585    6.0272    1.5994 N.pl3     1 ATP        -0.8455
     29 C2         -0.0508    5.3009    2.3532 C.ar      1 ATP         0.6477
     30 N3          0.4890    4.1592    2.0257 N.2       1 ATP        -0.5707
     31 C4          0.0637    3.7006    0.7995 C.ar      1 ATP         0.2637
     32 HOG3        8.9644   -1.9460    0.2252 H         1 ATP         0.4378
     33 H5'1        1.2163   -0.0770   -2.0471 H         1 ATP         0.0340
     34 H5'2        2.4655   -1.3443   -2.1563 H         1 ATP         0.0340
     35 H4'         3.8044   -0.1397   -0.4040 H         1 ATP         0.0910
     36 H3'         1.6764   -1.7639    0.2728 H         1 ATP         0.0656
     37 HO3'        2.2232   -1.2979    2.3953 H         1 ATP         0.4386
     38 H2'        -0.0011    0.0027    0.0003 H         1 ATP         0.0788
     39 HO2'       -0.1563   -0.9855    2.0596 H         1 ATP         0.4363
     40 H1'         1.7826    1.9024    1.6451 H         1 ATP         0.1225
     41 H8         -0.1116    1.6863   -1.6984 H         1 ATP         0.3824
     42 HN62       -2.5420    7.0730    0.0447 H         1 ATP         0.4018
     43 H2          0.1969    5.7893    3.3086 H         1 ATP         0.0652
     44 H44        -1.3097    6.9080    1.9642 H         1 ATP         0.4503
     45 H45        -1.5735    3.7351   -1.9538 H         1 ATP         0.5209
@<TRIPOS>BOND
     1    1    2 2
     2    1    3 1
     3    1    4 1
     4    1    8 1
     5    4   32 1
     6    5    6 2
     7    5    7 1
     8    5    8 1
     9    5   12 1
    10    9   10 2
    11    9   11 1
    12    9   12 1
    13    9   13 1
    14   13   14 1
    15   14   15 1
    16   14   33 1
    17   14   34 1
    18   15   16 1
    19   15   17 1
    20   15   35 1
    21   16   21 1
    22   17   18 1
    23   17   19 1
    24   17   36 1
    25   18   37 1
    26   19   20 1
    27   19   21 1
    28   19   38 1
    29   20   39 1
    30   21   22 1
    31   21   40 1
    32   22   23 ar
    33   22   31 ar
    34   23   24 ar
    35   23   41 1
    36   24   25 ar
    37   24   45 1
    38   25   26 ar
    39   25   31 ar
    40   26   27 2
    41   26   28 ar
    42   27   42 1
    43   28   29 ar
    44   28   44 1
    45   29   30 ar
    46   29   43 1
    47   30   31 ar
@<TRIPOS>SUBSTRUCTURE
     1 ATP         1 GROUP 0 A     ****
@<TRIPOS>MOLECULE
[[[3,4-dihydroxy-5-(6-imino-7,8-dihydro-1~{H}-purin-8-ylium-9-yl)tetrahydrofuran-2-yl]methoxy-oxido-phosphoryl]oxy-oxido-phosphoryl] hydrogen phosphate
   45    47     1     0     0
SMALL
USER_CHARGES

@<TRIPOS>ATOM
      1 PG          1.4615   -3.9835   -7.3778 P.3       1 ATP         1.5631
      2 O1G         0.1107   -3.6193   -7.9523 O.co2     1 ATP        -0.8806
      3 O2G         1.7054   -5.3466   -6.7693 O.co2     1 ATP        -0.8806
      4 O3G         2.5996   -3.7131   -8.5169 O.3       1 ATP        -0.8165
      5 PB          2.0066   -1.2178   -6.4849 P.3       1 ATP         1.6877
      6 O1B         3.1144   -0.9047   -7.4658 O.co2     1 ATP        -0.8727
      7 O2B         0.6114   -0.6663   -6.6767 O.co2     1 ATP        -0.8727
      8 O3B         1.9090   -2.8376   -6.3052 O.3       1 ATP        -0.8330
      9 PA          2.8621    0.6170   -4.3270 P.3       1 ATP         1.6036
     10 O1A         1.5883    1.4306   -4.2519 O.co2     1 ATP        -0.9062
     11 O2A         4.0923    1.1678   -5.0148 O.co2     1 ATP        -0.9062
     12 O3A         2.5170   -0.8400   -4.9811 O.3       1 ATP        -0.8166
     13 O5'         3.2903    0.1346   -2.8241 O.3       1 ATP        -0.5510
     14 C5'         2.2816   -0.2918   -1.9206 C.3       1 ATP         0.2099
     15 C4'         2.7248    0.0226   -0.4980 C.3       1 ATP         0.0598
     16 O4'         2.4697    1.4219   -0.2462 O.3       1 ATP        -0.3455
     17 C3'         1.9404   -0.7419    0.5596 C.3       1 ATP         0.0742
     18 O3'         2.7418   -0.8086    1.7389 O.3       1 ATP        -0.6025
     19 C2'         0.7477    0.1630    0.7858 C.3       1 ATP         0.1145
     20 O2'         0.1373   -0.0577    2.0407 O.3       1 ATP        -0.5835
     21 C1'         1.3733    1.5427    0.6747 C.3       1 ATP         0.3776
     22 N9          0.4520    2.5240    0.1767 N.pl3     1 ATP        -0.4429
     23 C8          0.2216    2.8192   -1.0985 C.ar      1 ATP         0.2964
     24 N7         -0.6906    3.7763   -1.2384 N.pl3     1 ATP        -0.4957
     25 C5         -1.0575    4.1037    0.0366 C.ar      1 ATP        -0.1346
     26 C6         -2.0291    5.0943    0.5330 C.ar      1 ATP         0.7213
     27 N6         -2.7093    5.8371   -0.2800 N.2       1 ATP        -0.8215
     28 N1         -2.1051    5.1136    1.9204 N.pl3     1 ATP        -0.8455
     29 C2         -1.3354    4.2774    2.7129 C.ar      1 ATP         0.6477
     30 N3         -0.4707    3.3945    2.2944 N.2       1 ATP        -0.5707
     31 C4         -0.3734    3.3525    0.9220 C.ar      1 ATP         0.2637
     32 HOG3        3.5362   -3.9028   -8.2954 H         1 ATP         0.4378
     33 H5'1        1.3514    0.2330   -2.1577 H         1 ATP         0.0340
     34 H5'2        2.1280   -1.3678   -2.0460 H         1 ATP         0.0340
     35 H4'         3.8044   -0.1397   -0.4040 H         1 ATP         0.0910
     36 H3'         1.6764   -1.7639    0.2728 H         1 ATP         0.0656
     37 HO3'        2.2232   -1.2979    2.3953 H         1 ATP         0.4386
     38 H2'        -0.0011    0.0027    0.0003 H         1 ATP         0.0788
     39 HO2'       -0.1563   -0.9855    2.0596 H         1 ATP         0.4363
     40 H1'         1.7826    1.9024    1.6451 H         1 ATP         0.1225
     41 H8          0.7125    2.3429   -1.9292 H         1 ATP         0.3824
     42 HN62       -3.3217    6.4517    0.2629 H         1 ATP         0.4018
     43 H2         -1.5188    4.4223    3.7890 H         1 ATP         0.0652
     44 H44        -2.7470    5.7626    2.3665 H         1 ATP         0.4503
     45 H45        -1.0305    4.1680   -2.1054 H         1 ATP         0.5209
@<TRIPOS>BOND
     1    1    2 2
     2    1    3 1
     3    1    4 1
     4    1    8 1
     5    4   32 1
     6    5    6 2
     7    5    7 1
     8    5    8 1
     9    5   12 1
    10    9   10 2
    11    9   11 1
    12    9   12 1
    13    9   13 1
    14   13   14 1
    15   14   15 1
    16   14   33 1
    17   14   34 1
    18   15   16 1
    19   15   17 1
    20   15   35 1
    21   16   21 1
    22   17   18 1
    23   17   19 1
    24   17   36 1
    25   18   37 1
    26   19   20 1
    27   19   21 1
    28   19   38 1
    29   20   39 1
    30   21   22 1
    31   21   40 1
    32   22   23 ar
    33   22   31 ar
    34   23   24 ar
    35   23   41 1
    36   24   25 ar
    37   24   45 1
    38   25   26 ar
    39   25   31 ar
    40   26   27 2
    41   26   28 ar
    42   27   42 1
    43   28   29 ar
    44   28   44 1
    45   29   30 ar
    46   29   43 1
    47   30   31 ar
@<TRIPOS>SUBSTRUCTURE
     1 ATP         1 GROUP 0 A     ****
@<TRIPOS>MOLECULE
[[[3,4-dihydroxy-5-(6-imino-7,8-dihydro-1~{H}-purin-8-ylium-9-yl)tetrahydrofuran-2-yl]methoxy-oxido-phosphoryl]oxy-oxido-phosphoryl] hydrogen phosphate
   45    47     1     0     0
SMALL
USER_CHARGES

@<TRIPOS>ATOM
      1 PG         -0.4799   -0.7262   -7.6179 P.3       1 ATP         1.5631
      2 O1G        -0.8457   -2.1763   -7.3927 O.co2     1 ATP        -0.8806
      3 O2G         0.1513   -0.2765   -8.9168 O.co2     1 ATP        -0.8806
      4 O3G        -1.8012    0.1914   -7.3387 O.3       1 ATP        -0.8165
      5 PB          0.9889    1.2869   -6.0263 P.3       1 ATP         1.6877
      6 O1B         1.9772    1.7040   -7.0925 O.co2     1 ATP        -0.8727
      7 O2B        -0.1925    2.1608   -5.6684 O.co2     1 ATP        -0.8727
      8 O3B         0.4445   -0.2123   -6.3749 O.3       1 ATP        -0.8330
      9 PA          3.0675   -0.0857   -4.4293 P.3       1 ATP         1.6036
     10 O1A         4.2683    0.4444   -5.1827 O.co2     1 ATP        -0.9062
     11 O2A         2.5798   -1.5012   -4.6487 O.co2     1 ATP        -0.9062
     12 O3A         1.8107    0.9323   -4.6611 O.3       1 ATP        -0.8166
     13 O5'         3.2903    0.1346   -2.8241 O.3       1 ATP        -0.5510
     14 C5'         2.2816   -0.2918   -1.9206 C.3       1 ATP         0.2099
     15 C4'         2.7248    0.0226   -0.4980 C.3       1 ATP         0.0598
     16 O4'         2.4697    1.4219   -0.2462 O.3       1 ATP        -0.3455
     17 C3'         1.9404   -0.7419    0.5596 C.3       1 ATP         0.0742
     18 O3'         2.7418   -0.8086    1.7389 O.3       1 ATP        -0.6025
     19 C2'         0.7477    0.1630    0.7858 C.3       1 ATP         0.1145
     20 O2'         0.1373   -0.0577    2.0407 O.3       1 ATP        -0.5835
     21 C1'         1.3733    1.5427    0.6747 C.3       1 ATP         0.3776
     22 N9          0.4520    2.5240    0.1767 N.pl3     1 ATP        -0.4429
     23 C8         -0.6821    2.9098    0.7521 C.ar      1 ATP         0.2964
     24 N7         -1.3175    3.8384    0.0437 N.pl3     1 ATP        -0.4957
     25 C5         -0.5274    4.0494   -1.0512 C.ar      1 ATP        -0.1346
     26 C6         -0.6966    4.9597   -2.1977 C.ar      1 ATP         0.7213
     27 N6         -1.7259    5.7385   -2.2937 N.2       1 ATP        -0.8215
     28 N1          0.3493    4.8663   -3.1079 N.pl3     1 ATP        -0.8455
     29 C2          1.4148    4.0005   -2.9208 C.ar      1 ATP         0.6477
     30 N3          1.5838    3.1876   -1.9144 N.2       1 ATP        -0.5707
     31 C4          0.5619    3.2578   -0.9949 C.ar      1 ATP         0.2637
     32 HOG3       -1.7251    1.1638   -7.4437 H         1 ATP         0.4378
     33 H5'1        1.3514    0.2330   -2.1577 H         1 ATP         0.0340
     34 H5'2        2.1280   -1.3678   -2.0460 H         1 ATP         0.0340
     35 H4'         3.8044   -0.1397   -0.4040 H         1 ATP         0.0910
     36 H3'         1.6764   -1.7639    0.2728 H         1 ATP         0.0656
     37 HO3'        2.2232   -1.2979    2.3953 H         1 ATP         0.4386
     38 H2'        -0.0011    0.0027    0.0003 H         1 ATP         0.0788
     39 HO2'       -0.1563   -0.9855    2.0596 H         1 ATP         0.4363
     40 H1'         1.7826    1.9024    1.6451 H         1 ATP         0.1225
     41 H8         -1.0516    2.5207    1.6849 H         1 ATP         0.3824
     42 HN62       -1.6520    6.2842   -3.1564 H         1 ATP         0.4018
     43 H2          2.1542    4.0525   -3.7351 H         1 ATP         0.0652
     44 H44         0.3306    5.4533   -3.9370 H         1 ATP         0.4503
     45 H45        -2.1941    4.2838    0.2756 H         1 ATP         0.5209
@<TRIPOS>BOND
     1    1    2 2
     2    1    3 1
     3    1    4 1
     4    1    8 1
     5    4   32 1
     6    5    6 2
     7    5    7 1
     8    5    8 1
     9    5   12 1
    10    9   10 2
    11    9   11 1
    12    9   12 1
    13    9   13 1
    14   13   14 1
    15   14   15 1
    16   14   33 1
    17   14   34 1
    18   15   16 1
    19   15   17 1
    20   15   35 1
    21   16   21 1
    22   17   18 1
    23   17   19 1
    24   17   36 1
    25   18   37 1
    26   19   20 1
    27   19   21 1
    28   19   38 1
    29   20   39 1
    30   21   22 1
    31   21   40 1
    32   22   23 ar
    33   22   31 ar
    34   23   24 ar
    35   23   41 1
    36   24   25 ar
    37   24   45 1
    38   25   26 ar
    39   25   31 ar
    40   26   27 2
    41   26   28 ar
    42   27   42 1
    43   28   29 ar
    44   28   44 1
    45   29   30 ar
    46   29   43 1
    47   30   31 ar
@<TRIPOS>SUBSTRUCTURE
     1 ATP         1 GROUP 0 A     ****
@<TRIPOS>MOLECULE
[[[3,4-dihydroxy-5-(6-imino-7,8-dihydro-1~{H}-purin-8-ylium-9-yl)tetrahydrofuran-2-yl]methoxy-oxido-phosphoryl]oxy-oxido-phosphoryl] hydrogen phosphate
   45    47     1     0     0
SMALL
USER_CHARGES

@<TRIPOS>ATOM
      1 PG         -0.7933   -0.9685   -7.6235 P.3       1 ATP         1.5631
      2 O1G        -2.1989   -0.4898   -7.3358 O.co2     1 ATP        -0.8806
      3 O2G        -0.5446   -2.1349   -8.5538 O.co2     1 ATP        -0.8806
      4 O3G         0.0926    0.3029   -8.1377 O.3       1 ATP        -0.8165
      5 PB         -0.3144   -2.3805   -5.0699 P.3       1 ATP         1.6877
      6 O1B        -1.6534   -2.0940   -4.4277 O.co2     1 ATP        -0.8727
      7 O2B         0.0013   -3.7415   -5.6492 O.co2     1 ATP        -0.8727
      8 O3B        -0.0273   -1.2471   -6.2095 O.3       1 ATP        -0.8330
      9 PA          1.2681   -2.6345   -2.5827 P.3       1 ATP         1.6036
     10 O1A         1.7719   -4.0417   -2.8198 O.co2     1 ATP        -0.9062
     11 O2A         0.1424   -2.3700   -1.6068 O.co2     1 ATP        -0.9062
     12 O3A         0.8674   -1.9707   -4.0210 O.3       1 ATP        -0.8166
     13 O5'         2.5245   -1.6648   -2.1878 O.3       1 ATP        -0.5510
     14 C5'         2.2816   -0.2918   -1.9206 C.3       1 ATP         0.2099
     15 C4'         2.7248    0.0226   -0.4980 C.3       1 ATP         0.0598
     16 O4'         2.4697    1.4219   -0.2462 O.3       1 ATP        -0.3455
     17 C3'         1.9404   -0.7419    0.5596 C.3       1 ATP         0.0742
     18 O3'         2.7418   -0.8086    1.7389 O.3       1 ATP        -0.6025
     19 C2'         0.7477    0.1630    0.7858 C.3       1 ATP         0.1145
     20 O2'         0.1373   -0.0577    2.0407 O.3       1 ATP        -0.5835
     21 C1'         1.3733    1.5427    0.6747 C.3       1 ATP         0.3776
     22 N9          0.4520    2.5240    0.1767 N.pl3     1 ATP        -0.4429
     23 C8          0.2216    2.8192   -1.0985 C.ar      1 ATP         0.2964
     24 N7         -0.6906    3.7763   -1.2384 N.pl3     1 ATP        -0.4957
     25 C5         -1.0575    4.1037    0.0366 C.ar      1 ATP        -0.1346
     26 C6         -2.0291    5.0943    0.5330 C.ar      1 ATP         0.7213
     27 N6         -2.7093    5.8371   -0.2800 N.2       1 ATP        -0.8215
     28 N1         -2.1051    5.1136    1.9204 N.pl3     1 ATP        -0.8455
     29 C2         -1.3354    4.2774    2.7129 C.ar      1 ATP         0.6477
     30 N3         -0.4707    3.3945    2.2944 N.2       1 ATP        -0.5707
     31 C4         -0.3734    3.3525    0.9220 C.ar      1 ATP         0.2637
     32 HOG3        1.0347    0.1534   -8.3668 H         1 ATP         0.4378
     33 H5'1        2.8432    0.3119   -2.6398 H         1 ATP         0.0340
     34 H5'2        1.2128   -0.0927   -2.0428 H         1 ATP         0.0340
     35 H4'         3.8044   -0.1397   -0.4040 H         1 ATP         0.0910
     36 H3'         1.6764   -1.7639    0.2728 H         1 ATP         0.0656
     37 HO3'        2.2232   -1.2979    2.3953 H         1 ATP         0.4386
     38 H2'        -0.0011    0.0027    0.0003 H         1 ATP         0.0788
     39 HO2'       -0.1563   -0.9855    2.0596 H         1 ATP         0.4363
     40 H1'         1.7826    1.9024    1.6451 H         1 ATP         0.1225
     41 H8          0.7125    2.3429   -1.9292 H         1 ATP         0.3824
     42 HN62       -3.3217    6.4517    0.2629 H         1 ATP         0.4018
     43 H2         -1.5188    4.4223    3.7890 H         1 ATP         0.0652
     44 H44        -2.7470    5.7626    2.3665 H         1 ATP         0.4503
     45 H45        -1.0305    4.1680   -2.1054 H         1 ATP         0.5209
@<TRIPOS>BOND
     1    1    2 2
     2    1    3 1
     3    1    4 1
     4    1    8 1
     5    4   32 1
     6    5    6 2
     7    5    7 1
     8    5    8 1
     9    5   12 1
    10    9   10 2
    11    9   11 1
    12    9   12 1
    13    9   13 1
    14   13   14 1
    15   14   15 1
    16   14   33 1
    17   14   34 1
    18   15   16 1
    19   15   17 1
    20   15   35 1
    21   16   21 1
    22   17   18 1
    23   17   19 1
    24   17   36 1
    25   18   37 1
    26   19   20 1
    27   19   21 1
    28   19   38 1
    29   20   39 1
    30   21   22 1
    31   21   40 1
    32   22   23 ar
    33   22   31 ar
    34   23   24 ar
    35   23   41 1
    36   24   25 ar
    37   24   45 1
    38   25   26 ar
    39   25   31 ar
    40   26   27 2
    41   26   28 ar
    42   27   42 1
    43   28   29 ar
    44   28   44 1
    45   29   30 ar
    46   29   43 1
    47   30   31 ar
@<TRIPOS>SUBSTRUCTURE
     1 ATP         1 GROUP 0 A     ****
@<TRIPOS>MOLECULE
[[[3,4-dihydroxy-5-(6-imino-7,8-dihydro-1~{H}-purin-8-ylium-9-yl)tetrahydrofuran-2-yl]methoxy-oxido-phosphoryl]oxy-oxido-phosphoryl] hydrogen phosphate
   45    47     1     0     0
SMALL
USER_CHARGES

@<TRIPOS>ATOM
      1 PG          2.6193    4.6110   -7.0011 P.3       1 ATP         1.5631
      2 O1G         2.3258    5.9879   -6.4483 O.co2     1 ATP        -0.8806
      3 O2G         1.8586    4.0735   -8.1928 O.co2     1 ATP        -0.8806
      4 O3G         4.2179    4.5091   -7.3175 O.3       1 ATP        -0.8165
      5 PB          1.2543    3.0325   -4.9061 P.3       1 ATP         1.6877
      6 O1B         0.7746    4.1919   -4.0616 O.co2     1 ATP        -0.8727
      7 O2B         0.3061    2.2767   -5.8101 O.co2     1 ATP        -0.8727
      8 O3B         2.5384    3.5229   -5.7873 O.3       1 ATP        -0.8330
      9 PA          2.8621    0.6170   -4.3270 P.3       1 ATP         1.6036
     10 O1A         4.0995    1.0217   -5.0986 O.co2     1 ATP        -0.9062
     11 O2A         1.8962   -0.4011   -4.8927 O.co2     1 ATP        -0.9062
     12 O3A         2.0209    1.9632   -3.9398 O.3       1 ATP        -0.8166
     13 O5'         3.2903    0.1346   -2.8241 O.3       1 ATP        -0.5510
     14 C5'         2.2816   -0.2918   -1.9206 C.3       1 ATP         0.2099
     15 C4'         2.7248    0.0226   -0.4980 C.3       1 ATP         0.0598
     16 O4'         2.4697    1.4219   -0.2462 O.3       1 ATP        -0.3455
     17 C3'         1.9404   -0.7419    0.5596 C.3       1 ATP         0.0742
     18 O3'         2.7418   -0.8086    1.7389 O.3       1 ATP        -0.6025
     19 C2'         0.7477    0.1630    0.7858 C.3       1 ATP         0.1145
     20 O2'         0.1373   -0.0577    2.0407 O.3       1 ATP        -0.5835
     21 C1'         1.3733    1.5427    0.6747 C.3       1 ATP         0.3776
     22 N9          0.4520    2.5240    0.1767 N.pl3     1 ATP        -0.4429
     23 C8          0.5691    3.2215   -0.9485 C.ar      1 ATP         0.2964
     24 N7         -0.4499    4.0551   -1.1342 N.pl3     1 ATP        -0.4957
     25 C5         -1.2618    3.8674   -0.0512 C.ar      1 ATP        -0.1346
     26 C6         -2.5420    4.5007    0.3120 C.ar      1 ATP         0.7213
     27 N6         -3.0874    5.3993   -0.4432 N.2       1 ATP        -0.8215
     28 N1         -3.0494    4.0205    1.5133 N.pl3     1 ATP        -0.8455
     29 C2         -2.3933    3.0527    2.2567 C.ar      1 ATP         0.6477
     30 N3         -1.2611    2.4796    1.9536 N.2       1 ATP        -0.5707
     31 C4         -0.7334    2.9358    0.7669 C.ar      1 ATP         0.2637
     32 HOG3        4.5686    3.6697   -7.6846 H         1 ATP         0.4378
     33 H5'1        1.3514    0.2330   -2.1577 H         1 ATP         0.0340
     34 H5'2        2.1280   -1.3678   -2.0460 H         1 ATP         0.0340
     35 H4'         3.8044   -0.1397   -0.4040 H         1 ATP         0.0910
     36 H3'         1.6764   -1.7639    0.2728 H         1 ATP         0.0656
     37 HO3'        3.5554   -1.2733    1.4914 H         1 ATP         0.4386
     38 H2'        -0.0011    0.0027    0.0003 H         1 ATP         0.0788
     39 HO2'        0.8082    0.1199    2.7232 H         1 ATP         0.4363
     40 H1'         1.7826    1.9024    1.6451 H         1 ATP         0.1225
     41 H8          1.3912    3.1285   -1.6365 H         1 ATP         0.3824
     42 HN62       -3.9637    5.7083   -0.0142 H         1 ATP         0.4018
     43 H2         -2.9317    2.7866    3.1796 H         1 ATP         0.0652
     44 H44        -3.9307    4.3923    1.8558 H         1 ATP         0.4503
     45 H45        -0.5835    4.6857   -1.9122 H         1 ATP         0.5209
@<TRIPOS>BOND
     1    1    2 2
     2    1    3 1
     3    1    4 1
     4    1    8 1
     5    4   32 1
     6    5    6 2
     7    5    7 1
     8    5    8 1
     9    5   12 1
    10    9   10 2
    11    9   11 1
    12    9   12 1
    13    9   13 1
    14   13   14 1
    15   14   15 1
    16   14   33 1
    17   14   34 1
    18   15   16 1
    19   15   17 1
    20   15   35 1
    21   16   21 1
    22   17   18 1
    23   17   19 1
    24   17   36 1
    25   18   37 1
    26   19   20 1
    27   19   21 1
    28   19   38 1
    29   20   39 1
    30   21   22 1
    31   21   40 1
    32   22   23 ar
    33   22   31 ar
    34   23   24 ar
    35   23   41 1
    36   24   25 ar
    37   24   45 1
    38   25   26 ar
    39   25   31 ar
    40   26   27 2
    41   26   28 ar
    42   27   42 1
    43   28   29 ar
    44   28   44 1
    45   29   30 ar
    46   29   43 1
    47   30   31 ar
@<TRIPOS>SUBSTRUCTURE
     1 ATP         1 GROUP 0 A     ****
@<TRIPOS>MOLECULE
[[[3,4-dihydroxy-5-(6-imino-7,8-dihydro-1~{H}-purin-8-ylium-9-yl)tetrahydrofuran-2-yl]methoxy-oxido-phosphoryl]oxy-oxido-phosphoryl] hydrogen phosphate
   45    47     1     0     0
SMALL
USER_CHARGES

@<TRIPOS>ATOM
      1 PG          0.4987   -3.7111   -6.9249 P.3       1 ATP         1.5631
      2 O1G         1.3235   -3.7881   -8.1902 O.co2     1 ATP        -0.8806
      3 O2G        -1.0054   -3.5639   -6.9852 O.co2     1 ATP        -0.8806
      4 O3G         0.8561   -5.0036   -5.9933 O.3       1 ATP        -0.8165
      5 PB          1.1473   -0.9224   -6.1859 P.3       1 ATP         1.6877
      6 O1B         2.0649   -0.6149   -7.3483 O.co2     1 ATP        -0.8727
      7 O2B        -0.2683   -0.3916   -6.1436 O.co2     1 ATP        -0.8727
      8 O3B         1.1067   -2.5396   -5.9649 O.3       1 ATP        -0.8330
      9 PA          2.3336    0.9636   -4.2390 P.3       1 ATP         1.6036
     10 O1A         1.0795    1.7631   -3.9591 O.co2     1 ATP        -0.9062
     11 O2A         3.4185    1.5158   -5.1377 O.co2     1 ATP        -0.9062
     12 O3A         1.9032   -0.5097   -4.7991 O.3       1 ATP        -0.8166
     13 O5'         3.0213    0.5153   -2.8245 O.3       1 ATP        -0.5510
     14 C5'         2.2816   -0.2918   -1.9206 C.3       1 ATP         0.2099
     15 C4'         2.7248    0.0226   -0.4980 C.3       1 ATP         0.0598
     16 O4'         2.4697    1.4219   -0.2462 O.3       1 ATP        -0.3455
     17 C3'         1.9404   -0.7419    0.5596 C.3       1 ATP         0.0742
     18 O3'         2.7418   -0.8086    1.7389 O.3       1 ATP        -0.6025
     19 C2'         0.7477    0.1630    0.7858 C.3       1 ATP         0.1145
     20 O2'         0.1373   -0.0577    2.0407 O.3       1 ATP        -0.5835
     21 C1'         1.3733    1.5427    0.6747 C.3       1 ATP         0.3776
     22 N9          0.4520    2.5240    0.1767 N.pl3     1 ATP        -0.4429
     23 C8         -0.2004    2.4829   -0.9804 C.ar      1 ATP         0.2964
     24 N7         -0.9830    3.5431   -1.1568 N.pl3     1 ATP        -0.4957
     25 C5         -0.8095    4.3012   -0.0331 C.ar      1 ATP        -0.1346
     26 C6         -1.4065    5.5904    0.3585 C.ar      1 ATP         0.7213
     27 N6         -2.2501    6.2030   -0.4084 N.2       1 ATP        -0.8215
     28 N1         -0.9585    6.0272    1.5994 N.pl3     1 ATP        -0.8455
     29 C2         -0.0508    5.3009    2.3532 C.ar      1 ATP         0.6477
     30 N3          0.4890    4.1592    2.0257 N.2       1 ATP        -0.5707
     31 C4          0.0637    3.7006    0.7995 C.ar      1 ATP         0.2637
     32 HOG3        0.3989   -5.0981   -5.1306 H         1 ATP         0.4378
     33 H5'1        1.2163   -0.0770   -2.0471 H         1 ATP         0.0340
     34 H5'2        2.4655   -1.3443   -2.1563 H         1 ATP         0.0340
     35 H4'         3.8044   -0.1397   -0.4040 H         1 ATP         0.0910
     36 H3'         1.6764   -1.7639    0.2728 H         1 ATP         0.0656
     37 HO3'        3.5554   -1.2733    1.4914 H         1 ATP         0.4386
     38 H2'        -0.0011    0.0027    0.0003 H         1 ATP         0.0788
     39 HO2'        0.8082    0.1199    2.7232 H         1 ATP         0.4363
     40 H1'         1.7826    1.9024    1.6451 H         1 ATP         0.1225
     41 H8         -0.1116    1.6863   -1.6984 H         1 ATP         0.3824
     42 HN62       -2.5420    7.0730    0.0447 H         1 ATP         0.4018
     43 H2          0.1969    5.7893    3.3086 H         1 ATP         0.0652
     44 H44        -1.3097    6.9080    1.9642 H         1 ATP         0.4503
     45 H45        -1.5735    3.7351   -1.9538 H         1 ATP         0.5209
@<TRIPOS>BOND
     1    1    2 2
     2    1    3 1
     3    1    4 1
     4    1    8 1
     5    4   32 1
     6    5    6 2
     7    5    7 1
     8    5    8 1
     9    5   12 1
    10    9   10 2
    11    9   11 1
    12    9   12 1
    13    9   13 1
    14   13   14 1
    15   14   15 1
    16   14   33 1
    17   14   34 1
    18   15   16 1
    19   15   17 1
    20   15   35 1
    21   16   21 1
    22   17   18 1
    23   17   19 1
    24   17   36 1
    25   18   37 1
    26   19   20 1
    27   19   21 1
    28   19   38 1
    29   20   39 1
    30   21   22 1
    31   21   40 1
    32   22   23 ar
    33   22   31 ar
    34   23   24 ar
    35   23   41 1
    36   24   25 ar
    37   24   45 1
    38   25   26 ar
    39   25   31 ar
    40   26   27 2
    41   26   28 ar
    42   27   42 1
    43   28   29 ar
    44   28   44 1
    45   29   30 ar
    46   29   43 1
    47   30   31 ar
@<TRIPOS>SUBSTRUCTURE
     1 ATP         1 GROUP 0 A     ****
@<TRIPOS>MOLECULE
[[[3,4-dihydroxy-5-(6-imino-7,8-dihydro-1~{H}-purin-8-ylium-9-yl)tetrahydrofuran-2-yl]methoxy-oxido-phosphoryl]oxy-oxido-phosphoryl] hydrogen phosphate
   45    47     1     0     0
SMALL
USER_CHARGES

@<TRIPOS>ATOM
      1 PG          2.4612   -7.2820    5.0047 P.3       1 ATP         1.5631
      2 O1G         2.5186   -6.3961    3.7802 O.co2     1 ATP        -0.8806
      3 O2G         2.7134   -8.7697    4.9003 O.co2     1 ATP        -0.8806
      4 O3G         3.4609   -6.6650    6.1386 O.3       1 ATP        -0.8165
      5 PB         -0.4800   -7.3907    5.2900 P.3       1 ATP         1.6877
      6 O1B        -0.5390   -8.8503    4.8982 O.co2     1 ATP        -0.8727
      7 O2B        -1.4519   -6.8087    6.2921 O.co2     1 ATP        -0.8727
      8 O3B         1.0403   -7.0388    5.7701 O.3       1 ATP        -0.8330
      9 PA         -1.7207   -6.2770    2.8455 P.3       1 ATP         1.6036
     10 O1A        -2.8745   -5.5693    3.5224 O.co2     1 ATP        -0.9062
     11 O2A        -1.9354   -7.5877    2.1206 O.co2     1 ATP        -0.9062
     12 O3A        -0.5195   -6.4829    3.9339 O.3       1 ATP        -0.8166
     13 O5'        -0.9724   -5.2440    1.8220 O.3       1 ATP        -0.5510
     14 C5'        -0.7840   -3.8935    2.2172 C.3       1 ATP         0.2099
     15 C4'        -0.0724   -3.1466    1.1027 C.3       1 ATP         0.0598
     16 O4'        -0.8674   -3.1929   -0.0945 O.3       1 ATP        -0.3455
     17 C3'         0.1338   -1.6715    1.4027 C.3       1 ATP         0.0742
     18 O3'         1.2893   -1.4445    2.1808 O.3       1 ATP        -0.6025
     19 C2'         0.2158   -1.0724    0.0128 C.3       1 ATP         0.1145
     20 O2'         1.5141   -1.2448   -0.5513 O.3       1 ATP        -0.5835
     21 C1'        -0.7897   -1.9176   -0.7583 C.3       1 ATP         0.3776
     22 N9         -2.1040   -1.3333   -0.7704 N.pl3     1 ATP        -0.4429
     23 C8         -3.0590   -1.5123    0.1363 C.ar      1 ATP         0.2964
     24 N7         -4.1655   -0.8354   -0.1554 N.pl3     1 ATP        -0.4957
     25 C5         -3.8852   -0.1874   -1.3253 C.ar      1 ATP        -0.1346
     26 C6         -4.7113    0.7160   -2.1458 C.ar      1 ATP         0.7213
     27 N6         -5.9213    1.0209   -1.8021 N.2       1 ATP        -0.8215
     28 N1         -4.0411    1.1673   -3.2764 N.pl3     1 ATP        -0.8455
     29 C2         -2.7403    0.7865   -3.5638 C.ar      1 ATP         0.6477
     30 N3         -1.9921   -0.0108   -2.8519 N.2       1 ATP        -0.5707
     31 C4         -2.6302   -0.4747   -1.7239 C.ar      1 ATP         0.2637
     32 HOG3        3.5353   -7.1307    6.9988 H         1 ATP         0.4378
     33 H5'1       -1.7618   -3.4448    2.4164 H         1 ATP         0.0340
     34 H5'2       -0.1874   -3.8744    3.1341 H         1 ATP         0.0340
     35 H4'         0.8874   -3.6466    0.8805 H         1 ATP         0.0910
     36 H3'        -0.7376   -1.2333    1.9867 H         1 ATP         0.0656
     37 HO3'        1.3408   -0.4870    2.3219 H         1 ATP         0.4386
     38 H2'        -0.0384   -0.0310    0.0096 H         1 ATP         0.0788
     39 HO2'        2.1463   -0.7958    0.0370 H         1 ATP         0.4363
     40 H1'        -0.4769   -2.1002   -1.8093 H         1 ATP         0.1225
     41 H8         -2.9569   -2.1323    1.0098 H         1 ATP         0.3824
     42 HN62       -6.3169    1.6552   -2.5012 H         1 ATP         0.4018
     43 H2         -2.3612    1.2343   -4.4957 H         1 ATP         0.0652
     44 H44        -4.5223    1.7976   -3.9117 H         1 ATP         0.4503
     45 H45        -5.0218   -0.8132    0.3804 H         1 ATP         0.5209
@<TRIPOS>BOND
     1    1    2 2
     2    1    3 1
     3    1    4 1
     4    1    8 1
     5    4   32 1
     6    5    6 2
     7    5    7 1
     8    5    8 1
     9    5   12 1
    10    9   10 2
    11    9   11 1
    12    9   12 1
    13    9   13 1
    14   13   14 1
    15   14   15 1
    16   14   33 1
    17   14   34 1
    18   15   16 1
    19   15   17 1
    20   15   35 1
    21   16   21 1
    22   17   18 1
    23   17   19 1
    24   17   36 1
    25   18   37 1
    26   19   20 1
    27   19   21 1
    28   19   38 1
    29   20   39 1
    30   21   22 1
    31   21   40 1
    32   22   23 ar
    33   22   31 ar
    34   23   24 ar
    35   23   41 1
    36   24   25 ar
    37   24   45 1
    38   25   26 ar
    39   25   31 ar
    40   26   27 2
    41   26   28 ar
    42   27   42 1
    43   28   29 ar
    44   28   44 1
    45   29   30 ar
    46   29   43 1
    47   30   31 ar
@<TRIPOS>SUBSTRUCTURE
     1 ATP         1 GROUP 0 A     ****
@<TRIPOS>MOLECULE
[[[3,4-dihydroxy-5-(6-imino-7,8-dihydro-1~{H}-purin-8-ylium-9-yl)tetrahydrofuran-2-yl]methoxy-oxido-phosphoryl]oxy-oxido-phosphoryl] hydrogen phosphate
   45    47     1     0     0
SMALL
USER_CHARGES

@<TRIPOS>ATOM
      1 PG          4.0396   -4.2560   -4.3315 P.3       1 ATP         1.5631
      2 O1G         2.8820   -5.0931   -4.8281 O.co2     1 ATP        -0.8806
      3 O2G         3.9649   -3.5364   -3.0032 O.co2     1 ATP        -0.8806
      4 O3G         5.3890   -5.1751   -4.3480 O.3       1 ATP        -0.8165
      5 PB          3.6265   -1.9107   -6.0843 P.3       1 ATP         1.6877
      6 O1B         4.5269   -1.1415   -7.0250 O.co2     1 ATP        -0.8727
      7 O2B         2.2583   -2.3844   -6.5218 O.co2     1 ATP        -0.8727
      8 O3B         4.4564   -3.1851   -5.4905 O.3       1 ATP        -0.8330
      9 PA          2.7407    0.3769   -4.4297 P.3       1 ATP         1.6036
     10 O1A         1.2546    0.2227   -4.6707 O.co2     1 ATP        -0.9062
     11 O2A         3.5325    1.4517   -5.1421 O.co2     1 ATP        -0.9062
     12 O3A         3.4685   -1.0610   -4.6995 O.3       1 ATP        -0.8166
     13 O5'         3.0213    0.5153   -2.8245 O.3       1 ATP        -0.5510
     14 C5'         2.2816   -0.2918   -1.9206 C.3       1 ATP         0.2099
     15 C4'         2.7248    0.0226   -0.4980 C.3       1 ATP         0.0598
     16 O4'         2.4697    1.4219   -0.2462 O.3       1 ATP        -0.3455
     17 C3'         1.9404   -0.7419    0.5596 C.3       1 ATP         0.0742
     18 O3'         2.7418   -0.8086    1.7389 O.3       1 ATP        -0.6025
     19 C2'         0.7477    0.1630    0.7858 C.3       1 ATP         0.1145
     20 O2'         0.1373   -0.0577    2.0407 O.3       1 ATP        -0.5835
     21 C1'         1.3733    1.5427    0.6747 C.3       1 ATP         0.3776
     22 N9          0.4520    2.5240    0.1767 N.pl3     1 ATP        -0.4429
     23 C8         -0.6821    2.9098    0.7521 C.ar      1 ATP         0.2964
     24 N7         -1.3175    3.8384    0.0437 N.pl3     1 ATP        -0.4957
     25 C5         -0.5274    4.0494   -1.0512 C.ar      1 ATP        -0.1346
     26 C6         -0.6966    4.9597   -2.1977 C.ar      1 ATP         0.7213
     27 N6         -1.7259    5.7385   -2.2937 N.2       1 ATP        -0.8215
     28 N1          0.3493    4.8663   -3.1079 N.pl3     1 ATP        -0.8455
     29 C2          1.4148    4.0005   -2.9208 C.ar      1 ATP         0.6477
     30 N3          1.5838    3.1876   -1.9144 N.2       1 ATP        -0.5707
     31 C4          0.5619    3.2578   -0.9949 C.ar      1 ATP         0.2637
     32 HOG3        6.2324   -4.7716   -4.0510 H         1 ATP         0.4378
     33 H5'1        1.2163   -0.0770   -2.0471 H         1 ATP         0.0340
     34 H5'2        2.4655   -1.3443   -2.1563 H         1 ATP         0.0340
     35 H4'         3.8044   -0.1397   -0.4040 H         1 ATP         0.0910
     36 H3'         1.6764   -1.7639    0.2728 H         1 ATP         0.0656
     37 HO3'        2.2232   -1.2979    2.3953 H         1 ATP         0.4386
     38 H2'        -0.0011    0.0027    0.0003 H         1 ATP         0.0788
     39 HO2'       -0.1563   -0.9855    2.0596 H         1 ATP         0.4363
     40 H1'         1.7826    1.9024    1.6451 H         1 ATP         0.1225
     41 H8         -1.0516    2.5207    1.6849 H         1 ATP         0.3824
     42 HN62       -1.6520    6.2842   -3.1564 H         1 ATP         0.4018
     43 H2          2.1542    4.0525   -3.7351 H         1 ATP         0.0652
     44 H44         0.3306    5.4533   -3.9370 H         1 ATP         0.4503
     45 H45        -2.1941    4.2838    0.2756 H         1 ATP         0.5209
@<TRIPOS>BOND
     1    1    2 2
     2    1    3 1
     3    1    4 1
     4    1    8 1
     5    4   32 1
     6    5    6 2
     7    5    7 1
     8    5    8 1
     9    5   12 1
    10    9   10 2
    11    9   11 1
    12    9   12 1
    13    9   13 1
    14   13   14 1
    15   14   15 1
    16   14   33 1
    17   14   34 1
    18   15   16 1
    19   15   17 1
    20   15   35 1
    21   16   21 1
    22   17   18 1
    23   17   19 1
    24   17   36 1
    25   18   37 1
    26   19   20 1
    27   19   21 1
    28   19   38 1
    29   20   39 1
    30   21   22 1
    31   21   40 1
    32   22   23 ar
    33   22   31 ar
    34   23   24 ar
    35   23   41 1
    36   24   25 ar
    37   24   45 1
    38   25   26 ar
    39   25   31 ar
    40   26   27 2
    41   26   28 ar
    42   27   42 1
    43   28   29 ar
    44   28   44 1
    45   29   30 ar
    46   29   43 1
    47   30   31 ar
@<TRIPOS>SUBSTRUCTURE
     1 ATP         1 GROUP 0 A     ****
@<TRIPOS>MOLECULE
[[[3,4-dihydroxy-5-(6-imino-7,8-dihydro-1~{H}-purin-8-ylium-9-yl)tetrahydrofuran-2-yl]methoxy-oxido-phosphoryl]oxy-oxido-phosphoryl] hydrogen phosphate
   45    47     1     0     0
SMALL
USER_CHARGES

@<TRIPOS>ATOM
      1 PG          4.0270   -3.9064   -6.2641 P.3       1 ATP         1.5631
      2 O1G         4.9899   -4.0115   -5.1026 O.co2     1 ATP        -0.8806
      3 O2G         4.5155   -3.5406   -7.6480 O.co2     1 ATP        -0.8806
      4 O3G         3.1812   -5.2995   -6.3643 O.3       1 ATP        -0.8165
      5 PB          2.8230   -1.2994   -5.5593 P.3       1 ATP         1.6877
      6 O1B         3.4685   -0.5990   -6.7341 O.co2     1 ATP        -0.8727
      7 O2B         1.4598   -0.8842   -5.0523 O.co2     1 ATP        -0.8727
      8 O3B         2.8055   -2.9054   -5.8525 O.3       1 ATP        -0.8330
      9 PA          4.4374   -0.0466   -3.4193 P.3       1 ATP         1.6036
     10 O1A         5.0360    0.9827   -4.3535 O.co2     1 ATP        -0.9062
     11 O2A         5.2435   -0.6084   -2.2686 O.co2     1 ATP        -0.9062
     12 O3A         3.8708   -1.2955   -4.3076 O.3       1 ATP        -0.8166
     13 O5'         3.0213    0.5153   -2.8245 O.3       1 ATP        -0.5510
     14 C5'         2.2816   -0.2918   -1.9206 C.3       1 ATP         0.2099
     15 C4'         2.7248    0.0226   -0.4980 C.3       1 ATP         0.0598
     16 O4'         2.4697    1.4219   -0.2462 O.3       1 ATP        -0.3455
     17 C3'         1.9404   -0.7419    0.5596 C.3       1 ATP         0.0742
     18 O3'         2.7418   -0.8086    1.7389 O.3       1 ATP        -0.6025
     19 C2'         0.7477    0.1630    0.7858 C.3       1 ATP         0.1145
     20 O2'         0.1373   -0.0577    2.0407 O.3       1 ATP        -0.5835
     21 C1'         1.3733    1.5427    0.6747 C.3       1 ATP         0.3776
     22 N9          0.4520    2.5240    0.1767 N.pl3     1 ATP        -0.4429
     23 C8          0.2216    2.8192   -1.0985 C.ar      1 ATP         0.2964
     24 N7         -0.6906    3.7763   -1.2384 N.pl3     1 ATP        -0.4957
     25 C5         -1.0575    4.1037    0.0366 C.ar      1 ATP        -0.1346
     26 C6         -2.0291    5.0943    0.5330 C.ar      1 ATP         0.7213
     27 N6         -2.7093    5.8371   -0.2800 N.2       1 ATP        -0.8215
     28 N1         -2.1051    5.1136    1.9204 N.pl3     1 ATP        -0.8455
     29 C2         -1.3354    4.2774    2.7129 C.ar      1 ATP         0.6477
     30 N3         -0.4707    3.3945    2.2944 N.2       1 ATP        -0.5707
     31 C4         -0.3734    3.3525    0.9220 C.ar      1 ATP         0.2637
     32 HOG3        2.5098   -5.3880   -7.0740 H         1 ATP         0.4378
     33 H5'1        1.2163   -0.0770   -2.0471 H         1 ATP         0.0340
     34 H5'2        2.4655   -1.3443   -2.1563 H         1 ATP         0.0340
     35 H4'         3.8044   -0.1397   -0.4040 H         1 ATP         0.0910
     36 H3'         1.6764   -1.7639    0.2728 H         1 ATP         0.0656
     37 HO3'        2.2232   -1.2979    2.3953 H         1 ATP         0.4386
     38 H2'        -0.0011    0.0027    0.0003 H         1 ATP         0.0788
     39 HO2'       -0.6141    0.5574    2.1082 H         1 ATP         0.4363
     40 H1'         1.7826    1.9024    1.6451 H         1 ATP         0.1225
     41 H8          0.7125    2.3429   -1.9292 H         1 ATP         0.3824
     42 HN62       -3.3217    6.4517    0.2629 H         1 ATP         0.4018
     43 H2         -1.5188    4.4223    3.7890 H         1 ATP         0.0652
     44 H44        -2.7470    5.7626    2.3665 H         1 ATP         0.4503
     45 H45        -1.0305    4.1680   -2.1054 H         1 ATP         0.5209
@<TRIPOS>BOND
     1    1    2 2
     2    1    3 1
     3    1    4 1
     4    1    8 1
     5    4   32 1
     6    5    6 2
     7    5    7 1
     8    5    8 1
     9    5   12 1
    10    9   10 2
    11    9   11 1
    12    9   12 1
    13    9   13 1
    14   13   14 1
    15   14   15 1
    16   14   33 1
    17   14   34 1
    18   15   16 1
    19   15   17 1
    20   15   35 1
    21   16   21 1
    22   17   18 1
    23   17   19 1
    24   17   36 1
    25   18   37 1
    26   19   20 1
    27   19   21 1
    28   19   38 1
    29   20   39 1
    30   21   22 1
    31   21   40 1
    32   22   23 ar
    33   22   31 ar
    34   23   24 ar
    35   23   41 1
    36   24   25 ar
    37   24   45 1
    38   25   26 ar
    39   25   31 ar
    40   26   27 2
    41   26   28 ar
    42   27   42 1
    43   28   29 ar
    44   28   44 1
    45   29   30 ar
    46   29   43 1
    47   30   31 ar
@<TRIPOS>SUBSTRUCTURE
     1 ATP         1 GROUP 0 A     ****
@<TRIPOS>MOLECULE
[[[3,4-dihydroxy-5-(6-imino-7,8-dihydro-1~{H}-purin-8-ylium-9-yl)tetrahydrofuran-2-yl]methoxy-oxido-phosphoryl]oxy-oxido-phosphoryl] hydrogen phosphate
   45    47     1     0     0
SMALL
USER_CHARGES

@<TRIPOS>ATOM
      1 PG         -4.8451   -2.5331    6.9469 P.3       1 ATP         1.5631
      2 O1G        -5.6586   -1.3275    6.5320 O.co2     1 ATP        -0.8806
      3 O2G        -4.4803   -2.7631    8.3966 O.co2     1 ATP        -0.8806
      4 O3G        -5.5800   -3.8755    6.3780 O.3       1 ATP        -0.8165
      5 PB         -2.2053   -1.5829    6.0128 P.3       1 ATP         1.6877
      6 O1B        -2.6549   -0.2465    5.4656 O.co2     1 ATP        -0.8727
      7 O2B        -1.4767   -1.6832    7.3344 O.co2     1 ATP        -0.8727
      8 O3B        -3.4870   -2.5938    6.0437 O.3       1 ATP        -0.8330
      9 PA         -0.7215   -3.8652    4.8532 P.3       1 ATP         1.6036
     10 O1A        -1.8735   -4.8461    4.8225 O.co2     1 ATP        -0.9062
     11 O2A         0.3496   -3.9631    5.9175 O.co2     1 ATP        -0.9062
     12 O3A        -1.3248   -2.3468    4.8700 O.3       1 ATP        -0.8166
     13 O5'         0.0118   -3.8395    3.3916 O.3       1 ATP        -0.5510
     14 C5'        -0.7840   -3.8935    2.2172 C.3       1 ATP         0.2099
     15 C4'        -0.0724   -3.1466    1.1027 C.3       1 ATP         0.0598
     16 O4'        -0.8674   -3.1929   -0.0945 O.3       1 ATP        -0.3455
     17 C3'         0.1338   -1.6715    1.4027 C.3       1 ATP         0.0742
     18 O3'         1.2893   -1.4445    2.1808 O.3       1 ATP        -0.6025
     19 C2'         0.2158   -1.0724    0.0128 C.3       1 ATP         0.1145
     20 O2'         1.5141   -1.2448   -0.5513 O.3       1 ATP        -0.5835
     21 C1'        -0.7897   -1.9176   -0.7583 C.3       1 ATP         0.3776
     22 N9         -2.1040   -1.3333   -0.7704 N.pl3     1 ATP        -0.4429
     23 C8         -3.0590   -1.5123    0.1363 C.ar      1 ATP         0.2964
     24 N7         -4.1655   -0.8354   -0.1554 N.pl3     1 ATP        -0.4957
     25 C5         -3.8852   -0.1874   -1.3253 C.ar      1 ATP        -0.1346
     26 C6         -4.7113    0.7160   -2.1458 C.ar      1 ATP         0.7213
     27 N6         -5.9213    1.0209   -1.8021 N.2       1 ATP        -0.8215
     28 N1         -4.0411    1.1673   -3.2764 N.pl3     1 ATP        -0.8455
     29 C2         -2.7403    0.7865   -3.5638 C.ar      1 ATP         0.6477
     30 N3         -1.9921   -0.0108   -2.8519 N.2       1 ATP        -0.5707
     31 C4         -2.6302   -0.4747   -1.7239 C.ar      1 ATP         0.2637
     32 HOG3       -5.1706   -4.7470    6.5656 H         1 ATP         0.4378
     33 H5'1       -0.9348   -4.9415    1.9415 H         1 ATP         0.0340
     34 H5'2       -1.7548   -3.4350    2.4278 H         1 ATP         0.0340
     35 H4'         0.8874   -3.6466    0.8805 H         1 ATP         0.0910
     36 H3'        -0.7376   -1.2333    1.9867 H         1 ATP         0.0656
     37 HO3'        1.1626   -1.9325    3.0084 H         1 ATP         0.4386
     38 H2'        -0.0384   -0.0310    0.0096 H         1 ATP         0.0788
     39 HO2'        2.1463   -0.7958    0.0370 H         1 ATP         0.4363
     40 H1'        -0.4769   -2.1002   -1.8093 H         1 ATP         0.1225
     41 H8         -2.9569   -2.1323    1.0098 H         1 ATP         0.3824
     42 HN62       -6.3169    1.6552   -2.5012 H         1 ATP         0.4018
     43 H2         -2.3612    1.2343   -4.4957 H         1 ATP         0.0652
     44 H44        -4.5223    1.7976   -3.9117 H         1 ATP         0.4503
     45 H45        -5.0218   -0.8132    0.3804 H         1 ATP         0.5209
@<TRIPOS>BOND
     1    1    2 2
     2    1    3 1
     3    1    4 1
     4    1    8 1
     5    4   32 1
     6    5    6 2
     7    5    7 1
     8    5    8 1
     9    5   12 1
    10    9   10 2
    11    9   11 1
    12    9   12 1
    13    9   13 1
    14   13   14 1
    15   14   15 1
    16   14   33 1
    17   14   34 1
    18   15   16 1
    19   15   17 1
    20   15   35 1
    21   16   21 1
    22   17   18 1
    23   17   19 1
    24   17   36 1
    25   18   37 1
    26   19   20 1
    27   19   21 1
    28   19   38 1
    29   20   39 1
    30   21   22 1
    31   21   40 1
    32   22   23 ar
    33   22   31 ar
    34   23   24 ar
    35   23   41 1
    36   24   25 ar
    37   24   45 1
    38   25   26 ar
    39   25   31 ar
    40   26   27 2
    41   26   28 ar
    42   27   42 1
    43   28   29 ar
    44   28   44 1
    45   29   30 ar
    46   29   43 1
    47   30   31 ar
@<TRIPOS>SUBSTRUCTURE
     1 ATP         1 GROUP 0 A     ****
@<TRIPOS>MOLECULE
[[[3,4-dihydroxy-5-(6-imino-7,8-dihydro-1~{H}-purin-8-ylium-9-yl)tetrahydrofuran-2-yl]methoxy-oxido-phosphoryl]oxy-oxido-phosphoryl] hydrogen phosphate
   45    47     1     0     0
SMALL
USER_CHARGES

@<TRIPOS>ATOM
      1 PG          7.3699   -1.1582   -0.6586 P.3       1 ATP         1.5631
      2 O1G         8.2067   -2.4144   -0.5635 O.co2     1 ATP        -0.8806
      3 O2G         6.0139   -1.0754    0.0065 O.co2     1 ATP        -0.8806
      4 O3G         8.2725    0.1056   -0.1547 O.3       1 ATP        -0.8165
      5 PB          6.4334   -1.5035   -3.4420 P.3       1 ATP         1.6877
      6 O1B         6.4508   -0.6140   -4.6651 O.co2     1 ATP        -0.8727
      7 O2B         6.9185   -2.9346   -3.5071 O.co2     1 ATP        -0.8727
      8 O3B         7.2154   -0.7405   -2.2287 O.3       1 ATP        -0.8330
      9 PA          3.5300   -2.0730   -3.4114 P.3       1 ATP         1.6036
     10 O1A         3.6301   -3.5805   -3.5006 O.co2     1 ATP        -0.9062
     11 O2A         3.1564   -1.2495   -4.6246 O.co2     1 ATP        -0.9062
     12 O3A         4.9303   -1.4885   -2.8054 O.3       1 ATP        -0.8166
     13 O5'         2.5245   -1.6648   -2.1878 O.3       1 ATP        -0.5510
     14 C5'         2.2816   -0.2918   -1.9206 C.3       1 ATP         0.2099
     15 C4'         2.7248    0.0226   -0.4980 C.3       1 ATP         0.0598
     16 O4'         2.4697    1.4219   -0.2462 O.3       1 ATP        -0.3455
     17 C3'         1.9404   -0.7419    0.5596 C.3       1 ATP         0.0742
     18 O3'         2.7418   -0.8086    1.7389 O.3       1 ATP        -0.6025
     19 C2'         0.7477    0.1630    0.7858 C.3       1 ATP         0.1145
     20 O2'         0.1373   -0.0577    2.0407 O.3       1 ATP        -0.5835
     21 C1'         1.3733    1.5427    0.6747 C.3       1 ATP         0.3776
     22 N9          0.4520    2.5240    0.1767 N.pl3     1 ATP        -0.4429
     23 C8          0.2216    2.8192   -1.0985 C.ar      1 ATP         0.2964
     24 N7         -0.6906    3.7763   -1.2384 N.pl3     1 ATP        -0.4957
     25 C5         -1.0575    4.1037    0.0366 C.ar      1 ATP        -0.1346
     26 C6         -2.0291    5.0943    0.5330 C.ar      1 ATP         0.7213
     27 N6         -2.7093    5.8371   -0.2800 N.2       1 ATP        -0.8215
     28 N1         -2.1051    5.1136    1.9204 N.pl3     1 ATP        -0.8455
     29 C2         -1.3354    4.2774    2.7129 C.ar      1 ATP         0.6477
     30 N3         -0.4707    3.3945    2.2944 N.2       1 ATP        -0.5707
     31 C4         -0.3734    3.3525    0.9220 C.ar      1 ATP         0.2637
     32 HOG3        7.8674    0.9991   -0.1570 H         1 ATP         0.4378
     33 H5'1        2.8432    0.3119   -2.6398 H         1 ATP         0.0340
     34 H5'2        1.2128   -0.0927   -2.0428 H         1 ATP         0.0340
     35 H4'         3.8044   -0.1397   -0.4040 H         1 ATP         0.0910
     36 H3'         1.6764   -1.7639    0.2728 H         1 ATP         0.0656
     37 HO3'        3.5554   -1.2733    1.4914 H         1 ATP         0.4386
     38 H2'        -0.0011    0.0027    0.0003 H         1 ATP         0.0788
     39 HO2'       -0.1563   -0.9855    2.0596 H         1 ATP         0.4363
     40 H1'         1.7826    1.9024    1.6451 H         1 ATP         0.1225
     41 H8          0.7125    2.3429   -1.9292 H         1 ATP         0.3824
     42 HN62       -3.3217    6.4517    0.2629 H         1 ATP         0.4018
     43 H2         -1.5188    4.4223    3.7890 H         1 ATP         0.0652
     44 H44        -2.7470    5.7626    2.3665 H         1 ATP         0.4503
     45 H45        -1.0305    4.1680   -2.1054 H         1 ATP         0.5209
@<TRIPOS>BOND
     1    1    2 2
     2    1    3 1
     3    1    4 1
     4    1    8 1
     5    4   32 1
     6    5    6 2
     7    5    7 1
     8    5    8 1
     9    5   12 1
    10    9   10 2
    11    9   11 1
    12    9   12 1
    13    9   13 1
    14   13   14 1
    15   14   15 1
    16   14   33 1
    17   14   34 1
    18   15   16 1
    19   15   17 1
    20   15   35 1
    21   16   21 1
    22   17   18 1
    23   17   19 1
    24   17   36 1
    25   18   37 1
    26   19   20 1
    27   19   21 1
    28   19   38 1
    29   20   39 1
    30   21   22 1
    31   21   40 1
    32   22   23 ar
    33   22   31 ar
    34   23   24 ar
    35   23   41 1
    36   24   25 ar
    37   24   45 1
    38   25   26 ar
    39   25   31 ar
    40   26   27 2
    41   26   28 ar
    42   27   42 1
    43   28   29 ar
    44   28   44 1
    45   29   30 ar
    46   29   43 1
    47   30   31 ar
@<TRIPOS>SUBSTRUCTURE
     1 ATP         1 GROUP 0 A     ****
@<TRIPOS>MOLECULE
[[[3,4-dihydroxy-5-(6-imino-7,8-dihydro-1~{H}-purin-8-ylium-9-yl)tetrahydrofuran-2-yl]methoxy-oxido-phosphoryl]oxy-oxido-phosphoryl] hydrogen phosphate
   45    47     1     0     0
SMALL
USER_CHARGES

@<TRIPOS>ATOM
      1 PG         -1.1797   -0.1021   -5.2808 P.3       1 ATP         1.5631
      2 O1G        -0.7232    0.3606   -3.9152 O.co2     1 ATP        -0.8806
      3 O2G        -1.8004   -1.4682   -5.4713 O.co2     1 ATP        -0.8806
      4 O3G        -2.1952    1.0189   -5.8956 O.3       1 ATP        -0.8165
      5 PB          1.4827   -0.7072   -6.4161 P.3       1 ATP         1.6877
      6 O1B         1.2241   -2.1973   -6.4227 O.co2     1 ATP        -0.8727
      7 O2B         2.3331   -0.0549   -7.4833 O.co2     1 ATP        -0.8727
      8 O3B         0.0502    0.0723   -6.3395 O.3       1 ATP        -0.8330
      9 PA          3.4844   -0.6652   -4.2374 P.3       1 ATP         1.6036
     10 O1A         4.6107   -0.0317   -5.0250 O.co2     1 ATP        -0.9062
     11 O2A         3.4852   -2.1497   -3.9439 O.co2     1 ATP        -0.9062
     12 O3A         2.0649   -0.2836   -4.9510 O.3       1 ATP        -0.8166
     13 O5'         3.2903    0.1346   -2.8241 O.3       1 ATP        -0.5510
     14 C5'         2.2816   -0.2918   -1.9206 C.3       1 ATP         0.2099
     15 C4'         2.7248    0.0226   -0.4980 C.3       1 ATP         0.0598
     16 O4'         2.4697    1.4219   -0.2462 O.3       1 ATP        -0.3455
     17 C3'         1.9404   -0.7419    0.5596 C.3       1 ATP         0.0742
     18 O3'         2.7418   -0.8086    1.7389 O.3       1 ATP        -0.6025
     19 C2'         0.7477    0.1630    0.7858 C.3       1 ATP         0.1145
     20 O2'         0.1373   -0.0577    2.0407 O.3       1 ATP        -0.5835
     21 C1'         1.3733    1.5427    0.6747 C.3       1 ATP         0.3776
     22 N9          0.4520    2.5240    0.1767 N.pl3     1 ATP        -0.4429
     23 C8         -0.2004    2.4829   -0.9804 C.ar      1 ATP         0.2964
     24 N7         -0.9830    3.5431   -1.1568 N.pl3     1 ATP        -0.4957
     25 C5         -0.8095    4.3012   -0.0331 C.ar      1 ATP        -0.1346
     26 C6         -1.4065    5.5904    0.3585 C.ar      1 ATP         0.7213
     27 N6         -2.2501    6.2030   -0.4084 N.2       1 ATP        -0.8215
     28 N1         -0.9585    6.0272    1.5994 N.pl3     1 ATP        -0.8455
     29 C2         -0.0508    5.3009    2.3532 C.ar      1 ATP         0.6477
     30 N3          0.4890    4.1592    2.0257 N.2       1 ATP        -0.5707
     31 C4          0.0637    3.7006    0.7995 C.ar      1 ATP         0.2637
     32 HOG3       -2.5805    0.8627   -6.7841 H         1 ATP         0.4378
     33 H5'1        1.3514    0.2330   -2.1577 H         1 ATP         0.0340
     34 H5'2        2.1280   -1.3678   -2.0460 H         1 ATP         0.0340
     35 H4'         3.8044   -0.1397   -0.4040 H         1 ATP         0.0910
     36 H3'         1.6764   -1.7639    0.2728 H         1 ATP         0.0656
     37 HO3'        2.2232   -1.2979    2.3953 H         1 ATP         0.4386
     38 H2'        -0.0011    0.0027    0.0003 H         1 ATP         0.0788
     39 HO2'       -0.1563   -0.9855    2.0596 H         1 ATP         0.4363
     40 H1'         1.7826    1.9024    1.6451 H         1 ATP         0.1225
     41 H8         -0.1116    1.6863   -1.6984 H         1 ATP         0.3824
     42 HN62       -2.5420    7.0730    0.0447 H         1 ATP         0.4018
     43 H2          0.1969    5.7893    3.3086 H         1 ATP         0.0652
     44 H44        -1.3097    6.9080    1.9642 H         1 ATP         0.4503
     45 H45        -1.5735    3.7351   -1.9538 H         1 ATP         0.5209
@<TRIPOS>BOND
     1    1    2 2
     2    1    3 1
     3    1    4 1
     4    1    8 1
     5    4   32 1
     6    5    6 2
     7    5    7 1
     8    5    8 1
     9    5   12 1
    10    9   10 2
    11    9   11 1
    12    9   12 1
    13    9   13 1
    14   13   14 1
    15   14   15 1
    16   14   33 1
    17   14   34 1
    18   15   16 1
    19   15   17 1
    20   15   35 1
    21   16   21 1
    22   17   18 1
    23   17   19 1
    24   17   36 1
    25   18   37 1
    26   19   20 1
    27   19   21 1
    28   19   38 1
    29   20   39 1
    30   21   22 1
    31   21   40 1
    32   22   23 ar
    33   22   31 ar
    34   23   24 ar
    35   23   41 1
    36   24   25 ar
    37   24   45 1
    38   25   26 ar
    39   25   31 ar
    40   26   27 2
    41   26   28 ar
    42   27   42 1
    43   28   29 ar
    44   28   44 1
    45   29   30 ar
    46   29   43 1
    47   30   31 ar
@<TRIPOS>SUBSTRUCTURE
     1 ATP         1 GROUP 0 A     ****
@<TRIPOS>MOLECULE
[[[3,4-dihydroxy-5-(6-imino-7,8-dihydro-1~{H}-purin-8-ylium-9-yl)tetrahydrofuran-2-yl]methoxy-oxido-phosphoryl]oxy-oxido-phosphoryl] hydrogen phosphate
   45    47     1     0     0
SMALL
USER_CHARGES

@<TRIPOS>ATOM
      1 PG         -7.1392   -4.6292    3.4444 P.3       1 ATP         1.5631
      2 O1G        -7.2742   -4.2397    4.8996 O.co2     1 ATP        -0.8806
      3 O2G        -7.9594   -5.7592    2.8629 O.co2     1 ATP        -0.8806
      4 O3G        -7.3678   -3.2976    2.5277 O.3       1 ATP        -0.8165
      5 PB         -4.5615   -6.0640    3.6453 P.3       1 ATP         1.6877
      6 O1B        -4.3386   -5.8699    5.1286 O.co2     1 ATP        -0.8727
      7 O2B        -5.0269   -7.3917    3.0902 O.co2     1 ATP        -0.8727
      8 O3B        -5.5637   -4.8921    3.1089 O.3       1 ATP        -0.8330
      9 PA         -1.7207   -6.2770    2.8455 P.3       1 ATP         1.6036
     10 O1A        -1.8040   -7.6470    2.2080 O.co2     1 ATP        -0.9062
     11 O2A        -1.1163   -6.0995    4.2214 O.co2     1 ATP        -0.9062
     12 O3A        -3.2113   -5.6078    2.8492 O.3       1 ATP        -0.8166
     13 O5'        -0.9724   -5.2440    1.8220 O.3       1 ATP        -0.5510
     14 C5'        -0.7840   -3.8935    2.2172 C.3       1 ATP         0.2099
     15 C4'        -0.0724   -3.1466    1.1027 C.3       1 ATP         0.0598
     16 O4'        -0.8674   -3.1929   -0.0945 O.3       1 ATP        -0.3455
     17 C3'         0.1338   -1.6715    1.4027 C.3       1 ATP         0.0742
     18 O3'         1.2893   -1.4445    2.1808 O.3       1 ATP        -0.6025
     19 C2'         0.2158   -1.0724    0.0128 C.3       1 ATP         0.1145
     20 O2'         1.5141   -1.2448   -0.5513 O.3       1 ATP        -0.5835
     21 C1'        -0.7897   -1.9176   -0.7583 C.3       1 ATP         0.3776
     22 N9         -2.1040   -1.3333   -0.7704 N.pl3     1 ATP        -0.4429
     23 C8         -3.0590   -1.5123    0.1363 C.ar      1 ATP         0.2964
     24 N7         -4.1655   -0.8354   -0.1554 N.pl3     1 ATP        -0.4957
     25 C5         -3.8852   -0.1874   -1.3253 C.ar      1 ATP        -0.1346
     26 C6         -4.7113    0.7160   -2.1458 C.ar      1 ATP         0.7213
     27 N6         -5.9213    1.0209   -1.8021 N.2       1 ATP        -0.8215
     28 N1         -4.0411    1.1673   -3.2764 N.pl3     1 ATP        -0.8455
     29 C2         -2.7403    0.7865   -3.5638 C.ar      1 ATP         0.6477
     30 N3         -1.9921   -0.0108   -2.8519 N.2       1 ATP        -0.5707
     31 C4         -2.6302   -0.4747   -1.7239 C.ar      1 ATP         0.2637
     32 HOG3       -7.3115   -3.3868    1.5525 H         1 ATP         0.4378
     33 H5'1       -1.7618   -3.4448    2.4164 H         1 ATP         0.0340
     34 H5'2       -0.1874   -3.8744    3.1341 H         1 ATP         0.0340
     35 H4'         0.8874   -3.6466    0.8805 H         1 ATP         0.0910
     36 H3'        -0.7376   -1.2333    1.9867 H         1 ATP         0.0656
     37 HO3'        1.1626   -1.9325    3.0084 H         1 ATP         0.4386
     38 H2'        -0.0384   -0.0310    0.0096 H         1 ATP         0.0788
     39 HO2'        1.4998   -0.8412   -1.4369 H         1 ATP         0.4363
     40 H1'        -0.4769   -2.1002   -1.8093 H         1 ATP         0.1225
     41 H8         -2.9569   -2.1323    1.0098 H         1 ATP         0.3824
     42 HN62       -6.3169    1.6552   -2.5012 H         1 ATP         0.4018
     43 H2         -2.3612    1.2343   -4.4957 H         1 ATP         0.0652
     44 H44        -4.5223    1.7976   -3.9117 H         1 ATP         0.4503
     45 H45        -5.0218   -0.8132    0.3804 H         1 ATP         0.5209
@<TRIPOS>BOND
     1    1    2 2
     2    1    3 1
     3    1    4 1
     4    1    8 1
     5    4   32 1
     6    5    6 2
     7    5    7 1
     8    5    8 1
     9    5   12 1
    10    9   10 2
    11    9   11 1
    12    9   12 1
    13    9   13 1
    14   13   14 1
    15   14   15 1
    16   14   33 1
    17   14   34 1
    18   15   16 1
    19   15   17 1
    20   15   35 1
    21   16   21 1
    22   17   18 1
    23   17   19 1
    24   17   36 1
    25   18   37 1
    26   19   20 1
    27   19   21 1
    28   19   38 1
    29   20   39 1
    30   21   22 1
    31   21   40 1
    32   22   23 ar
    33   22   31 ar
    34   23   24 ar
    35   23   41 1
    36   24   25 ar
    37   24   45 1
    38   25   26 ar
    39   25   31 ar
    40   26   27 2
    41   26   28 ar
    42   27   42 1
    43   28   29 ar
    44   28   44 1
    45   29   30 ar
    46   29   43 1
    47   30   31 ar
@<TRIPOS>SUBSTRUCTURE
     1 ATP         1 GROUP 0 A     ****
@<TRIPOS>MOLECULE
[[[3,4-dihydroxy-5-(6-imino-7,8-dihydro-1~{H}-purin-8-ylium-9-yl)tetrahydrofuran-2-yl]methoxy-oxido-phosphoryl]oxy-oxido-phosphoryl] hydrogen phosphate
   45    47     1     0     0
SMALL
USER_CHARGES

@<TRIPOS>ATOM
      1 PG         -1.6161   -0.5498   -6.8859 P.3       1 ATP         1.5631
      2 O1G        -1.1174   -0.7559   -8.2988 O.co2     1 ATP        -0.8806
      3 O2G        -2.7032    0.4577   -6.5845 O.co2     1 ATP        -0.8806
      4 O3G        -2.0677   -1.9968   -6.2791 O.3       1 ATP        -0.8165
      5 PB          0.6774    1.0155   -5.8696 P.3       1 ATP         1.6877
      6 O1B         1.4950    1.0231   -7.1420 O.co2     1 ATP        -0.8727
      7 O2B        -0.0945    2.2386   -5.4272 O.co2     1 ATP        -0.8727
      8 O3B        -0.3408   -0.2601   -5.9094 O.3       1 ATP        -0.8330
      9 PA          2.9232    1.2546   -3.9579 P.3       1 ATP         1.6036
     10 O1A         2.4622    2.5266   -3.2798 O.co2     1 ATP        -0.9062
     11 O2A         4.0435    1.2824   -4.9747 O.co2     1 ATP        -0.9062
     12 O3A         1.6300    0.5237   -4.6385 O.3       1 ATP        -0.8166
     13 O5'         3.2903    0.1346   -2.8241 O.3       1 ATP        -0.5510
     14 C5'         2.2816   -0.2918   -1.9206 C.3       1 ATP         0.2099
     15 C4'         2.7248    0.0226   -0.4980 C.3       1 ATP         0.0598
     16 O4'         2.4697    1.4219   -0.2462 O.3       1 ATP        -0.3455
     17 C3'         1.9404   -0.7419    0.5596 C.3       1 ATP         0.0742
     18 O3'         2.7418   -0.8086    1.7389 O.3       1 ATP        -0.6025
     19 C2'         0.7477    0.1630    0.7858 C.3       1 ATP         0.1145
     20 O2'         0.1373   -0.0577    2.0407 O.3       1 ATP        -0.5835
     21 C1'         1.3733    1.5427    0.6747 C.3       1 ATP         0.3776
     22 N9          0.4520    2.5240    0.1767 N.pl3     1 ATP        -0.4429
     23 C8         -0.2004    2.4829   -0.9804 C.ar      1 ATP         0.2964
     24 N7         -0.9830    3.5431   -1.1568 N.pl3     1 ATP        -0.4957
     25 C5         -0.8095    4.3012   -0.0331 C.ar      1 ATP        -0.1346
     26 C6         -1.4065    5.5904    0.3585 C.ar      1 ATP         0.7213
     27 N6         -2.2501    6.2030   -0.4084 N.2       1 ATP        -0.8215
     28 N1         -0.9585    6.0272    1.5994 N.pl3     1 ATP        -0.8455
     29 C2         -0.0508    5.3009    2.3532 C.ar      1 ATP         0.6477
     30 N3          0.4890    4.1592    2.0257 N.2       1 ATP        -0.5707
     31 C4          0.0637    3.7006    0.7995 C.ar      1 ATP         0.2637
     32 HOG3       -2.4169   -2.0305   -5.3630 H         1 ATP         0.4378
     33 H5'1        1.3514    0.2330   -2.1577 H         1 ATP         0.0340
     34 H5'2        2.1280   -1.3678   -2.0460 H         1 ATP         0.0340
     35 H4'         3.8044   -0.1397   -0.4040 H         1 ATP         0.0910
     36 H3'         1.6764   -1.7639    0.2728 H         1 ATP         0.0656
     37 HO3'        3.5554   -1.2733    1.4914 H         1 ATP         0.4386
     38 H2'        -0.0011    0.0027    0.0003 H         1 ATP         0.0788
     39 HO2'        0.8082    0.1199    2.7232 H         1 ATP         0.4363
     40 H1'         1.7826    1.9024    1.6451 H         1 ATP         0.1225
     41 H8         -0.1116    1.6863   -1.6984 H         1 ATP         0.3824
     42 HN62       -2.5420    7.0730    0.0447 H         1 ATP         0.4018
     43 H2          0.1969    5.7893    3.3086 H         1 ATP         0.0652
     44 H44        -1.3097    6.9080    1.9642 H         1 ATP         0.4503
     45 H45        -1.5735    3.7351   -1.9538 H         1 ATP         0.5209
@<TRIPOS>BOND
     1    1    2 2
     2    1    3 1
     3    1    4 1
     4    1    8 1
     5    4   32 1
     6    5    6 2
     7    5    7 1
     8    5    8 1
     9    5   12 1
    10    9   10 2
    11    9   11 1
    12    9   12 1
    13    9   13 1
    14   13   14 1
    15   14   15 1
    16   14   33 1
    17   14   34 1
    18   15   16 1
    19   15   17 1
    20   15   35 1
    21   16   21 1
    22   17   18 1
    23   17   19 1
    24   17   36 1
    25   18   37 1
    26   19   20 1
    27   19   21 1
    28   19   38 1
    29   20   39 1
    30   21   22 1
    31   21   40 1
    32   22   23 ar
    33   22   31 ar
    34   23   24 ar
    35   23   41 1
    36   24   25 ar
    37   24   45 1
    38   25   26 ar
    39   25   31 ar
    40   26   27 2
    41   26   28 ar
    42   27   42 1
    43   28   29 ar
    44   28   44 1
    45   29   30 ar
    46   29   43 1
    47   30   31 ar
@<TRIPOS>SUBSTRUCTURE
     1 ATP         1 GROUP 0 A     ****
@<TRIPOS>MOLECULE
[[[3,4-dihydroxy-5-(6-imino-7,8-dihydro-1~{H}-purin-8-ylium-9-yl)tetrahydrofuran-2-yl]methoxy-oxido-phosphoryl]oxy-oxido-phosphoryl] hydrogen phosphate
   45    47     1     0     0
SMALL
USER_CHARGES

@<TRIPOS>ATOM
      1 PG         -2.6062   -4.3147   -3.9227 P.3       1 ATP         1.5631
      2 O1G        -3.2541   -3.6529   -5.1184 O.co2     1 ATP        -0.8806
      3 O2G        -3.3463   -4.4442   -2.6101 O.co2     1 ATP        -0.8806
      4 O3G        -2.0814   -5.7946   -4.3702 O.3       1 ATP        -0.8165
      5 PB          0.0965   -3.3700   -4.6621 P.3       1 ATP         1.6877
      6 O1B         0.6827   -4.7125   -5.0382 O.co2     1 ATP        -0.8727
      7 O2B        -0.3217   -2.3737   -5.7204 O.co2     1 ATP        -0.8727
      8 O3B        -1.1587   -3.6128   -3.6467 O.3       1 ATP        -0.8330
      9 PA          2.6196   -2.0516   -3.8552 P.3       1 ATP         1.6036
     10 O1A         2.5494   -0.8938   -4.8272 O.co2     1 ATP        -0.9062
     11 O2A         3.5430   -3.2224   -4.1122 O.co2     1 ATP        -0.9062
     12 O3A         1.1101   -2.6304   -3.6179 O.3       1 ATP        -0.8166
     13 O5'         2.9216   -1.4836   -2.3516 O.3       1 ATP        -0.5510
     14 C5'         2.2816   -0.2918   -1.9206 C.3       1 ATP         0.2099
     15 C4'         2.7248    0.0226   -0.4980 C.3       1 ATP         0.0598
     16 O4'         2.4697    1.4219   -0.2462 O.3       1 ATP        -0.3455
     17 C3'         1.9404   -0.7419    0.5596 C.3       1 ATP         0.0742
     18 O3'         2.7418   -0.8086    1.7389 O.3       1 ATP        -0.6025
     19 C2'         0.7477    0.1630    0.7858 C.3       1 ATP         0.1145
     20 O2'         0.1373   -0.0577    2.0407 O.3       1 ATP        -0.5835
     21 C1'         1.3733    1.5427    0.6747 C.3       1 ATP         0.3776
     22 N9          0.4520    2.5240    0.1767 N.pl3     1 ATP        -0.4429
     23 C8         -0.2004    2.4829   -0.9804 C.ar      1 ATP         0.2964
     24 N7         -0.9830    3.5431   -1.1568 N.pl3     1 ATP        -0.4957
     25 C5         -0.8095    4.3012   -0.0331 C.ar      1 ATP        -0.1346
     26 C6         -1.4065    5.5904    0.3585 C.ar      1 ATP         0.7213
     27 N6         -2.2501    6.2030   -0.4084 N.2       1 ATP        -0.8215
     28 N1         -0.9585    6.0272    1.5994 N.pl3     1 ATP        -0.8455
     29 C2         -0.0508    5.3009    2.3532 C.ar      1 ATP         0.6477
     30 N3          0.4890    4.1592    2.0257 N.2       1 ATP        -0.5707
     31 C4          0.0637    3.7006    0.7995 C.ar      1 ATP         0.2637
     32 HOG3       -1.6344   -6.3540   -3.6997 H         1 ATP         0.4378
     33 H5'1        2.5589    0.5217   -2.5976 H         1 ATP         0.0340
     34 H5'2        1.1982   -0.4388   -1.9617 H         1 ATP         0.0340
     35 H4'         3.8044   -0.1397   -0.4040 H         1 ATP         0.0910
     36 H3'         1.6764   -1.7639    0.2728 H         1 ATP         0.0656
     37 HO3'        2.2232   -1.2979    2.3953 H         1 ATP         0.4386
     38 H2'        -0.0011    0.0027    0.0003 H         1 ATP         0.0788
     39 HO2'       -0.1563   -0.9855    2.0596 H         1 ATP         0.4363
     40 H1'         1.7826    1.9024    1.6451 H         1 ATP         0.1225
     41 H8         -0.1116    1.6863   -1.6984 H         1 ATP         0.3824
     42 HN62       -2.5420    7.0730    0.0447 H         1 ATP         0.4018
     43 H2          0.1969    5.7893    3.3086 H         1 ATP         0.0652
     44 H44        -1.3097    6.9080    1.9642 H         1 ATP         0.4503
     45 H45        -1.5735    3.7351   -1.9538 H         1 ATP         0.5209
@<TRIPOS>BOND
     1    1    2 2
     2    1    3 1
     3    1    4 1
     4    1    8 1
     5    4   32 1
     6    5    6 2
     7    5    7 1
     8    5    8 1
     9    5   12 1
    10    9   10 2
    11    9   11 1
    12    9   12 1
    13    9   13 1
    14   13   14 1
    15   14   15 1
    16   14   33 1
    17   14   34 1
    18   15   16 1
    19   15   17 1
    20   15   35 1
    21   16   21 1
    22   17   18 1
    23   17   19 1
    24   17   36 1
    25   18   37 1
    26   19   20 1
    27   19   21 1
    28   19   38 1
    29   20   39 1
    30   21   22 1
    31   21   40 1
    32   22   23 ar
    33   22   31 ar
    34   23   24 ar
    35   23   41 1
    36   24   25 ar
    37   24   45 1
    38   25   26 ar
    39   25   31 ar
    40   26   27 2
    41   26   28 ar
    42   27   42 1
    43   28   29 ar
    44   28   44 1
    45   29   30 ar
    46   29   43 1
    47   30   31 ar
@<TRIPOS>SUBSTRUCTURE
     1 ATP         1 GROUP 0 A     ****
@<TRIPOS>MOLECULE
[[[3,4-dihydroxy-5-(6-imino-7,8-dihydro-1~{H}-purin-8-ylium-9-yl)tetrahydrofuran-2-yl]methoxy-oxido-phosphoryl]oxy-oxido-phosphoryl] hydrogen phosphate
   45    47     1     0     0
SMALL
USER_CHARGES

@<TRIPOS>ATOM
      1 PG         -4.2178   -1.2554   -0.9659 P.3       1 ATP         1.5631
      2 O1G        -4.3271   -0.4265    0.2945 O.co2     1 ATP        -0.8806
      3 O2G        -4.8966   -2.6029   -1.0713 O.co2     1 ATP        -0.8806
      4 O3G        -4.6871   -0.3379   -2.2323 O.3       1 ATP        -0.8165
      5 PB         -1.9574   -2.0853   -2.6821 P.3       1 ATP         1.6877
      6 O1B        -2.2440   -3.5703   -2.6876 O.co2     1 ATP        -0.8727
      7 O2B        -2.2852   -1.2198   -3.8783 O.co2     1 ATP        -0.8727
      8 O3B        -2.6418   -1.4251   -1.3550 O.3       1 ATP        -0.8330
      9 PA          0.9669   -2.2479   -3.1034 P.3       1 ATP         1.6036
     10 O1A         1.0230   -1.4257   -4.3727 O.co2     1 ATP        -0.9062
     11 O2A         1.0737   -3.7564   -3.1535 O.co2     1 ATP        -0.9062
     12 O3A        -0.3911   -1.8562   -2.2834 O.3       1 ATP        -0.8166
     13 O5'         2.0820   -1.6920   -2.0440 O.3       1 ATP        -0.5510
     14 C5'         2.2816   -0.2918   -1.9206 C.3       1 ATP         0.2099
     15 C4'         2.7248    0.0226   -0.4980 C.3       1 ATP         0.0598
     16 O4'         2.4697    1.4219   -0.2462 O.3       1 ATP        -0.3455
     17 C3'         1.9404   -0.7419    0.5596 C.3       1 ATP         0.0742
     18 O3'         2.7418   -0.8086    1.7389 O.3       1 ATP        -0.6025
     19 C2'         0.7477    0.1630    0.7858 C.3       1 ATP         0.1145
     20 O2'         0.1373   -0.0577    2.0407 O.3       1 ATP        -0.5835
     21 C1'         1.3733    1.5427    0.6747 C.3       1 ATP         0.3776
     22 N9          0.4520    2.5240    0.1767 N.pl3     1 ATP        -0.4429
     23 C8          0.2216    2.8192   -1.0985 C.ar      1 ATP         0.2964
     24 N7         -0.6906    3.7763   -1.2384 N.pl3     1 ATP        -0.4957
     25 C5         -1.0575    4.1037    0.0366 C.ar      1 ATP        -0.1346
     26 C6         -2.0291    5.0943    0.5330 C.ar      1 ATP         0.7213
     27 N6         -2.7093    5.8371   -0.2800 N.2       1 ATP        -0.8215
     28 N1         -2.1051    5.1136    1.9204 N.pl3     1 ATP        -0.8455
     29 C2         -1.3354    4.2774    2.7129 C.ar      1 ATP         0.6477
     30 N3         -0.4707    3.3945    2.2944 N.2       1 ATP        -0.5707
     31 C4         -0.3734    3.3525    0.9220 C.ar      1 ATP         0.2637
     32 HOG3       -4.6725   -0.7365   -3.1285 H         1 ATP         0.4378
     33 H5'1        3.0463    0.0197   -2.6385 H         1 ATP         0.0340
     34 H5'2        1.3428    0.2199   -2.1523 H         1 ATP         0.0340
     35 H4'         3.8044   -0.1397   -0.4040 H         1 ATP         0.0910
     36 H3'         1.6764   -1.7639    0.2728 H         1 ATP         0.0656
     37 HO3'        2.2232   -1.2979    2.3953 H         1 ATP         0.4386
     38 H2'        -0.0011    0.0027    0.0003 H         1 ATP         0.0788
     39 HO2'       -0.1563   -0.9855    2.0596 H         1 ATP         0.4363
     40 H1'         1.7826    1.9024    1.6451 H         1 ATP         0.1225
     41 H8          0.7125    2.3429   -1.9292 H         1 ATP         0.3824
     42 HN62       -3.3217    6.4517    0.2629 H         1 ATP         0.4018
     43 H2         -1.5188    4.4223    3.7890 H         1 ATP         0.0652
     44 H44        -2.7470    5.7626    2.3665 H         1 ATP         0.4503
     45 H45        -1.0305    4.1680   -2.1054 H         1 ATP         0.5209
@<TRIPOS>BOND
     1    1    2 2
     2    1    3 1
     3    1    4 1
     4    1    8 1
     5    4   32 1
     6    5    6 2
     7    5    7 1
     8    5    8 1
     9    5   12 1
    10    9   10 2
    11    9   11 1
    12    9   12 1
    13    9   13 1
    14   13   14 1
    15   14   15 1
    16   14   33 1
    17   14   34 1
    18   15   16 1
    19   15   17 1
    20   15   35 1
    21   16   21 1
    22   17   18 1
    23   17   19 1
    24   17   36 1
    25   18   37 1
    26   19   20 1
    27   19   21 1
    28   19   38 1
    29   20   39 1
    30   21   22 1
    31   21   40 1
    32   22   23 ar
    33   22   31 ar
    34   23   24 ar
    35   23   41 1
    36   24   25 ar
    37   24   45 1
    38   25   26 ar
    39   25   31 ar
    40   26   27 2
    41   26   28 ar
    42   27   42 1
    43   28   29 ar
    44   28   44 1
    45   29   30 ar
    46   29   43 1
    47   30   31 ar
@<TRIPOS>SUBSTRUCTURE
     1 ATP         1 GROUP 0 A     ****
@<TRIPOS>MOLECULE
[[[3,4-dihydroxy-5-(6-imino-7,8-dihydro-1~{H}-purin-8-ylium-9-yl)tetrahydrofuran-2-yl]methoxy-oxido-phosphoryl]oxy-oxido-phosphoryl] hydrogen phosphate
   45    47     1     0     0
SMALL
USER_CHARGES

@<TRIPOS>ATOM
      1 PG          0.8149    2.8586   -8.0758 P.3       1 ATP         1.5631
      2 O1G         0.4634    1.7763   -9.0720 O.co2     1 ATP        -0.8806
      3 O2G         1.9020    3.8669   -8.3749 O.co2     1 ATP        -0.8806
      4 O3G        -0.5489    3.6670   -7.6854 O.3       1 ATP        -0.8165
      5 PB          0.2043    1.1390   -5.7491 P.3       1 ATP         1.6877
      6 O1B        -1.0358    1.8673   -5.2810 O.co2     1 ATP        -0.8727
      7 O2B         0.1076   -0.1755   -6.4910 O.co2     1 ATP        -0.8727
      8 O3B         1.1165    2.1697   -6.6273 O.3       1 ATP        -0.8330
      9 PA          2.7407    0.3769   -4.4297 P.3       1 ATP         1.6036
     10 O1A         3.6422    1.3305   -5.1835 O.co2     1 ATP        -0.9062
     11 O2A         2.7080   -1.0952   -4.7784 O.co2     1 ATP        -0.9062
     12 O3A         1.2115    0.9503   -4.4784 O.3       1 ATP        -0.8166
     13 O5'         3.0213    0.5153   -2.8245 O.3       1 ATP        -0.5510
     14 C5'         2.2816   -0.2918   -1.9206 C.3       1 ATP         0.2099
     15 C4'         2.7248    0.0226   -0.4980 C.3       1 ATP         0.0598
     16 O4'         2.4697    1.4219   -0.2462 O.3       1 ATP        -0.3455
     17 C3'         1.9404   -0.7419    0.5596 C.3       1 ATP         0.0742
     18 O3'         2.7418   -0.8086    1.7389 O.3       1 ATP        -0.6025
     19 C2'         0.7477    0.1630    0.7858 C.3       1 ATP         0.1145
     20 O2'         0.1373   -0.0577    2.0407 O.3       1 ATP        -0.5835
     21 C1'         1.3733    1.5427    0.6747 C.3       1 ATP         0.3776
     22 N9          0.4520    2.5240    0.1767 N.pl3     1 ATP        -0.4429
     23 C8          0.5691    3.2215   -0.9485 C.ar      1 ATP         0.2964
     24 N7         -0.4499    4.0551   -1.1342 N.pl3     1 ATP        -0.4957
     25 C5         -1.2618    3.8674   -0.0512 C.ar      1 ATP        -0.1346
     26 C6         -2.5420    4.5007    0.3120 C.ar      1 ATP         0.7213
     27 N6         -3.0874    5.3993   -0.4432 N.2       1 ATP        -0.8215
     28 N1         -3.0494    4.0205    1.5133 N.pl3     1 ATP        -0.8455
     29 C2         -2.3933    3.0527    2.2567 C.ar      1 ATP         0.6477
     30 N3         -1.2611    2.4796    1.9536 N.2       1 ATP        -0.5707
     31 C4         -0.7334    2.9358    0.7669 C.ar      1 ATP         0.2637
     32 HOG3       -0.4859    4.4062   -7.0435 H         1 ATP         0.4378
     33 H5'1        1.2163   -0.0770   -2.0471 H         1 ATP         0.0340
     34 H5'2        2.4655   -1.3443   -2.1563 H         1 ATP         0.0340
     35 H4'         3.8044   -0.1397   -0.4040 H         1 ATP         0.0910
     36 H3'         1.6764   -1.7639    0.2728 H         1 ATP         0.0656
     37 HO3'        3.5554   -1.2733    1.4914 H         1 ATP         0.4386
     38 H2'        -0.0011    0.0027    0.0003 H         1 ATP         0.0788
     39 HO2'        0.8082    0.1199    2.7232 H         1 ATP         0.4363
     40 H1'         1.7826    1.9024    1.6451 H         1 ATP         0.1225
     41 H8          1.3912    3.1285   -1.6365 H         1 ATP         0.3824
     42 HN62       -3.9637    5.7083   -0.0142 H         1 ATP         0.4018
     43 H2         -2.9317    2.7866    3.1796 H         1 ATP         0.0652
     44 H44        -3.9307    4.3923    1.8558 H         1 ATP         0.4503
     45 H45        -0.5835    4.6857   -1.9122 H         1 ATP         0.5209
@<TRIPOS>BOND
     1    1    2 2
     2    1    3 1
     3    1    4 1
     4    1    8 1
     5    4   32 1
     6    5    6 2
     7    5    7 1
     8    5    8 1
     9    5   12 1
    10    9   10 2
    11    9   11 1
    12    9   12 1
    13    9   13 1
    14   13   14 1
    15   14   15 1
    16   14   33 1
    17   14   34 1
    18   15   16 1
    19   15   17 1
    20   15   35 1
    21   16   21 1
    22   17   18 1
    23   17   19 1
    24   17   36 1
    25   18   37 1
    26   19   20 1
    27   19   21 1
    28   19   38 1
    29   20   39 1
    30   21   22 1
    31   21   40 1
    32   22   23 ar
    33   22   31 ar
    34   23   24 ar
    35   23   41 1
    36   24   25 ar
    37   24   45 1
    38   25   26 ar
    39   25   31 ar
    40   26   27 2
    41   26   28 ar
    42   27   42 1
    43   28   29 ar
    44   28   44 1
    45   29   30 ar
    46   29   43 1
    47   30   31 ar
@<TRIPOS>SUBSTRUCTURE
     1 ATP         1 GROUP 0 A     ****
@<TRIPOS>MOLECULE
[[[3,4-dihydroxy-5-(6-imino-7,8-dihydro-1~{H}-purin-8-ylium-9-yl)tetrahydrofuran-2-yl]methoxy-oxido-phosphoryl]oxy-oxido-phosphoryl] hydrogen phosphate
   45    47     1     0     0
SMALL
USER_CHARGES

@<TRIPOS>ATOM
      1 PG          2.3325   -3.5992   -5.7689 P.3       1 ATP         1.5631
      2 O1G         3.0189   -3.3195   -4.4505 O.co2     1 ATP        -0.8806
      3 O2G         3.1234   -3.6773   -7.0557 O.co2     1 ATP        -0.8806
      4 O3G         1.4541   -4.9671   -5.6164 O.3       1 ATP        -0.8165
      5 PB          1.1473   -0.9224   -6.1859 P.3       1 ATP         1.6877
      6 O1B         2.0649   -0.6149   -7.3483 O.co2     1 ATP        -0.8727
      7 O2B        -0.2683   -0.3916   -6.1436 O.co2     1 ATP        -0.8727
      8 O3B         1.1067   -2.5396   -5.9649 O.3       1 ATP        -0.8330
      9 PA          2.3336    0.9636   -4.2390 P.3       1 ATP         1.6036
     10 O1A         1.0795    1.7631   -3.9591 O.co2     1 ATP        -0.9062
     11 O2A         3.4185    1.5158   -5.1377 O.co2     1 ATP        -0.9062
     12 O3A         1.9032   -0.5097   -4.7991 O.3       1 ATP        -0.8166
     13 O5'         3.0213    0.5153   -2.8245 O.3       1 ATP        -0.5510
     14 C5'         2.2816   -0.2918   -1.9206 C.3       1 ATP         0.2099
     15 C4'         2.7248    0.0226   -0.4980 C.3       1 ATP         0.0598
     16 O4'         2.4697    1.4219   -0.2462 O.3       1 ATP        -0.3455
     17 C3'         1.9404   -0.7419    0.5596 C.3       1 ATP         0.0742
     18 O3'         2.7418   -0.8086    1.7389 O.3       1 ATP        -0.6025
     19 C2'         0.7477    0.1630    0.7858 C.3       1 ATP         0.1145
     20 O2'         0.1373   -0.0577    2.0407 O.3       1 ATP        -0.5835
     21 C1'         1.3733    1.5427    0.6747 C.3       1 ATP         0.3776
     22 N9          0.4520    2.5240    0.1767 N.pl3     1 ATP        -0.4429
     23 C8         -0.8620    2.5492    0.3743 C.ar      1 ATP         0.2964
     24 N7         -1.4419    3.5886   -0.2183 N.pl3     1 ATP        -0.4957
     25 C5         -0.4215    4.2614   -0.8294 C.ar      1 ATP        -0.1346
     26 C6         -0.4310    5.4918   -1.6405 C.ar      1 ATP         0.7213
     27 N6         -1.5302    6.1308   -1.8826 N.2       1 ATP        -0.8215
     28 N1          0.8382    5.8461   -2.0817 N.pl3     1 ATP        -0.8455
     29 C2          1.9625    5.0982   -1.7709 C.ar      1 ATP         0.6477
     30 N3          1.9930    4.0077   -1.0554 N.2       1 ATP        -0.5707
     31 C4          0.7483    3.6314   -0.6038 C.ar      1 ATP         0.2637
     32 HOG3        0.9455   -5.2844   -6.3929 H         1 ATP         0.4378
     33 H5'1        1.2163   -0.0770   -2.0471 H         1 ATP         0.0340
     34 H5'2        2.4655   -1.3443   -2.1563 H         1 ATP         0.0340
     35 H4'         3.8044   -0.1397   -0.4040 H         1 ATP         0.0910
     36 H3'         1.6764   -1.7639    0.2728 H         1 ATP         0.0656
     37 HO3'        2.2232   -1.2979    2.3953 H         1 ATP         0.4386
     38 H2'        -0.0011    0.0027    0.0003 H         1 ATP         0.0788
     39 HO2'       -0.1563   -0.9855    2.0596 H         1 ATP         0.4363
     40 H1'         1.7826    1.9024    1.6451 H         1 ATP         0.1225
     41 H8         -1.4030    1.8165    0.9473 H         1 ATP         0.3824
     42 HN62       -1.3197    6.9504   -2.4583 H         1 ATP         0.4018
     43 H2          2.8857    5.5186   -2.1994 H         1 ATP         0.0652
     44 H44         0.9433    6.6815   -2.6502 H         1 ATP         0.4503
     45 H45        -2.4254    3.8199   -0.2108 H         1 ATP         0.5209
@<TRIPOS>BOND
     1    1    2 2
     2    1    3 1
     3    1    4 1
     4    1    8 1
     5    4   32 1
     6    5    6 2
     7    5    7 1
     8    5    8 1
     9    5   12 1
    10    9   10 2
    11    9   11 1
    12    9   12 1
    13    9   13 1
    14   13   14 1
    15   14   15 1
    16   14   33 1
    17   14   34 1
    18   15   16 1
    19   15   17 1
    20   15   35 1
    21   16   21 1
    22   17   18 1
    23   17   19 1
    24   17   36 1
    25   18   37 1
    26   19   20 1
    27   19   21 1
    28   19   38 1
    29   20   39 1
    30   21   22 1
    31   21   40 1
    32   22   23 ar
    33   22   31 ar
    34   23   24 ar
    35   23   41 1
    36   24   25 ar
    37   24   45 1
    38   25   26 ar
    39   25   31 ar
    40   26   27 2
    41   26   28 ar
    42   27   42 1
    43   28   29 ar
    44   28   44 1
    45   29   30 ar
    46   29   43 1
    47   30   31 ar
@<TRIPOS>SUBSTRUCTURE
     1 ATP         1 GROUP 0 A     ****
@<TRIPOS>MOLECULE
[[[3,4-dihydroxy-5-(6-imino-7,8-dihydro-1~{H}-purin-8-ylium-9-yl)tetrahydrofuran-2-yl]methoxy-oxido-phosphoryl]oxy-oxido-phosphoryl] hydrogen phosphate
   45    47     1     0     0
SMALL
USER_CHARGES

@<TRIPOS>ATOM
      1 PG          3.5211   -3.9390   -6.8824 P.3       1 ATP         1.5631
      2 O1G         4.1237   -4.8260   -5.8159 O.co2     1 ATP        -0.8806
      3 O2G         4.3182   -3.5424   -8.1051 O.co2     1 ATP        -0.8806
      4 O3G         2.1130   -4.6031   -7.3745 O.3       1 ATP        -0.8165
      5 PB          3.7082   -1.3710   -5.4286 P.3       1 ATP         1.6877
      6 O1B         4.3342   -1.9039   -4.1591 O.co2     1 ATP        -0.8727
      7 O2B         4.5305   -0.6203   -6.4522 O.co2     1 ATP        -0.8727
      8 O3B         2.9260   -2.5919   -6.1790 O.3       1 ATP        -0.8330
      9 PA          2.3336    0.9636   -4.2390 P.3       1 ATP         1.6036
     10 O1A         0.8796    1.3120   -4.0049 O.co2     1 ATP        -0.9062
     11 O2A         3.2620    1.9405   -4.9270 O.co2     1 ATP        -0.9062
     12 O3A         2.4109   -0.4633   -5.0313 O.3       1 ATP        -0.8166
     13 O5'         3.0213    0.5153   -2.8245 O.3       1 ATP        -0.5510
     14 C5'         2.2816   -0.2918   -1.9206 C.3       1 ATP         0.2099
     15 C4'         2.7248    0.0226   -0.4980 C.3       1 ATP         0.0598
     16 O4'         2.4697    1.4219   -0.2462 O.3       1 ATP        -0.3455
     17 C3'         1.9404   -0.7419    0.5596 C.3       1 ATP         0.0742
     18 O3'         2.7418   -0.8086    1.7389 O.3       1 ATP        -0.6025
     19 C2'         0.7477    0.1630    0.7858 C.3       1 ATP         0.1145
     20 O2'         0.1373   -0.0577    2.0407 O.3       1 ATP        -0.5835
     21 C1'         1.3733    1.5427    0.6747 C.3       1 ATP         0.3776
     22 N9          0.4520    2.5240    0.1767 N.pl3     1 ATP        -0.4429
     23 C8          0.5691    3.2215   -0.9485 C.ar      1 ATP         0.2964
     24 N7         -0.4499    4.0551   -1.1342 N.pl3     1 ATP        -0.4957
     25 C5         -1.2618    3.8674   -0.0512 C.ar      1 ATP        -0.1346
     26 C6         -2.5420    4.5007    0.3120 C.ar      1 ATP         0.7213
     27 N6         -3.0874    5.3993   -0.4432 N.2       1 ATP        -0.8215
     28 N1         -3.0494    4.0205    1.5133 N.pl3     1 ATP        -0.8455
     29 C2         -2.3933    3.0527    2.2567 C.ar      1 ATP         0.6477
     30 N3         -1.2611    2.4796    1.9536 N.2       1 ATP        -0.5707
     31 C4         -0.7334    2.9358    0.7669 C.ar      1 ATP         0.2637
     32 HOG3        1.5970   -4.1418   -8.0697 H         1 ATP         0.4378
     33 H5'1        1.2163   -0.0770   -2.0471 H         1 ATP         0.0340
     34 H5'2        2.4655   -1.3443   -2.1563 H         1 ATP         0.0340
     35 H4'         3.8044   -0.1397   -0.4040 H         1 ATP         0.0910
     36 H3'         1.6764   -1.7639    0.2728 H         1 ATP         0.0656
     37 HO3'        2.2232   -1.2979    2.3953 H         1 ATP         0.4386
     38 H2'        -0.0011    0.0027    0.0003 H         1 ATP         0.0788
     39 HO2'       -0.1563   -0.9855    2.0596 H         1 ATP         0.4363
     40 H1'         1.7826    1.9024    1.6451 H         1 ATP         0.1225
     41 H8          1.3912    3.1285   -1.6365 H         1 ATP         0.3824
     42 HN62       -3.9637    5.7083   -0.0142 H         1 ATP         0.4018
     43 H2         -2.9317    2.7866    3.1796 H         1 ATP         0.0652
     44 H44        -3.9307    4.3923    1.8558 H         1 ATP         0.4503
     45 H45        -0.5835    4.6857   -1.9122 H         1 ATP         0.5209
@<TRIPOS>BOND
     1    1    2 2
     2    1    3 1
     3    1    4 1
     4    1    8 1
     5    4   32 1
     6    5    6 2
     7    5    7 1
     8    5    8 1
     9    5   12 1
    10    9   10 2
    11    9   11 1
    12    9   12 1
    13    9   13 1
    14   13   14 1
    15   14   15 1
    16   14   33 1
    17   14   34 1
    18   15   16 1
    19   15   17 1
    20   15   35 1
    21   16   21 1
    22   17   18 1
    23   17   19 1
    24   17   36 1
    25   18   37 1
    26   19   20 1
    27   19   21 1
    28   19   38 1
    29   20   39 1
    30   21   22 1
    31   21   40 1
    32   22   23 ar
    33   22   31 ar
    34   23   24 ar
    35   23   41 1
    36   24   25 ar
    37   24   45 1
    38   25   26 ar
    39   25   31 ar
    40   26   27 2
    41   26   28 ar
    42   27   42 1
    43   28   29 ar
    44   28   44 1
    45   29   30 ar
    46   29   43 1
    47   30   31 ar
@<TRIPOS>SUBSTRUCTURE
     1 ATP         1 GROUP 0 A     ****
@<TRIPOS>MOLECULE
[[[3,4-dihydroxy-5-(6-imino-7,8-dihydro-1~{H}-purin-8-ylium-9-yl)tetrahydrofuran-2-yl]methoxy-oxido-phosphoryl]oxy-oxido-phosphoryl] hydrogen phosphate
   45    47     1     0     0
SMALL
USER_CHARGES

@<TRIPOS>ATOM
      1 PG          7.4581   -0.3958   -5.6498 P.3       1 ATP         1.5631
      2 O1G         7.2286    0.5655   -6.7947 O.co2     1 ATP        -0.8806
      3 O2G         8.2705   -1.6566   -5.8444 O.co2     1 ATP        -0.8806
      4 O3G         8.0848    0.4358   -4.3921 O.3       1 ATP        -0.8165
      5 PB          4.7775   -1.6435   -5.6233 P.3       1 ATP         1.6877
      6 O1B         4.1761   -0.8520   -6.7632 O.co2     1 ATP        -0.8727
      7 O2B         5.2213   -3.0769   -5.8133 O.co2     1 ATP        -0.8727
      8 O3B         6.0180   -0.7908   -4.9912 O.3       1 ATP        -0.8330
      9 PA          3.9668   -2.1116   -2.8163 P.3       1 ATP         1.6036
     10 O1A         5.0719   -1.3107   -2.1623 O.co2     1 ATP        -0.9062
     11 O2A         4.0210   -3.6235   -2.8465 O.co2     1 ATP        -0.9062
     12 O3A         3.7633   -1.5743   -4.3459 O.3       1 ATP        -0.8166
     13 O5'         2.5245   -1.6648   -2.1878 O.3       1 ATP        -0.5510
     14 C5'         2.2816   -0.2918   -1.9206 C.3       1 ATP         0.2099
     15 C4'         2.7248    0.0226   -0.4980 C.3       1 ATP         0.0598
     16 O4'         2.4697    1.4219   -0.2462 O.3       1 ATP        -0.3455
     17 C3'         1.9404   -0.7419    0.5596 C.3       1 ATP         0.0742
     18 O3'         2.7418   -0.8086    1.7389 O.3       1 ATP        -0.6025
     19 C2'         0.7477    0.1630    0.7858 C.3       1 ATP         0.1145
     20 O2'         0.1373   -0.0577    2.0407 O.3       1 ATP        -0.5835
     21 C1'         1.3733    1.5427    0.6747 C.3       1 ATP         0.3776
     22 N9          0.4520    2.5240    0.1767 N.pl3     1 ATP        -0.4429
     23 C8          0.2216    2.8192   -1.0985 C.ar      1 ATP         0.2964
     24 N7         -0.6906    3.7763   -1.2384 N.pl3     1 ATP        -0.4957
     25 C5         -1.0575    4.1037    0.0366 C.ar      1 ATP        -0.1346
     26 C6         -2.0291    5.0943    0.5330 C.ar      1 ATP         0.7213
     27 N6         -2.7093    5.8371   -0.2800 N.2       1 ATP        -0.8215
     28 N1         -2.1051    5.1136    1.9204 N.pl3     1 ATP        -0.8455
     29 C2         -1.3354    4.2774    2.7129 C.ar      1 ATP         0.6477
     30 N3         -0.4707    3.3945    2.2944 N.2       1 ATP        -0.5707
     31 C4         -0.3734    3.3525    0.9220 C.ar      1 ATP         0.2637
     32 HOG3        8.2911   -0.0519   -3.5664 H         1 ATP         0.4378
     33 H5'1        2.8432    0.3119   -2.6398 H         1 ATP         0.0340
     34 H5'2        1.2128   -0.0927   -2.0428 H         1 ATP         0.0340
     35 H4'         3.8044   -0.1397   -0.4040 H         1 ATP         0.0910
     36 H3'         1.6764   -1.7639    0.2728 H         1 ATP         0.0656
     37 HO3'        3.5554   -1.2733    1.4914 H         1 ATP         0.4386
     38 H2'        -0.0011    0.0027    0.0003 H         1 ATP         0.0788
     39 HO2'       -0.6141    0.5574    2.1082 H         1 ATP         0.4363
     40 H1'         1.7826    1.9024    1.6451 H         1 ATP         0.1225
     41 H8          0.7125    2.3429   -1.9292 H         1 ATP         0.3824
     42 HN62       -3.3217    6.4517    0.2629 H         1 ATP         0.4018
     43 H2         -1.5188    4.4223    3.7890 H         1 ATP         0.0652
     44 H44        -2.7470    5.7626    2.3665 H         1 ATP         0.4503
     45 H45        -1.0305    4.1680   -2.1054 H         1 ATP         0.5209
@<TRIPOS>BOND
     1    1    2 2
     2    1    3 1
     3    1    4 1
     4    1    8 1
     5    4   32 1
     6    5    6 2
     7    5    7 1
     8    5    8 1
     9    5   12 1
    10    9   10 2
    11    9   11 1
    12    9   12 1
    13    9   13 1
    14   13   14 1
    15   14   15 1
    16   14   33 1
    17   14   34 1
    18   15   16 1
    19   15   17 1
    20   15   35 1
    21   16   21 1
    22   17   18 1
    23   17   19 1
    24   17   36 1
    25   18   37 1
    26   19   20 1
    27   19   21 1
    28   19   38 1
    29   20   39 1
    30   21   22 1
    31   21   40 1
    32   22   23 ar
    33   22   31 ar
    34   23   24 ar
    35   23   41 1
    36   24   25 ar
    37   24   45 1
    38   25   26 ar
    39   25   31 ar
    40   26   27 2
    41   26   28 ar
    42   27   42 1
    43   28   29 ar
    44   28   44 1
    45   29   30 ar
    46   29   43 1
    47   30   31 ar
@<TRIPOS>SUBSTRUCTURE
     1 ATP         1 GROUP 0 A     ****
@<TRIPOS>MOLECULE
[[[3,4-dihydroxy-5-(6-imino-7,8-dihydro-1~{H}-purin-8-ylium-9-yl)tetrahydrofuran-2-yl]methoxy-oxido-phosphoryl]oxy-oxido-phosphoryl] hydrogen phosphate
   45    47     1     0     0
SMALL
USER_CHARGES

@<TRIPOS>ATOM
      1 PG          2.2477    2.4558   -8.4331 P.3       1 ATP         1.5631
      2 O1G         3.6796    2.7137   -8.8462 O.co2     1 ATP        -0.8806
      3 O2G         1.1967    3.5366   -8.5555 O.co2     1 ATP        -0.8806
      4 O3G         1.7148    1.1239   -9.2128 O.3       1 ATP        -0.8165
      5 PB          0.9889    1.2869   -6.0263 P.3       1 ATP         1.6877
      6 O1B         0.0273    2.4170   -5.7336 O.co2     1 ATP        -0.8727
      7 O2B         0.5130   -0.0036   -6.6553 O.co2     1 ATP        -0.8727
      8 O3B         2.2314    1.8724   -6.9089 O.3       1 ATP        -0.8330
      9 PA          3.0675   -0.0857   -4.4293 P.3       1 ATP         1.6036
     10 O1A         4.2683    0.4444   -5.1827 O.co2     1 ATP        -0.9062
     11 O2A         2.5798   -1.5012   -4.6487 O.co2     1 ATP        -0.9062
     12 O3A         1.8107    0.9323   -4.6611 O.3       1 ATP        -0.8166
     13 O5'         3.2903    0.1346   -2.8241 O.3       1 ATP        -0.5510
     14 C5'         2.2816   -0.2918   -1.9206 C.3       1 ATP         0.2099
     15 C4'         2.7248    0.0226   -0.4980 C.3       1 ATP         0.0598
     16 O4'         2.4697    1.4219   -0.2462 O.3       1 ATP        -0.3455
     17 C3'         1.9404   -0.7419    0.5596 C.3       1 ATP         0.0742
     18 O3'         2.7418   -0.8086    1.7389 O.3       1 ATP        -0.6025
     19 C2'         0.7477    0.1630    0.7858 C.3       1 ATP         0.1145
     20 O2'         0.1373   -0.0577    2.0407 O.3       1 ATP        -0.5835
     21 C1'         1.3733    1.5427    0.6747 C.3       1 ATP         0.3776
     22 N9          0.4520    2.5240    0.1767 N.pl3     1 ATP        -0.4429
     23 C8         -0.6821    2.9098    0.7521 C.ar      1 ATP         0.2964
     24 N7         -1.3175    3.8384    0.0437 N.pl3     1 ATP        -0.4957
     25 C5         -0.5274    4.0494   -1.0512 C.ar      1 ATP        -0.1346
     26 C6         -0.6966    4.9597   -2.1977 C.ar      1 ATP         0.7213
     27 N6         -1.7259    5.7385   -2.2937 N.2       1 ATP        -0.8215
     28 N1          0.3493    4.8663   -3.1079 N.pl3     1 ATP        -0.8455
     29 C2          1.4148    4.0005   -2.9208 C.ar      1 ATP         0.6477
     30 N3          1.5838    3.1876   -1.9144 N.2       1 ATP        -0.5707
     31 C4          0.5619    3.2578   -0.9949 C.ar      1 ATP         0.2637
     32 HOG3        0.7954    0.8236   -9.0492 H         1 ATP         0.4378
     33 H5'1        1.3514    0.2330   -2.1577 H         1 ATP         0.0340
     34 H5'2        2.1280   -1.3678   -2.0460 H         1 ATP         0.0340
     35 H4'         3.8044   -0.1397   -0.4040 H         1 ATP         0.0910
     36 H3'         1.6764   -1.7639    0.2728 H         1 ATP         0.0656
     37 HO3'        3.5554   -1.2733    1.4914 H         1 ATP         0.4386
     38 H2'        -0.0011    0.0027    0.0003 H         1 ATP         0.0788
     39 HO2'       -0.1563   -0.9855    2.0596 H         1 ATP         0.4363
     40 H1'         1.7826    1.9024    1.6451 H         1 ATP         0.1225
     41 H8         -1.0516    2.5207    1.6849 H         1 ATP         0.3824
     42 HN62       -1.6520    6.2842   -3.1564 H         1 ATP         0.4018
     43 H2          2.1542    4.0525   -3.7351 H         1 ATP         0.0652
     44 H44         0.3306    5.4533   -3.9370 H         1 ATP         0.4503
     45 H45        -2.1941    4.2838    0.2756 H         1 ATP         0.5209
@<TRIPOS>BOND
     1    1    2 2
     2    1    3 1
     3    1    4 1
     4    1    8 1
     5    4   32 1
     6    5    6 2
     7    5    7 1
     8    5    8 1
     9    5   12 1
    10    9   10 2
    11    9   11 1
    12    9   12 1
    13    9   13 1
    14   13   14 1
    15   14   15 1
    16   14   33 1
    17   14   34 1
    18   15   16 1
    19   15   17 1
    20   15   35 1
    21   16   21 1
    22   17   18 1
    23   17   19 1
    24   17   36 1
    25   18   37 1
    26   19   20 1
    27   19   21 1
    28   19   38 1
    29   20   39 1
    30   21   22 1
    31   21   40 1
    32   22   23 ar
    33   22   31 ar
    34   23   24 ar
    35   23   41 1
    36   24   25 ar
    37   24   45 1
    38   25   26 ar
    39   25   31 ar
    40   26   27 2
    41   26   28 ar
    42   27   42 1
    43   28   29 ar
    44   28   44 1
    45   29   30 ar
    46   29   43 1
    47   30   31 ar
@<TRIPOS>SUBSTRUCTURE
     1 ATP         1 GROUP 0 A     ****
@<TRIPOS>MOLECULE
[[[3,4-dihydroxy-5-(6-imino-7,8-dihydro-1~{H}-purin-8-ylium-9-yl)tetrahydrofuran-2-yl]methoxy-oxido-phosphoryl]oxy-oxido-phosphoryl] hydrogen phosphate
   45    47     1     0     0
SMALL
USER_CHARGES

@<TRIPOS>ATOM
      1 PG         -6.3750   -5.6421   -0.6322 P.3       1 ATP         1.5631
      2 O1G        -6.2922   -4.7236   -1.8309 O.co2     1 ATP        -0.8806
      3 O2G        -7.4746   -5.4834    0.3942 O.co2     1 ATP        -0.8806
      4 O3G        -6.3790   -7.1867   -1.1615 O.3       1 ATP        -0.8165
      5 PB         -4.4154   -6.5644    1.3810 P.3       1 ATP         1.6877
      6 O1B        -5.2069   -6.1950    2.6157 O.co2     1 ATP        -0.8727
      7 O2B        -4.3119   -8.0003    0.9173 O.co2     1 ATP        -0.8727
      8 O3B        -4.9336   -5.6475    0.1334 O.3       1 ATP        -0.8330
      9 PA         -1.7128   -6.3370    2.5639 P.3       1 ATP         1.6036
     10 O1A        -1.2607   -7.7533    2.2812 O.co2     1 ATP        -0.9062
     11 O2A        -2.1423   -5.9253    3.9552 O.co2     1 ATP        -0.9062
     12 O3A        -2.9097   -5.9496    1.5213 O.3       1 ATP        -0.8166
     13 O5'        -0.5687   -5.2869    2.0510 O.3       1 ATP        -0.5510
     14 C5'        -0.7840   -3.8935    2.2172 C.3       1 ATP         0.2099
     15 C4'        -0.0724   -3.1466    1.1027 C.3       1 ATP         0.0598
     16 O4'        -0.8674   -3.1929   -0.0945 O.3       1 ATP        -0.3455
     17 C3'         0.1338   -1.6715    1.4027 C.3       1 ATP         0.0742
     18 O3'         1.2893   -1.4445    2.1808 O.3       1 ATP        -0.6025
     19 C2'         0.2158   -1.0724    0.0128 C.3       1 ATP         0.1145
     20 O2'         1.5141   -1.2448   -0.5513 O.3       1 ATP        -0.5835
     21 C1'        -0.7897   -1.9176   -0.7583 C.3       1 ATP         0.3776
     22 N9         -2.1040   -1.3333   -0.7704 N.pl3     1 ATP        -0.4429
     23 C8         -3.0590   -1.5123    0.1363 C.ar      1 ATP         0.2964
     24 N7         -4.1655   -0.8354   -0.1554 N.pl3     1 ATP        -0.4957
     25 C5         -3.8852   -0.1874   -1.3253 C.ar      1 ATP        -0.1346
     26 C6         -4.7113    0.7160   -2.1458 C.ar      1 ATP         0.7213
     27 N6         -5.9213    1.0209   -1.8021 N.2       1 ATP        -0.8215
     28 N1         -4.0411    1.1673   -3.2764 N.pl3     1 ATP        -0.8455
     29 C2         -2.7403    0.7865   -3.5638 C.ar      1 ATP         0.6477
     30 N3         -1.9921   -0.0108   -2.8519 N.2       1 ATP        -0.5707
     31 C4         -2.6302   -0.4747   -1.7239 C.ar      1 ATP         0.2637
     32 HOG3       -6.4292   -7.9075   -0.4980 H         1 ATP         0.4378
     33 H5'1       -1.8598   -3.6968    2.1850 H         1 ATP         0.0340
     34 H5'2       -0.3933   -3.5903    3.1931 H         1 ATP         0.0340
     35 H4'         0.8874   -3.6466    0.8805 H         1 ATP         0.0910
     36 H3'        -0.7376   -1.2333    1.9867 H         1 ATP         0.0656
     37 HO3'        1.3408   -0.4870    2.3219 H         1 ATP         0.4386
     38 H2'        -0.0384   -0.0310    0.0096 H         1 ATP         0.0788
     39 HO2'        2.1463   -0.7958    0.0370 H         1 ATP         0.4363
     40 H1'        -0.4769   -2.1002   -1.8093 H         1 ATP         0.1225
     41 H8         -2.9569   -2.1323    1.0098 H         1 ATP         0.3824
     42 HN62       -6.3169    1.6552   -2.5012 H         1 ATP         0.4018
     43 H2         -2.3612    1.2343   -4.4957 H         1 ATP         0.0652
     44 H44        -4.5223    1.7976   -3.9117 H         1 ATP         0.4503
     45 H45        -5.0218   -0.8132    0.3804 H         1 ATP         0.5209
@<TRIPOS>BOND
     1    1    2 2
     2    1    3 1
     3    1    4 1
     4    1    8 1
     5    4   32 1
     6    5    6 2
     7    5    7 1
     8    5    8 1
     9    5   12 1
    10    9   10 2
    11    9   11 1
    12    9   12 1
    13    9   13 1
    14   13   14 1
    15   14   15 1
    16   14   33 1
    17   14   34 1
    18   15   16 1
    19   15   17 1
    20   15   35 1
    21   16   21 1
    22   17   18 1
    23   17   19 1
    24   17   36 1
    25   18   37 1
    26   19   20 1
    27   19   21 1
    28   19   38 1
    29   20   39 1
    30   21   22 1
    31   21   40 1
    32   22   23 ar
    33   22   31 ar
    34   23   24 ar
    35   23   41 1
    36   24   25 ar
    37   24   45 1
    38   25   26 ar
    39   25   31 ar
    40   26   27 2
    41   26   28 ar
    42   27   42 1
    43   28   29 ar
    44   28   44 1
    45   29   30 ar
    46   29   43 1
    47   30   31 ar
@<TRIPOS>SUBSTRUCTURE
     1 ATP         1 GROUP 0 A     ****
@<TRIPOS>MOLECULE
[[[3,4-dihydroxy-5-(6-imino-7,8-dihydro-1~{H}-purin-8-ylium-9-yl)tetrahydrofuran-2-yl]methoxy-oxido-phosphoryl]oxy-oxido-phosphoryl] hydrogen phosphate
   45    47     1     0     0
SMALL
USER_CHARGES

@<TRIPOS>ATOM
      1 PG         -0.1081   -1.8977   -6.5568 P.3       1 ATP         1.5631
      2 O1G        -0.4567   -1.7169   -5.0963 O.co2     1 ATP        -0.8806
      3 O2G        -0.2348   -3.2489   -7.2246 O.co2     1 ATP        -0.8806
      4 O3G        -0.9519   -0.8066   -7.4304 O.3       1 ATP        -0.8165
      5 PB          2.8356   -1.8593   -6.2797 P.3       1 ATP         1.6877
      6 O1B         2.9624   -3.3259   -6.6270 O.co2     1 ATP        -0.8727
      7 O2B         3.9063   -0.8659   -6.6726 O.co2     1 ATP        -0.8727
      8 O3B         1.3939   -1.3162   -6.8204 O.3       1 ATP        -0.8330
      9 PA          3.5300   -2.0730   -3.4114 P.3       1 ATP         1.6036
     10 O1A         4.7117   -1.1277   -3.4301 O.co2     1 ATP        -0.9062
     11 O2A         3.7385   -3.5712   -3.3717 O.co2     1 ATP        -0.9062
     12 O3A         2.5575   -1.7232   -4.6769 O.3       1 ATP        -0.8166
     13 O5'         2.5245   -1.6648   -2.1878 O.3       1 ATP        -0.5510
     14 C5'         2.2816   -0.2918   -1.9206 C.3       1 ATP         0.2099
     15 C4'         2.7248    0.0226   -0.4980 C.3       1 ATP         0.0598
     16 O4'         2.4697    1.4219   -0.2462 O.3       1 ATP        -0.3455
     17 C3'         1.9404   -0.7419    0.5596 C.3       1 ATP         0.0742
     18 O3'         2.7418   -0.8086    1.7389 O.3       1 ATP        -0.6025
     19 C2'         0.7477    0.1630    0.7858 C.3       1 ATP         0.1145
     20 O2'         0.1373   -0.0577    2.0407 O.3       1 ATP        -0.5835
     21 C1'         1.3733    1.5427    0.6747 C.3       1 ATP         0.3776
     22 N9          0.4520    2.5240    0.1767 N.pl3     1 ATP        -0.4429
     23 C8          0.2216    2.8192   -1.0985 C.ar      1 ATP         0.2964
     24 N7         -0.6906    3.7763   -1.2384 N.pl3     1 ATP        -0.4957
     25 C5         -1.0575    4.1037    0.0366 C.ar      1 ATP        -0.1346
     26 C6         -2.0291    5.0943    0.5330 C.ar      1 ATP         0.7213
     27 N6         -2.7093    5.8371   -0.2800 N.2       1 ATP        -0.8215
     28 N1         -2.1051    5.1136    1.9204 N.pl3     1 ATP        -0.8455
     29 C2         -1.3354    4.2774    2.7129 C.ar      1 ATP         0.6477
     30 N3         -0.4707    3.3945    2.2944 N.2       1 ATP        -0.5707
     31 C4         -0.3734    3.3525    0.9220 C.ar      1 ATP         0.2637
     32 HOG3       -0.8341   -0.7965   -8.4043 H         1 ATP         0.4378
     33 H5'1        2.8432    0.3119   -2.6398 H         1 ATP         0.0340
     34 H5'2        1.2128   -0.0927   -2.0428 H         1 ATP         0.0340
     35 H4'         3.8044   -0.1397   -0.4040 H         1 ATP         0.0910
     36 H3'         1.6764   -1.7639    0.2728 H         1 ATP         0.0656
     37 HO3'        3.5554   -1.2733    1.4914 H         1 ATP         0.4386
     38 H2'        -0.0011    0.0027    0.0003 H         1 ATP         0.0788
     39 HO2'        0.8082    0.1199    2.7232 H         1 ATP         0.4363
     40 H1'         1.7826    1.9024    1.6451 H         1 ATP         0.1225
     41 H8          0.7125    2.3429   -1.9292 H         1 ATP         0.3824
     42 HN62       -3.3217    6.4517    0.2629 H         1 ATP         0.4018
     43 H2         -1.5188    4.4223    3.7890 H         1 ATP         0.0652
     44 H44        -2.7470    5.7626    2.3665 H         1 ATP         0.4503
     45 H45        -1.0305    4.1680   -2.1054 H         1 ATP         0.5209
@<TRIPOS>BOND
     1    1    2 2
     2    1    3 1
     3    1    4 1
     4    1    8 1
     5    4   32 1
     6    5    6 2
     7    5    7 1
     8    5    8 1
     9    5   12 1
    10    9   10 2
    11    9   11 1
    12    9   12 1
    13    9   13 1
    14   13   14 1
    15   14   15 1
    16   14   33 1
    17   14   34 1
    18   15   16 1
    19   15   17 1
    20   15   35 1
    21   16   21 1
    22   17   18 1
    23   17   19 1
    24   17   36 1
    25   18   37 1
    26   19   20 1
    27   19   21 1
    28   19   38 1
    29   20   39 1
    30   21   22 1
    31   21   40 1
    32   22   23 ar
    33   22   31 ar
    34   23   24 ar
    35   23   41 1
    36   24   25 ar
    37   24   45 1
    38   25   26 ar
    39   25   31 ar
    40   26   27 2
    41   26   28 ar
    42   27   42 1
    43   28   29 ar
    44   28   44 1
    45   29   30 ar
    46   29   43 1
    47   30   31 ar
@<TRIPOS>SUBSTRUCTURE
     1 ATP         1 GROUP 0 A     ****
@<TRIPOS>MOLECULE
[[[3,4-dihydroxy-5-(6-imino-7,8-dihydro-1~{H}-purin-8-ylium-9-yl)tetrahydrofuran-2-yl]methoxy-oxido-phosphoryl]oxy-oxido-phosphoryl] hydrogen phosphate
   45    47     1     0     0
SMALL
USER_CHARGES

@<TRIPOS>ATOM
      1 PG          4.1124   -0.5691   -8.2966 P.3       1 ATP         1.5631
      2 O1G         5.4186    0.1850   -8.4090 O.co2     1 ATP        -0.8806
      3 O2G         2.8458   -0.0272   -8.9209 O.co2     1 ATP        -0.8806
      4 O3G         4.3452   -2.0927   -8.8355 O.3       1 ATP        -0.8165
      5 PB          4.7775   -1.6435   -5.6233 P.3       1 ATP         1.6877
      6 O1B         4.9516   -3.0909   -6.0261 O.co2     1 ATP        -0.8727
      7 O2B         5.9720   -0.7592   -5.3430 O.co2     1 ATP        -0.8727
      8 O3B         3.8261   -0.9044   -6.7252 O.3       1 ATP        -0.8330
      9 PA          3.9668   -2.1116   -2.8163 P.3       1 ATP         1.6036
     10 O1A         5.0719   -1.3107   -2.1623 O.co2     1 ATP        -0.9062
     11 O2A         4.0210   -3.6235   -2.8465 O.co2     1 ATP        -0.9062
     12 O3A         3.7633   -1.5743   -4.3459 O.3       1 ATP        -0.8166
     13 O5'         2.5245   -1.6648   -2.1878 O.3       1 ATP        -0.5510
     14 C5'         2.2816   -0.2918   -1.9206 C.3       1 ATP         0.2099
     15 C4'         2.7248    0.0226   -0.4980 C.3       1 ATP         0.0598
     16 O4'         2.4697    1.4219   -0.2462 O.3       1 ATP        -0.3455
     17 C3'         1.9404   -0.7419    0.5596 C.3       1 ATP         0.0742
     18 O3'         2.7418   -0.8086    1.7389 O.3       1 ATP        -0.6025
     19 C2'         0.7477    0.1630    0.7858 C.3       1 ATP         0.1145
     20 O2'         0.1373   -0.0577    2.0407 O.3       1 ATP        -0.5835
     21 C1'         1.3733    1.5427    0.6747 C.3       1 ATP         0.3776
     22 N9          0.4520    2.5240    0.1767 N.pl3     1 ATP        -0.4429
     23 C8          0.2216    2.8192   -1.0985 C.ar      1 ATP         0.2964
     24 N7         -0.6906    3.7763   -1.2384 N.pl3     1 ATP        -0.4957
     25 C5         -1.0575    4.1037    0.0366 C.ar      1 ATP        -0.1346
     26 C6         -2.0291    5.0943    0.5330 C.ar      1 ATP         0.7213
     27 N6         -2.7093    5.8371   -0.2800 N.2       1 ATP        -0.8215
     28 N1         -2.1051    5.1136    1.9204 N.pl3     1 ATP        -0.8455
     29 C2         -1.3354    4.2774    2.7129 C.ar      1 ATP         0.6477
     30 N3         -0.4707    3.3945    2.2944 N.2       1 ATP        -0.5707
     31 C4         -0.3734    3.3525    0.9220 C.ar      1 ATP         0.2637
     32 HOG3        3.5848   -2.7124   -8.8267 H         1 ATP         0.4378
     33 H5'1        2.8432    0.3119   -2.6398 H         1 ATP         0.0340
     34 H5'2        1.2128   -0.0927   -2.0428 H         1 ATP         0.0340
     35 H4'         3.8044   -0.1397   -0.4040 H         1 ATP         0.0910
     36 H3'         1.6764   -1.7639    0.2728 H         1 ATP         0.0656
     37 HO3'        2.2232   -1.2979    2.3953 H         1 ATP         0.4386
     38 H2'        -0.0011    0.0027    0.0003 H         1 ATP         0.0788
     39 HO2'       -0.6141    0.5574    2.1082 H         1 ATP         0.4363
     40 H1'         1.7826    1.9024    1.6451 H         1 ATP         0.1225
     41 H8          0.7125    2.3429   -1.9292 H         1 ATP         0.3824
     42 HN62       -3.3217    6.4517    0.2629 H         1 ATP         0.4018
     43 H2         -1.5188    4.4223    3.7890 H         1 ATP         0.0652
     44 H44        -2.7470    5.7626    2.3665 H         1 ATP         0.4503
     45 H45        -1.0305    4.1680   -2.1054 H         1 ATP         0.5209
@<TRIPOS>BOND
     1    1    2 2
     2    1    3 1
     3    1    4 1
     4    1    8 1
     5    4   32 1
     6    5    6 2
     7    5    7 1
     8    5    8 1
     9    5   12 1
    10    9   10 2
    11    9   11 1
    12    9   12 1
    13    9   13 1
    14   13   14 1
    15   14   15 1
    16   14   33 1
    17   14   34 1
    18   15   16 1
    19   15   17 1
    20   15   35 1
    21   16   21 1
    22   17   18 1
    23   17   19 1
    24   17   36 1
    25   18   37 1
    26   19   20 1
    27   19   21 1
    28   19   38 1
    29   20   39 1
    30   21   22 1
    31   21   40 1
    32   22   23 ar
    33   22   31 ar
    34   23   24 ar
    35   23   41 1
    36   24   25 ar
    37   24   45 1
    38   25   26 ar
    39   25   31 ar
    40   26   27 2
    41   26   28 ar
    42   27   42 1
    43   28   29 ar
    44   28   44 1
    45   29   30 ar
    46   29   43 1
    47   30   31 ar
@<TRIPOS>SUBSTRUCTURE
     1 ATP         1 GROUP 0 A     ****
@<TRIPOS>MOLECULE
[[[3,4-dihydroxy-5-(6-imino-7,8-dihydro-1~{H}-purin-8-ylium-9-yl)tetrahydrofuran-2-yl]methoxy-oxido-phosphoryl]oxy-oxido-phosphoryl] hydrogen phosphate
   45    47     1     0     0
SMALL
USER_CHARGES

@<TRIPOS>ATOM
      1 PG         -1.4282   -1.5625   -6.9103 P.3       1 ATP         1.5631
      2 O1G        -2.6597   -1.0521   -6.1961 O.co2     1 ATP        -0.8806
      3 O2G        -1.4503   -2.8799   -7.6530 O.co2     1 ATP        -0.8806
      4 O3G        -0.9014   -0.4013   -7.9302 O.3       1 ATP        -0.8165
      5 PB          1.4094   -1.8679   -6.1367 P.3       1 ATP         1.6877
      6 O1B         1.5655   -3.3236   -6.5163 O.co2     1 ATP        -0.8727
      7 O2B         1.9742   -0.7667   -7.0062 O.co2     1 ATP        -0.8727
      8 O3B        -0.1721   -1.5638   -5.8682 O.3       1 ATP        -0.8330
      9 PA          1.5544   -2.4558   -3.2404 P.3       1 ATP         1.6036
     10 O1A         2.0071   -3.8949   -3.3601 O.co2     1 ATP        -0.9062
     11 O2A         0.1180   -2.1225   -2.9010 O.co2     1 ATP        -0.9062
     12 O3A         1.9553   -1.6633   -4.6119 O.3       1 ATP        -0.8166
     13 O5'         2.5245   -1.6648   -2.1878 O.3       1 ATP        -0.5510
     14 C5'         2.2816   -0.2918   -1.9206 C.3       1 ATP         0.2099
     15 C4'         2.7248    0.0226   -0.4980 C.3       1 ATP         0.0598
     16 O4'         2.4697    1.4219   -0.2462 O.3       1 ATP        -0.3455
     17 C3'         1.9404   -0.7419    0.5596 C.3       1 ATP         0.0742
     18 O3'         2.7418   -0.8086    1.7389 O.3       1 ATP        -0.6025
     19 C2'         0.7477    0.1630    0.7858 C.3       1 ATP         0.1145
     20 O2'         0.1373   -0.0577    2.0407 O.3       1 ATP        -0.5835
     21 C1'         1.3733    1.5427    0.6747 C.3       1 ATP         0.3776
     22 N9          0.4520    2.5240    0.1767 N.pl3     1 ATP        -0.4429
     23 C8         -0.2004    2.4829   -0.9804 C.ar      1 ATP         0.2964
     24 N7         -0.9830    3.5431   -1.1568 N.pl3     1 ATP        -0.4957
     25 C5         -0.8095    4.3012   -0.0331 C.ar      1 ATP        -0.1346
     26 C6         -1.4065    5.5904    0.3585 C.ar      1 ATP         0.7213
     27 N6         -2.2501    6.2030   -0.4084 N.2       1 ATP        -0.8215
     28 N1         -0.9585    6.0272    1.5994 N.pl3     1 ATP        -0.8455
     29 C2         -0.0508    5.3009    2.3532 C.ar      1 ATP         0.6477
     30 N3          0.4890    4.1592    2.0257 N.2       1 ATP        -0.5707
     31 C4          0.0637    3.7006    0.7995 C.ar      1 ATP         0.2637
     32 HOG3       -0.1031   -0.5819   -8.4709 H         1 ATP         0.4378
     33 H5'1        2.8432    0.3119   -2.6398 H         1 ATP         0.0340
     34 H5'2        1.2128   -0.0927   -2.0428 H         1 ATP         0.0340
     35 H4'         3.8044   -0.1397   -0.4040 H         1 ATP         0.0910
     36 H3'         1.6764   -1.7639    0.2728 H         1 ATP         0.0656
     37 HO3'        2.2232   -1.2979    2.3953 H         1 ATP         0.4386
     38 H2'        -0.0011    0.0027    0.0003 H         1 ATP         0.0788
     39 HO2'       -0.1563   -0.9855    2.0596 H         1 ATP         0.4363
     40 H1'         1.7826    1.9024    1.6451 H         1 ATP         0.1225
     41 H8         -0.1116    1.6863   -1.6984 H         1 ATP         0.3824
     42 HN62       -2.5420    7.0730    0.0447 H         1 ATP         0.4018
     43 H2          0.1969    5.7893    3.3086 H         1 ATP         0.0652
     44 H44        -1.3097    6.9080    1.9642 H         1 ATP         0.4503
     45 H45        -1.5735    3.7351   -1.9538 H         1 ATP         0.5209
@<TRIPOS>BOND
     1    1    2 2
     2    1    3 1
     3    1    4 1
     4    1    8 1
     5    4   32 1
     6    5    6 2
     7    5    7 1
     8    5    8 1
     9    5   12 1
    10    9   10 2
    11    9   11 1
    12    9   12 1
    13    9   13 1
    14   13   14 1
    15   14   15 1
    16   14   33 1
    17   14   34 1
    18   15   16 1
    19   15   17 1
    20   15   35 1
    21   16   21 1
    22   17   18 1
    23   17   19 1
    24   17   36 1
    25   18   37 1
    26   19   20 1
    27   19   21 1
    28   19   38 1
    29   20   39 1
    30   21   22 1
    31   21   40 1
    32   22   23 ar
    33   22   31 ar
    34   23   24 ar
    35   23   41 1
    36   24   25 ar
    37   24   45 1
    38   25   26 ar
    39   25   31 ar
    40   26   27 2
    41   26   28 ar
    42   27   42 1
    43   28   29 ar
    44   28   44 1
    45   29   30 ar
    46   29   43 1
    47   30   31 ar
@<TRIPOS>SUBSTRUCTURE
     1 ATP         1 GROUP 0 A     ****
@<TRIPOS>MOLECULE
[[[3,4-dihydroxy-5-(6-imino-7,8-dihydro-1~{H}-purin-8-ylium-9-yl)tetrahydrofuran-2-yl]methoxy-oxido-phosphoryl]oxy-oxido-phosphoryl] hydrogen phosphate
   45    47     1     0     0
SMALL
USER_CHARGES

@<TRIPOS>ATOM
      1 PG         -6.4413   -6.1117    0.3873 P.3       1 ATP         1.5631
      2 O1G        -6.7391   -7.5927    0.3125 O.co2     1 ATP        -0.8806
      3 O2G        -6.9647   -5.1595   -0.6647 O.co2     1 ATP        -0.8806
      4 O3G        -6.8990   -5.5643    1.8559 O.3       1 ATP        -0.8165
      5 PB         -3.6307   -6.2158   -0.5256 P.3       1 ATP         1.6877
      6 O1B        -3.5392   -7.7124   -0.7237 O.co2     1 ATP        -0.8727
      7 O2B        -3.7673   -5.2766   -1.7032 O.co2     1 ATP        -0.8727
      8 O3B        -4.8298   -5.9009    0.5368 O.3       1 ATP        -0.8330
      9 PA         -1.8564   -6.2730    1.8416 P.3       1 ATP         1.6036
     10 O1A        -1.3787   -7.7008    1.6878 O.co2     1 ATP        -0.9062
     11 O2A        -2.8999   -5.9138    2.8769 O.co2     1 ATP        -0.9062
     12 O3A        -2.3676   -5.7306    0.3876 O.3       1 ATP        -0.8166
     13 O5'        -0.5687   -5.2869    2.0510 O.3       1 ATP        -0.5510
     14 C5'        -0.7840   -3.8935    2.2172 C.3       1 ATP         0.2099
     15 C4'        -0.0724   -3.1466    1.1027 C.3       1 ATP         0.0598
     16 O4'        -0.8674   -3.1929   -0.0945 O.3       1 ATP        -0.3455
     17 C3'         0.1338   -1.6715    1.4027 C.3       1 ATP         0.0742
     18 O3'         1.2893   -1.4445    2.1808 O.3       1 ATP        -0.6025
     19 C2'         0.2158   -1.0724    0.0128 C.3       1 ATP         0.1145
     20 O2'         1.5141   -1.2448   -0.5513 O.3       1 ATP        -0.5835
     21 C1'        -0.7897   -1.9176   -0.7583 C.3       1 ATP         0.3776
     22 N9         -2.1040   -1.3333   -0.7704 N.pl3     1 ATP        -0.4429
     23 C8         -3.0590   -1.5123    0.1363 C.ar      1 ATP         0.2964
     24 N7         -4.1655   -0.8354   -0.1554 N.pl3     1 ATP        -0.4957
     25 C5         -3.8852   -0.1874   -1.3253 C.ar      1 ATP        -0.1346
     26 C6         -4.7113    0.7160   -2.1458 C.ar      1 ATP         0.7213
     27 N6         -5.9213    1.0209   -1.8021 N.2       1 ATP        -0.8215
     28 N1         -4.0411    1.1673   -3.2764 N.pl3     1 ATP        -0.8455
     29 C2         -2.7403    0.7865   -3.5638 C.ar      1 ATP         0.6477
     30 N3         -1.9921   -0.0108   -2.8519 N.2       1 ATP        -0.5707
     31 C4         -2.6302   -0.4747   -1.7239 C.ar      1 ATP         0.2637
     32 HOG3       -6.7697   -4.6137    2.0610 H         1 ATP         0.4378
     33 H5'1       -1.8598   -3.6968    2.1850 H         1 ATP         0.0340
     34 H5'2       -0.3933   -3.5903    3.1931 H         1 ATP         0.0340
     35 H4'         0.8874   -3.6466    0.8805 H         1 ATP         0.0910
     36 H3'        -0.7376   -1.2333    1.9867 H         1 ATP         0.0656
     37 HO3'        1.1626   -1.9325    3.0084 H         1 ATP         0.4386
     38 H2'        -0.0384   -0.0310    0.0096 H         1 ATP         0.0788
     39 HO2'        2.1463   -0.7958    0.0370 H         1 ATP         0.4363
     40 H1'        -0.4769   -2.1002   -1.8093 H         1 ATP         0.1225
     41 H8         -2.9569   -2.1323    1.0098 H         1 ATP         0.3824
     42 HN62       -6.3169    1.6552   -2.5012 H         1 ATP         0.4018
     43 H2         -2.3612    1.2343   -4.4957 H         1 ATP         0.0652
     44 H44        -4.5223    1.7976   -3.9117 H         1 ATP         0.4503
     45 H45        -5.0218   -0.8132    0.3804 H         1 ATP         0.5209
@<TRIPOS>BOND
     1    1    2 2
     2    1    3 1
     3    1    4 1
     4    1    8 1
     5    4   32 1
     6    5    6 2
     7    5    7 1
     8    5    8 1
     9    5   12 1
    10    9   10 2
    11    9   11 1
    12    9   12 1
    13    9   13 1
    14   13   14 1
    15   14   15 1
    16   14   33 1
    17   14   34 1
    18   15   16 1
    19   15   17 1
    20   15   35 1
    21   16   21 1
    22   17   18 1
    23   17   19 1
    24   17   36 1
    25   18   37 1
    26   19   20 1
    27   19   21 1
    28   19   38 1
    29   20   39 1
    30   21   22 1
    31   21   40 1
    32   22   23 ar
    33   22   31 ar
    34   23   24 ar
    35   23   41 1
    36   24   25 ar
    37   24   45 1
    38   25   26 ar
    39   25   31 ar
    40   26   27 2
    41   26   28 ar
    42   27   42 1
    43   28   29 ar
    44   28   44 1
    45   29   30 ar
    46   29   43 1
    47   30   31 ar
@<TRIPOS>SUBSTRUCTURE
     1 ATP         1 GROUP 0 A     ****
@<TRIPOS>MOLECULE
[[[3,4-dihydroxy-5-(6-imino-7,8-dihydro-1~{H}-purin-8-ylium-9-yl)tetrahydrofuran-2-yl]methoxy-oxido-phosphoryl]oxy-oxido-phosphoryl] hydrogen phosphate
   45    47     1     0     0
SMALL
USER_CHARGES

@<TRIPOS>ATOM
      1 PG         -2.4904   -1.1322   -2.9877 P.3       1 ATP         1.5631
      2 O1G        -2.9251   -0.2039   -4.0998 O.co2     1 ATP        -0.8806
      3 O2G        -1.5114   -0.6732   -1.9301 O.co2     1 ATP        -0.8806
      4 O3G        -3.8239   -1.7105   -2.2438 O.3       1 ATP        -0.8165
      5 PB         -0.6289   -2.8068   -4.5607 P.3       1 ATP         1.6877
      6 O1B        -0.4885   -4.2988   -4.7648 O.co2     1 ATP        -0.8727
      7 O2B        -0.6446   -1.8535   -5.7348 O.co2     1 ATP        -0.8727
      8 O3B        -1.9483   -2.5262   -3.6410 O.3       1 ATP        -0.8330
      9 PA          2.1372   -2.2718   -3.6563 P.3       1 ATP         1.6036
     10 O1A         2.4977   -1.2667   -4.7287 O.co2     1 ATP        -0.9062
     11 O2A         2.6452   -3.6953   -3.7281 O.co2     1 ATP        -0.9062
     12 O3A         0.5112   -2.3140   -3.5013 O.3       1 ATP        -0.8166
     13 O5'         2.5245   -1.6648   -2.1878 O.3       1 ATP        -0.5510
     14 C5'         2.2816   -0.2918   -1.9206 C.3       1 ATP         0.2099
     15 C4'         2.7248    0.0226   -0.4980 C.3       1 ATP         0.0598
     16 O4'         2.4697    1.4219   -0.2462 O.3       1 ATP        -0.3455
     17 C3'         1.9404   -0.7419    0.5596 C.3       1 ATP         0.0742
     18 O3'         2.7418   -0.8086    1.7389 O.3       1 ATP        -0.6025
     19 C2'         0.7477    0.1630    0.7858 C.3       1 ATP         0.1145
     20 O2'         0.1373   -0.0577    2.0407 O.3       1 ATP        -0.5835
     21 C1'         1.3733    1.5427    0.6747 C.3       1 ATP         0.3776
     22 N9          0.4520    2.5240    0.1767 N.pl3     1 ATP        -0.4429
     23 C8         -0.3347    3.3121    0.9021 C.ar      1 ATP         0.2964
     24 N7         -1.0768    4.1172    0.1479 N.pl3     1 ATP        -0.4957
     25 C5         -0.7318    3.8130   -1.1389 C.ar      1 ATP        -0.1346
     26 C6         -1.2094    4.3661   -2.4187 C.ar      1 ATP         0.7213
     27 N6         -2.1040    5.3007   -2.4569 N.2       1 ATP        -0.8215
     28 N1         -0.5949    3.7732   -3.5151 N.pl3     1 ATP        -0.8455
     29 C2          0.3569    2.7758   -3.3770 C.ar      1 ATP         0.6477
     30 N3          0.7934    2.2726   -2.2552 N.2       1 ATP        -0.5707
     31 C4          0.2019    2.8412   -1.1500 C.ar      1 ATP         0.2637
     32 HOG3       -3.7076   -2.3320   -1.4938 H         1 ATP         0.4378
     33 H5'1        2.8432    0.3119   -2.6398 H         1 ATP         0.0340
     34 H5'2        1.2128   -0.0927   -2.0428 H         1 ATP         0.0340
     35 H4'         3.8044   -0.1397   -0.4040 H         1 ATP         0.0910
     36 H3'         1.6764   -1.7639    0.2728 H         1 ATP         0.0656
     37 HO3'        2.2232   -1.2979    2.3953 H         1 ATP         0.4386
     38 H2'        -0.0011    0.0027    0.0003 H         1 ATP         0.0788
     39 HO2'       -0.6141    0.5574    2.1082 H         1 ATP         0.4363
     40 H1'         1.7826    1.9024    1.6451 H         1 ATP         0.1225
     41 H8         -0.3729    3.3063    1.9775 H         1 ATP         0.3824
     42 HN62       -2.2940    5.5408   -3.4335 H         1 ATP         0.4018
     43 H2          0.7413    2.4168   -4.3445 H         1 ATP         0.0652
     44 H44        -0.8531    4.0829   -4.4476 H         1 ATP         0.4503
     45 H45        -1.7471    4.8016    0.4689 H         1 ATP         0.5209
@<TRIPOS>BOND
     1    1    2 2
     2    1    3 1
     3    1    4 1
     4    1    8 1
     5    4   32 1
     6    5    6 2
     7    5    7 1
     8    5    8 1
     9    5   12 1
    10    9   10 2
    11    9   11 1
    12    9   12 1
    13    9   13 1
    14   13   14 1
    15   14   15 1
    16   14   33 1
    17   14   34 1
    18   15   16 1
    19   15   17 1
    20   15   35 1
    21   16   21 1
    22   17   18 1
    23   17   19 1
    24   17   36 1
    25   18   37 1
    26   19   20 1
    27   19   21 1
    28   19   38 1
    29   20   39 1
    30   21   22 1
    31   21   40 1
    32   22   23 ar
    33   22   31 ar
    34   23   24 ar
    35   23   41 1
    36   24   25 ar
    37   24   45 1
    38   25   26 ar
    39   25   31 ar
    40   26   27 2
    41   26   28 ar
    42   27   42 1
    43   28   29 ar
    44   28   44 1
    45   29   30 ar
    46   29   43 1
    47   30   31 ar
@<TRIPOS>SUBSTRUCTURE
     1 ATP         1 GROUP 0 A     ****
@<TRIPOS>MOLECULE
[[[3,4-dihydroxy-5-(6-imino-7,8-dihydro-1~{H}-purin-8-ylium-9-yl)tetrahydrofuran-2-yl]methoxy-oxido-phosphoryl]oxy-oxido-phosphoryl] hydrogen phosphate
   45    47     1     0     0
SMALL
USER_CHARGES

@<TRIPOS>ATOM
      1 PG          1.3311   -2.8902   -7.6703 P.3       1 ATP         1.5631
      2 O1G         1.6246   -4.3703   -7.5685 O.co2     1 ATP        -0.8806
      3 O2G         1.6192   -2.1264   -8.9436 O.co2     1 ATP        -0.8806
      4 O3G        -0.2291   -2.6412   -7.2583 O.3       1 ATP        -0.8165
      5 PB          3.6265   -1.9107   -6.0843 P.3       1 ATP         1.6877
      6 O1B         4.2358   -3.2566   -5.7605 O.co2     1 ATP        -0.8727
      7 O2B         4.2302   -1.0109   -7.1395 O.co2     1 ATP        -0.8727
      8 O3B         2.0423   -2.1203   -6.4192 O.3       1 ATP        -0.8330
      9 PA          2.7407    0.3769   -4.4297 P.3       1 ATP         1.6036
     10 O1A         1.2546    0.2227   -4.6707 O.co2     1 ATP        -0.9062
     11 O2A         3.5325    1.4517   -5.1421 O.co2     1 ATP        -0.9062
     12 O3A         3.4685   -1.0610   -4.6995 O.3       1 ATP        -0.8166
     13 O5'         3.0213    0.5153   -2.8245 O.3       1 ATP        -0.5510
     14 C5'         2.2816   -0.2918   -1.9206 C.3       1 ATP         0.2099
     15 C4'         2.7248    0.0226   -0.4980 C.3       1 ATP         0.0598
     16 O4'         2.4697    1.4219   -0.2462 O.3       1 ATP        -0.3455
     17 C3'         1.9404   -0.7419    0.5596 C.3       1 ATP         0.0742
     18 O3'         2.7418   -0.8086    1.7389 O.3       1 ATP        -0.6025
     19 C2'         0.7477    0.1630    0.7858 C.3       1 ATP         0.1145
     20 O2'         0.1373   -0.0577    2.0407 O.3       1 ATP        -0.5835
     21 C1'         1.3733    1.5427    0.6747 C.3       1 ATP         0.3776
     22 N9          0.4520    2.5240    0.1767 N.pl3     1 ATP        -0.4429
     23 C8         -0.6821    2.9098    0.7521 C.ar      1 ATP         0.2964
     24 N7         -1.3175    3.8384    0.0437 N.pl3     1 ATP        -0.4957
     25 C5         -0.5274    4.0494   -1.0512 C.ar      1 ATP        -0.1346
     26 C6         -0.6966    4.9597   -2.1977 C.ar      1 ATP         0.7213
     27 N6         -1.7259    5.7385   -2.2937 N.2       1 ATP        -0.8215
     28 N1          0.3493    4.8663   -3.1079 N.pl3     1 ATP        -0.8455
     29 C2          1.4148    4.0005   -2.9208 C.ar      1 ATP         0.6477
     30 N3          1.5838    3.1876   -1.9144 N.2       1 ATP        -0.5707
     31 C4          0.5619    3.2578   -0.9949 C.ar      1 ATP         0.2637
     32 HOG3       -0.5757   -1.7237   -7.2746 H         1 ATP         0.4378
     33 H5'1        1.2163   -0.0770   -2.0471 H         1 ATP         0.0340
     34 H5'2        2.4655   -1.3443   -2.1563 H         1 ATP         0.0340
     35 H4'         3.8044   -0.1397   -0.4040 H         1 ATP         0.0910
     36 H3'         1.6764   -1.7639    0.2728 H         1 ATP         0.0656
     37 HO3'        2.2232   -1.2979    2.3953 H         1 ATP         0.4386
     38 H2'        -0.0011    0.0027    0.0003 H         1 ATP         0.0788
     39 HO2'       -0.1563   -0.9855    2.0596 H         1 ATP         0.4363
     40 H1'         1.7826    1.9024    1.6451 H         1 ATP         0.1225
     41 H8         -1.0516    2.5207    1.6849 H         1 ATP         0.3824
     42 HN62       -1.6520    6.2842   -3.1564 H         1 ATP         0.4018
     43 H2          2.1542    4.0525   -3.7351 H         1 ATP         0.0652
     44 H44         0.3306    5.4533   -3.9370 H         1 ATP         0.4503
     45 H45        -2.1941    4.2838    0.2756 H         1 ATP         0.5209
@<TRIPOS>BOND
     1    1    2 2
     2    1    3 1
     3    1    4 1
     4    1    8 1
     5    4   32 1
     6    5    6 2
     7    5    7 1
     8    5    8 1
     9    5   12 1
    10    9   10 2
    11    9   11 1
    12    9   12 1
    13    9   13 1
    14   13   14 1
    15   14   15 1
    16   14   33 1
    17   14   34 1
    18   15   16 1
    19   15   17 1
    20   15   35 1
    21   16   21 1
    22   17   18 1
    23   17   19 1
    24   17   36 1
    25   18   37 1
    26   19   20 1
    27   19   21 1
    28   19   38 1
    29   20   39 1
    30   21   22 1
    31   21   40 1
    32   22   23 ar
    33   22   31 ar
    34   23   24 ar
    35   23   41 1
    36   24   25 ar
    37   24   45 1
    38   25   26 ar
    39   25   31 ar
    40   26   27 2
    41   26   28 ar
    42   27   42 1
    43   28   29 ar
    44   28   44 1
    45   29   30 ar
    46   29   43 1
    47   30   31 ar
@<TRIPOS>SUBSTRUCTURE
     1 ATP         1 GROUP 0 A     ****
@<TRIPOS>MOLECULE
[[[3,4-dihydroxy-5-(6-imino-7,8-dihydro-1~{H}-purin-8-ylium-9-yl)tetrahydrofuran-2-yl]methoxy-oxido-phosphoryl]oxy-oxido-phosphoryl] hydrogen phosphate
   45    47     1     0     0
SMALL
USER_CHARGES

@<TRIPOS>ATOM
      1 PG         -0.8569  -10.3235    5.3035 P.3       1 ATP         1.5631
      2 O1G        -2.0981  -10.3696    6.1665 O.co2     1 ATP        -0.8806
      3 O2G         0.4952  -10.7026    5.8656 O.co2     1 ATP        -0.8806
      4 O3G        -1.1266  -11.2102    3.9592 O.3       1 ATP        -0.8165
      5 PB         -0.4800   -7.3907    5.2900 P.3       1 ATP         1.6877
      6 O1B        -1.6717   -7.0311    6.1491 O.co2     1 ATP        -0.8727
      7 O2B         0.9250   -7.3663    5.8495 O.co2     1 ATP        -0.8727
      8 O3B        -0.7470   -8.8505    4.6093 O.3       1 ATP        -0.8330
      9 PA         -1.7207   -6.2770    2.8455 P.3       1 ATP         1.6036
     10 O1A        -2.8745   -5.5693    3.5224 O.co2     1 ATP        -0.9062
     11 O2A        -1.9354   -7.5877    2.1206 O.co2     1 ATP        -0.9062
     12 O3A        -0.5195   -6.4829    3.9339 O.3       1 ATP        -0.8166
     13 O5'        -0.9724   -5.2440    1.8220 O.3       1 ATP        -0.5510
     14 C5'        -0.7840   -3.8935    2.2172 C.3       1 ATP         0.2099
     15 C4'        -0.0724   -3.1466    1.1027 C.3       1 ATP         0.0598
     16 O4'        -0.8674   -3.1929   -0.0945 O.3       1 ATP        -0.3455
     17 C3'         0.1338   -1.6715    1.4027 C.3       1 ATP         0.0742
     18 O3'         1.2893   -1.4445    2.1808 O.3       1 ATP        -0.6025
     19 C2'         0.2158   -1.0724    0.0128 C.3       1 ATP         0.1145
     20 O2'         1.5141   -1.2448   -0.5513 O.3       1 ATP        -0.5835
     21 C1'        -0.7897   -1.9176   -0.7583 C.3       1 ATP         0.3776
     22 N9         -2.1040   -1.3333   -0.7704 N.pl3     1 ATP        -0.4429
     23 C8         -3.0590   -1.5123    0.1363 C.ar      1 ATP         0.2964
     24 N7         -4.1655   -0.8354   -0.1554 N.pl3     1 ATP        -0.4957
     25 C5         -3.8852   -0.1874   -1.3253 C.ar      1 ATP        -0.1346
     26 C6         -4.7113    0.7160   -2.1458 C.ar      1 ATP         0.7213
     27 N6         -5.9213    1.0209   -1.8021 N.2       1 ATP        -0.8215
     28 N1         -4.0411    1.1673   -3.2764 N.pl3     1 ATP        -0.8455
     29 C2         -2.7403    0.7865   -3.5638 C.ar      1 ATP         0.6477
     30 N3         -1.9921   -0.0108   -2.8519 N.2       1 ATP        -0.5707
     31 C4         -2.6302   -0.4747   -1.7239 C.ar      1 ATP         0.2637
     32 HOG3       -0.4093  -11.2791    3.2936 H         1 ATP         0.4378
     33 H5'1       -1.7618   -3.4448    2.4164 H         1 ATP         0.0340
     34 H5'2       -0.1874   -3.8744    3.1341 H         1 ATP         0.0340
     35 H4'         0.8874   -3.6466    0.8805 H         1 ATP         0.0910
     36 H3'        -0.7376   -1.2333    1.9867 H         1 ATP         0.0656
     37 HO3'        1.3408   -0.4870    2.3219 H         1 ATP         0.4386
     38 H2'        -0.0384   -0.0310    0.0096 H         1 ATP         0.0788
     39 HO2'        2.1463   -0.7958    0.0370 H         1 ATP         0.4363
     40 H1'        -0.4769   -2.1002   -1.8093 H         1 ATP         0.1225
     41 H8         -2.9569   -2.1323    1.0098 H         1 ATP         0.3824
     42 HN62       -6.3169    1.6552   -2.5012 H         1 ATP         0.4018
     43 H2         -2.3612    1.2343   -4.4957 H         1 ATP         0.0652
     44 H44        -4.5223    1.7976   -3.9117 H         1 ATP         0.4503
     45 H45        -5.0218   -0.8132    0.3804 H         1 ATP         0.5209
@<TRIPOS>BOND
     1    1    2 2
     2    1    3 1
     3    1    4 1
     4    1    8 1
     5    4   32 1
     6    5    6 2
     7    5    7 1
     8    5    8 1
     9    5   12 1
    10    9   10 2
    11    9   11 1
    12    9   12 1
    13    9   13 1
    14   13   14 1
    15   14   15 1
    16   14   33 1
    17   14   34 1
    18   15   16 1
    19   15   17 1
    20   15   35 1
    21   16   21 1
    22   17   18 1
    23   17   19 1
    24   17   36 1
    25   18   37 1
    26   19   20 1
    27   19   21 1
    28   19   38 1
    29   20   39 1
    30   21   22 1
    31   21   40 1
    32   22   23 ar
    33   22   31 ar
    34   23   24 ar
    35   23   41 1
    36   24   25 ar
    37   24   45 1
    38   25   26 ar
    39   25   31 ar
    40   26   27 2
    41   26   28 ar
    42   27   42 1
    43   28   29 ar
    44   28   44 1
    45   29   30 ar
    46   29   43 1
    47   30   31 ar
@<TRIPOS>SUBSTRUCTURE
     1 ATP         1 GROUP 0 A     ****
@<TRIPOS>MOLECULE
[[[3,4-dihydroxy-5-(6-imino-7,8-dihydro-1~{H}-purin-8-ylium-9-yl)tetrahydrofuran-2-yl]methoxy-oxido-phosphoryl]oxy-oxido-phosphoryl] hydrogen phosphate
   45    47     1     0     0
SMALL
USER_CHARGES

@<TRIPOS>ATOM
      1 PG          0.9287   -7.6190    6.6323 P.3       1 ATP         1.5631
      2 O1G         1.1462   -9.1142    6.5646 O.co2     1 ATP        -0.8806
      3 O2G        -0.4403   -7.0450    6.9221 O.co2     1 ATP        -0.8806
      4 O3G         1.9918   -6.9881    7.6990 O.3       1 ATP        -0.8165
      5 PB          0.9908   -7.0673    3.7279 P.3       1 ATP         1.6877
      6 O1B         1.7721   -6.0993    2.8677 O.co2     1 ATP        -0.8727
      7 O2B         0.8990   -8.5342    3.3712 O.co2     1 ATP        -0.8727
      8 O3B         1.5114   -6.9352    5.2697 O.3       1 ATP        -0.8330
      9 PA         -1.7207   -6.2770    2.8455 P.3       1 ATP         1.6036
     10 O1A        -2.8745   -5.5693    3.5224 O.co2     1 ATP        -0.9062
     11 O2A        -1.9354   -7.5877    2.1206 O.co2     1 ATP        -0.9062
     12 O3A        -0.5195   -6.4829    3.9339 O.3       1 ATP        -0.8166
     13 O5'        -0.9724   -5.2440    1.8220 O.3       1 ATP        -0.5510
     14 C5'        -0.7840   -3.8935    2.2172 C.3       1 ATP         0.2099
     15 C4'        -0.0724   -3.1466    1.1027 C.3       1 ATP         0.0598
     16 O4'        -0.8674   -3.1929   -0.0945 O.3       1 ATP        -0.3455
     17 C3'         0.1338   -1.6715    1.4027 C.3       1 ATP         0.0742
     18 O3'         1.2893   -1.4445    2.1808 O.3       1 ATP        -0.6025
     19 C2'         0.2158   -1.0724    0.0128 C.3       1 ATP         0.1145
     20 O2'         1.5141   -1.2448   -0.5513 O.3       1 ATP        -0.5835
     21 C1'        -0.7897   -1.9176   -0.7583 C.3       1 ATP         0.3776
     22 N9         -2.1040   -1.3333   -0.7704 N.pl3     1 ATP        -0.4429
     23 C8         -3.0590   -1.5123    0.1363 C.ar      1 ATP         0.2964
     24 N7         -4.1655   -0.8354   -0.1554 N.pl3     1 ATP        -0.4957
     25 C5         -3.8852   -0.1874   -1.3253 C.ar      1 ATP        -0.1346
     26 C6         -4.7113    0.7160   -2.1458 C.ar      1 ATP         0.7213
     27 N6         -5.9213    1.0209   -1.8021 N.2       1 ATP        -0.8215
     28 N1         -4.0411    1.1673   -3.2764 N.pl3     1 ATP        -0.8455
     29 C2         -2.7403    0.7865   -3.5638 C.ar      1 ATP         0.6477
     30 N3         -1.9921   -0.0108   -2.8519 N.2       1 ATP        -0.5707
     31 C4         -2.6302   -0.4747   -1.7239 C.ar      1 ATP         0.2637
     32 HOG3        1.9768   -6.0199    7.8560 H         1 ATP         0.4378
     33 H5'1       -1.7618   -3.4448    2.4164 H         1 ATP         0.0340
     34 H5'2       -0.1874   -3.8744    3.1341 H         1 ATP         0.0340
     35 H4'         0.8874   -3.6466    0.8805 H         1 ATP         0.0910
     36 H3'        -0.7376   -1.2333    1.9867 H         1 ATP         0.0656
     37 HO3'        1.3408   -0.4870    2.3219 H         1 ATP         0.4386
     38 H2'        -0.0384   -0.0310    0.0096 H         1 ATP         0.0788
     39 HO2'        1.4998   -0.8412   -1.4369 H         1 ATP         0.4363
     40 H1'        -0.4769   -2.1002   -1.8093 H         1 ATP         0.1225
     41 H8         -2.9569   -2.1323    1.0098 H         1 ATP         0.3824
     42 HN62       -6.3169    1.6552   -2.5012 H         1 ATP         0.4018
     43 H2         -2.3612    1.2343   -4.4957 H         1 ATP         0.0652
     44 H44        -4.5223    1.7976   -3.9117 H         1 ATP         0.4503
     45 H45        -5.0218   -0.8132    0.3804 H         1 ATP         0.5209
@<TRIPOS>BOND
     1    1    2 2
     2    1    3 1
     3    1    4 1
     4    1    8 1
     5    4   32 1
     6    5    6 2
     7    5    7 1
     8    5    8 1
     9    5   12 1
    10    9   10 2
    11    9   11 1
    12    9   12 1
    13    9   13 1
    14   13   14 1
    15   14   15 1
    16   14   33 1
    17   14   34 1
    18   15   16 1
    19   15   17 1
    20   15   35 1
    21   16   21 1
    22   17   18 1
    23   17   19 1
    24   17   36 1
    25   18   37 1
    26   19   20 1
    27   19   21 1
    28   19   38 1
    29   20   39 1
    30   21   22 1
    31   21   40 1
    32   22   23 ar
    33   22   31 ar
    34   23   24 ar
    35   23   41 1
    36   24   25 ar
    37   24   45 1
    38   25   26 ar
    39   25   31 ar
    40   26   27 2
    41   26   28 ar
    42   27   42 1
    43   28   29 ar
    44   28   44 1
    45   29   30 ar
    46   29   43 1
    47   30   31 ar
@<TRIPOS>SUBSTRUCTURE
     1 ATP         1 GROUP 0 A     ****
@<TRIPOS>MOLECULE
[[[3,4-dihydroxy-5-(6-imino-7,8-dihydro-1~{H}-purin-8-ylium-9-yl)tetrahydrofuran-2-yl]methoxy-oxido-phosphoryl]oxy-oxido-phosphoryl] hydrogen phosphate
   45    47     1     0     0
SMALL
USER_CHARGES

@<TRIPOS>ATOM
      1 PG         -1.5525    0.0335   -6.9213 P.3       1 ATP         1.5631
      2 O1G        -2.2393   -1.3125   -6.9852 O.co2     1 ATP        -0.8806
      3 O2G        -1.1724    0.7728   -8.1849 O.co2     1 ATP        -0.8806
      4 O3G        -2.4484    1.0292   -5.9877 O.3       1 ATP        -0.8165
      5 PB          1.1473   -0.9224   -6.1859 P.3       1 ATP         1.6877
      6 O1B         0.8326   -2.4012   -6.1450 O.co2     1 ATP        -0.8727
      7 O2B         1.8994   -0.3135   -7.3483 O.co2     1 ATP        -0.8727
      8 O3B        -0.2371   -0.0863   -5.9626 O.3       1 ATP        -0.8330
      9 PA          2.3336    0.9636   -4.2390 P.3       1 ATP         1.6036
     10 O1A         1.0795    1.7631   -3.9591 O.co2     1 ATP        -0.9062
     11 O2A         3.4185    1.5158   -5.1377 O.co2     1 ATP        -0.9062
     12 O3A         1.9032   -0.5097   -4.7991 O.3       1 ATP        -0.8166
     13 O5'         3.0213    0.5153   -2.8245 O.3       1 ATP        -0.5510
     14 C5'         2.2816   -0.2918   -1.9206 C.3       1 ATP         0.2099
     15 C4'         2.7248    0.0226   -0.4980 C.3       1 ATP         0.0598
     16 O4'         2.4697    1.4219   -0.2462 O.3       1 ATP        -0.3455
     17 C3'         1.9404   -0.7419    0.5596 C.3       1 ATP         0.0742
     18 O3'         2.7418   -0.8086    1.7389 O.3       1 ATP        -0.6025
     19 C2'         0.7477    0.1630    0.7858 C.3       1 ATP         0.1145
     20 O2'         0.1373   -0.0577    2.0407 O.3       1 ATP        -0.5835
     21 C1'         1.3733    1.5427    0.6747 C.3       1 ATP         0.3776
     22 N9          0.4520    2.5240    0.1767 N.pl3     1 ATP        -0.4429
     23 C8         -0.8620    2.5492    0.3743 C.ar      1 ATP         0.2964
     24 N7         -1.4419    3.5886   -0.2183 N.pl3     1 ATP        -0.4957
     25 C5         -0.4215    4.2614   -0.8294 C.ar      1 ATP        -0.1346
     26 C6         -0.4310    5.4918   -1.6405 C.ar      1 ATP         0.7213
     27 N6         -1.5302    6.1308   -1.8826 N.2       1 ATP        -0.8215
     28 N1          0.8382    5.8461   -2.0817 N.pl3     1 ATP        -0.8455
     29 C2          1.9625    5.0982   -1.7709 C.ar      1 ATP         0.6477
     30 N3          1.9930    4.0077   -1.0554 N.2       1 ATP        -0.5707
     31 C4          0.7483    3.6314   -0.6038 C.ar      1 ATP         0.2637
     32 HOG3       -2.1328    1.9474   -5.8476 H         1 ATP         0.4378
     33 H5'1        1.2163   -0.0770   -2.0471 H         1 ATP         0.0340
     34 H5'2        2.4655   -1.3443   -2.1563 H         1 ATP         0.0340
     35 H4'         3.8044   -0.1397   -0.4040 H         1 ATP         0.0910
     36 H3'         1.6764   -1.7639    0.2728 H         1 ATP         0.0656
     37 HO3'        2.2232   -1.2979    2.3953 H         1 ATP         0.4386
     38 H2'        -0.0011    0.0027    0.0003 H         1 ATP         0.0788
     39 HO2'       -0.1563   -0.9855    2.0596 H         1 ATP         0.4363
     40 H1'         1.7826    1.9024    1.6451 H         1 ATP         0.1225
     41 H8         -1.4030    1.8165    0.9473 H         1 ATP         0.3824
     42 HN62       -1.3197    6.9504   -2.4583 H         1 ATP         0.4018
     43 H2          2.8857    5.5186   -2.1994 H         1 ATP         0.0652
     44 H44         0.9433    6.6815   -2.6502 H         1 ATP         0.4503
     45 H45        -2.4254    3.8199   -0.2108 H         1 ATP         0.5209
@<TRIPOS>BOND
     1    1    2 2
     2    1    3 1
     3    1    4 1
     4    1    8 1
     5    4   32 1
     6    5    6 2
     7    5    7 1
     8    5    8 1
     9    5   12 1
    10    9   10 2
    11    9   11 1
    12    9   12 1
    13    9   13 1
    14   13   14 1
    15   14   15 1
    16   14   33 1
    17   14   34 1
    18   15   16 1
    19   15   17 1
    20   15   35 1
    21   16   21 1
    22   17   18 1
    23   17   19 1
    24   17   36 1
    25   18   37 1
    26   19   20 1
    27   19   21 1
    28   19   38 1
    29   20   39 1
    30   21   22 1
    31   21   40 1
    32   22   23 ar
    33   22   31 ar
    34   23   24 ar
    35   23   41 1
    36   24   25 ar
    37   24   45 1
    38   25   26 ar
    39   25   31 ar
    40   26   27 2
    41   26   28 ar
    42   27   42 1
    43   28   29 ar
    44   28   44 1
    45   29   30 ar
    46   29   43 1
    47   30   31 ar
@<TRIPOS>SUBSTRUCTURE
     1 ATP         1 GROUP 0 A     ****
@<TRIPOS>MOLECULE
[[[3,4-dihydroxy-5-(6-imino-7,8-dihydro-1~{H}-purin-8-ylium-9-yl)tetrahydrofuran-2-yl]methoxy-oxido-phosphoryl]oxy-oxido-phosphoryl] hydrogen phosphate
   45    47     1     0     0
SMALL
USER_CHARGES

@<TRIPOS>ATOM
      1 PG          1.2531   -4.3165    6.7214 P.3       1 ATP         1.5631
      2 O1G         0.2763   -3.8141    7.7611 O.co2     1 ATP        -0.8806
      3 O2G         1.3530   -3.6549    5.3650 O.co2     1 ATP        -0.8806
      4 O3G         2.7430   -4.3604    7.3879 O.3       1 ATP        -0.8165
      5 PB         -0.2456   -6.7247    5.8859 P.3       1 ATP         1.6877
      6 O1B         0.1182   -8.1875    5.7620 O.co2     1 ATP        -0.8727
      7 O2B        -1.4991   -6.2880    6.6109 O.co2     1 ATP        -0.8727
      8 O3B         1.0289   -5.9197    6.5128 O.3       1 ATP        -0.8330
      9 PA         -1.2302   -6.3291    3.1238 P.3       1 ATP         1.6036
     10 O1A        -2.6254   -5.8657    3.4829 O.co2     1 ATP        -0.9062
     11 O2A        -0.9870   -7.7372    2.6259 O.co2     1 ATP        -0.9062
     12 O3A        -0.2423   -6.0566    4.3965 O.3       1 ATP        -0.8166
     13 O5'        -0.5687   -5.2869    2.0510 O.3       1 ATP        -0.5510
     14 C5'        -0.7840   -3.8935    2.2172 C.3       1 ATP         0.2099
     15 C4'        -0.0724   -3.1466    1.1027 C.3       1 ATP         0.0598
     16 O4'        -0.8674   -3.1929   -0.0945 O.3       1 ATP        -0.3455
     17 C3'         0.1338   -1.6715    1.4027 C.3       1 ATP         0.0742
     18 O3'         1.2893   -1.4445    2.1808 O.3       1 ATP        -0.6025
     19 C2'         0.2158   -1.0724    0.0128 C.3       1 ATP         0.1145
     20 O2'         1.5141   -1.2448   -0.5513 O.3       1 ATP        -0.5835
     21 C1'        -0.7897   -1.9176   -0.7583 C.3       1 ATP         0.3776
     22 N9         -2.1040   -1.3333   -0.7704 N.pl3     1 ATP        -0.4429
     23 C8         -3.0590   -1.5123    0.1363 C.ar      1 ATP         0.2964
     24 N7         -4.1655   -0.8354   -0.1554 N.pl3     1 ATP        -0.4957
     25 C5         -3.8852   -0.1874   -1.3253 C.ar      1 ATP        -0.1346
     26 C6         -4.7113    0.7160   -2.1458 C.ar      1 ATP         0.7213
     27 N6         -5.9213    1.0209   -1.8021 N.2       1 ATP        -0.8215
     28 N1         -4.0411    1.1673   -3.2764 N.pl3     1 ATP        -0.8455
     29 C2         -2.7403    0.7865   -3.5638 C.ar      1 ATP         0.6477
     30 N3         -1.9921   -0.0108   -2.8519 N.2       1 ATP        -0.5707
     31 C4         -2.6302   -0.4747   -1.7239 C.ar      1 ATP         0.2637
     32 HOG3        3.4929   -4.6674    6.8350 H         1 ATP         0.4378
     33 H5'1       -1.8598   -3.6968    2.1850 H         1 ATP         0.0340
     34 H5'2       -0.3933   -3.5903    3.1931 H         1 ATP         0.0340
     35 H4'         0.8874   -3.6466    0.8805 H         1 ATP         0.0910
     36 H3'        -0.7376   -1.2333    1.9867 H         1 ATP         0.0656
     37 HO3'        1.3408   -0.4870    2.3219 H         1 ATP         0.4386
     38 H2'        -0.0384   -0.0310    0.0096 H         1 ATP         0.0788
     39 HO2'        1.4998   -0.8412   -1.4369 H         1 ATP         0.4363
     40 H1'        -0.4769   -2.1002   -1.8093 H         1 ATP         0.1225
     41 H8         -2.9569   -2.1323    1.0098 H         1 ATP         0.3824
     42 HN62       -6.3169    1.6552   -2.5012 H         1 ATP         0.4018
     43 H2         -2.3612    1.2343   -4.4957 H         1 ATP         0.0652
     44 H44        -4.5223    1.7976   -3.9117 H         1 ATP         0.4503
     45 H45        -5.0218   -0.8132    0.3804 H         1 ATP         0.5209
@<TRIPOS>BOND
     1    1    2 2
     2    1    3 1
     3    1    4 1
     4    1    8 1
     5    4   32 1
     6    5    6 2
     7    5    7 1
     8    5    8 1
     9    5   12 1
    10    9   10 2
    11    9   11 1
    12    9   12 1
    13    9   13 1
    14   13   14 1
    15   14   15 1
    16   14   33 1
    17   14   34 1
    18   15   16 1
    19   15   17 1
    20   15   35 1
    21   16   21 1
    22   17   18 1
    23   17   19 1
    24   17   36 1
    25   18   37 1
    26   19   20 1
    27   19   21 1
    28   19   38 1
    29   20   39 1
    30   21   22 1
    31   21   40 1
    32   22   23 ar
    33   22   31 ar
    34   23   24 ar
    35   23   41 1
    36   24   25 ar
    37   24   45 1
    38   25   26 ar
    39   25   31 ar
    40   26   27 2
    41   26   28 ar
    42   27   42 1
    43   28   29 ar
    44   28   44 1
    45   29   30 ar
    46   29   43 1
    47   30   31 ar
@<TRIPOS>SUBSTRUCTURE
     1 ATP         1 GROUP 0 A     ****
@<TRIPOS>MOLECULE
[[[3,4-dihydroxy-5-(6-imino-7,8-dihydro-1~{H}-purin-8-ylium-9-yl)tetrahydrofuran-2-yl]methoxy-oxido-phosphoryl]oxy-oxido-phosphoryl] hydrogen phosphate
   45    47     1     0     0
SMALL
USER_CHARGES

@<TRIPOS>ATOM
      1 PG          0.1917   -0.3704   -7.5715 P.3       1 ATP         1.5631
      2 O1G         0.9728   -0.2477   -8.8608 O.co2     1 ATP        -0.8806
      3 O2G        -0.2992    0.8591   -6.8401 O.co2     1 ATP        -0.8806
      4 O3G        -1.0790   -1.3633   -7.8274 O.3       1 ATP        -0.8165
      5 PB          2.4557   -1.0249   -5.7856 P.3       1 ATP         1.6877
      6 O1B         2.7110   -2.1355   -4.7911 O.co2     1 ATP        -0.8727
      7 O2B         3.4846   -0.6584   -6.8318 O.co2     1 ATP        -0.8727
      8 O3B         1.0299   -1.3063   -6.5297 O.3       1 ATP        -0.8330
      9 PA          2.9232    1.2546   -3.9579 P.3       1 ATP         1.6036
     10 O1A         2.0227    2.3093   -3.3521 O.co2     1 ATP        -0.9062
     11 O2A         4.2011    1.6439   -4.6686 O.co2     1 ATP        -0.9062
     12 O3A         2.0371    0.3242   -4.9674 O.3       1 ATP        -0.8166
     13 O5'         3.2903    0.1346   -2.8241 O.3       1 ATP        -0.5510
     14 C5'         2.2816   -0.2918   -1.9206 C.3       1 ATP         0.2099
     15 C4'         2.7248    0.0226   -0.4980 C.3       1 ATP         0.0598
     16 O4'         2.4697    1.4219   -0.2462 O.3       1 ATP        -0.3455
     17 C3'         1.9404   -0.7419    0.5596 C.3       1 ATP         0.0742
     18 O3'         2.7418   -0.8086    1.7389 O.3       1 ATP        -0.6025
     19 C2'         0.7477    0.1630    0.7858 C.3       1 ATP         0.1145
     20 O2'         0.1373   -0.0577    2.0407 O.3       1 ATP        -0.5835
     21 C1'         1.3733    1.5427    0.6747 C.3       1 ATP         0.3776
     22 N9          0.4520    2.5240    0.1767 N.pl3     1 ATP        -0.4429
     23 C8         -0.2004    2.4829   -0.9804 C.ar      1 ATP         0.2964
     24 N7         -0.9830    3.5431   -1.1568 N.pl3     1 ATP        -0.4957
     25 C5         -0.8095    4.3012   -0.0331 C.ar      1 ATP        -0.1346
     26 C6         -1.4065    5.5904    0.3585 C.ar      1 ATP         0.7213
     27 N6         -2.2501    6.2030   -0.4084 N.2       1 ATP        -0.8215
     28 N1         -0.9585    6.0272    1.5994 N.pl3     1 ATP        -0.8455
     29 C2         -0.0508    5.3009    2.3532 C.ar      1 ATP         0.6477
     30 N3          0.4890    4.1592    2.0257 N.2       1 ATP        -0.5707
     31 C4          0.0637    3.7006    0.7995 C.ar      1 ATP         0.2637
     32 HOG3       -1.6873   -1.5453   -7.0797 H         1 ATP         0.4378
     33 H5'1        1.3514    0.2330   -2.1577 H         1 ATP         0.0340
     34 H5'2        2.1280   -1.3678   -2.0460 H         1 ATP         0.0340
     35 H4'         3.8044   -0.1397   -0.4040 H         1 ATP         0.0910
     36 H3'         1.6764   -1.7639    0.2728 H         1 ATP         0.0656
     37 HO3'        2.2232   -1.2979    2.3953 H         1 ATP         0.4386
     38 H2'        -0.0011    0.0027    0.0003 H         1 ATP         0.0788
     39 HO2'       -0.6141    0.5574    2.1082 H         1 ATP         0.4363
     40 H1'         1.7826    1.9024    1.6451 H         1 ATP         0.1225
     41 H8         -0.1116    1.6863   -1.6984 H         1 ATP         0.3824
     42 HN62       -2.5420    7.0730    0.0447 H         1 ATP         0.4018
     43 H2          0.1969    5.7893    3.3086 H         1 ATP         0.0652
     44 H44        -1.3097    6.9080    1.9642 H         1 ATP         0.4503
     45 H45        -1.5735    3.7351   -1.9538 H         1 ATP         0.5209
@<TRIPOS>BOND
     1    1    2 2
     2    1    3 1
     3    1    4 1
     4    1    8 1
     5    4   32 1
     6    5    6 2
     7    5    7 1
     8    5    8 1
     9    5   12 1
    10    9   10 2
    11    9   11 1
    12    9   12 1
    13    9   13 1
    14   13   14 1
    15   14   15 1
    16   14   33 1
    17   14   34 1
    18   15   16 1
    19   15   17 1
    20   15   35 1
    21   16   21 1
    22   17   18 1
    23   17   19 1
    24   17   36 1
    25   18   37 1
    26   19   20 1
    27   19   21 1
    28   19   38 1
    29   20   39 1
    30   21   22 1
    31   21   40 1
    32   22   23 ar
    33   22   31 ar
    34   23   24 ar
    35   23   41 1
    36   24   25 ar
    37   24   45 1
    38   25   26 ar
    39   25   31 ar
    40   26   27 2
    41   26   28 ar
    42   27   42 1
    43   28   29 ar
    44   28   44 1
    45   29   30 ar
    46   29   43 1
    47   30   31 ar
@<TRIPOS>SUBSTRUCTURE
     1 ATP         1 GROUP 0 A     ****
@<TRIPOS>MOLECULE
[[[3,4-dihydroxy-5-(6-imino-7,8-dihydro-1~{H}-purin-8-ylium-9-yl)tetrahydrofuran-2-yl]methoxy-oxido-phosphoryl]oxy-oxido-phosphoryl] hydrogen phosphate
   45    47     1     0     0
SMALL
USER_CHARGES

@<TRIPOS>ATOM
      1 PG          0.8869   -8.8611    3.0916 P.3       1 ATP         1.5631
      2 O1G         1.8740   -9.4573    4.0702 O.co2     1 ATP        -0.8806
      3 O2G         1.2506   -7.6506    2.2608 O.co2     1 ATP        -0.8806
      4 O3G         0.3728  -10.0426    2.0887 O.3       1 ATP        -0.8165
      5 PB         -0.8551   -7.4957    5.0524 P.3       1 ATP         1.6877
      6 O1B        -2.3463   -7.5048    5.3052 O.co2     1 ATP        -0.8727
      7 O2B         0.1320   -7.6951    6.1809 O.co2     1 ATP        -0.8727
      8 O3B        -0.5187   -8.5673    3.8674 O.3       1 ATP        -0.8330
      9 PA         -0.5250   -4.5707    4.7525 P.3       1 ATP         1.6036
     10 O1A         0.4868   -4.3780    5.8613 O.co2     1 ATP        -0.9062
     11 O2A        -1.9752   -4.1885    4.9536 O.co2     1 ATP        -0.9062
     12 O3A        -0.4680   -6.1256    4.2538 O.3       1 ATP        -0.8166
     13 O5'         0.0118   -3.8395    3.3916 O.3       1 ATP        -0.5510
     14 C5'        -0.7840   -3.8935    2.2172 C.3       1 ATP         0.2099
     15 C4'        -0.0724   -3.1466    1.1027 C.3       1 ATP         0.0598
     16 O4'        -0.8674   -3.1929   -0.0945 O.3       1 ATP        -0.3455
     17 C3'         0.1338   -1.6715    1.4027 C.3       1 ATP         0.0742
     18 O3'         1.2893   -1.4445    2.1808 O.3       1 ATP        -0.6025
     19 C2'         0.2158   -1.0724    0.0128 C.3       1 ATP         0.1145
     20 O2'         1.5141   -1.2448   -0.5513 O.3       1 ATP        -0.5835
     21 C1'        -0.7897   -1.9176   -0.7583 C.3       1 ATP         0.3776
     22 N9         -2.1040   -1.3333   -0.7704 N.pl3     1 ATP        -0.4429
     23 C8         -3.0590   -1.5123    0.1363 C.ar      1 ATP         0.2964
     24 N7         -4.1655   -0.8354   -0.1554 N.pl3     1 ATP        -0.4957
     25 C5         -3.8852   -0.1874   -1.3253 C.ar      1 ATP        -0.1346
     26 C6         -4.7113    0.7160   -2.1458 C.ar      1 ATP         0.7213
     27 N6         -5.9213    1.0209   -1.8021 N.2       1 ATP        -0.8215
     28 N1         -4.0411    1.1673   -3.2764 N.pl3     1 ATP        -0.8455
     29 C2         -2.7403    0.7865   -3.5638 C.ar      1 ATP         0.6477
     30 N3         -1.9921   -0.0108   -2.8519 N.2       1 ATP        -0.5707
     31 C4         -2.6302   -0.4747   -1.7239 C.ar      1 ATP         0.2637
     32 HOG3       -0.2770   -9.8127    1.3908 H         1 ATP         0.4378
     33 H5'1       -0.9348   -4.9415    1.9415 H         1 ATP         0.0340
     34 H5'2       -1.7548   -3.4350    2.4278 H         1 ATP         0.0340
     35 H4'         0.8874   -3.6466    0.8805 H         1 ATP         0.0910
     36 H3'        -0.7376   -1.2333    1.9867 H         1 ATP         0.0656
     37 HO3'        1.3408   -0.4870    2.3219 H         1 ATP         0.4386
     38 H2'        -0.0384   -0.0310    0.0096 H         1 ATP         0.0788
     39 HO2'        2.1463   -0.7958    0.0370 H         1 ATP         0.4363
     40 H1'        -0.4769   -2.1002   -1.8093 H         1 ATP         0.1225
     41 H8         -2.9569   -2.1323    1.0098 H         1 ATP         0.3824
     42 HN62       -6.3169    1.6552   -2.5012 H         1 ATP         0.4018
     43 H2         -2.3612    1.2343   -4.4957 H         1 ATP         0.0652
     44 H44        -4.5223    1.7976   -3.9117 H         1 ATP         0.4503
     45 H45        -5.0218   -0.8132    0.3804 H         1 ATP         0.5209
@<TRIPOS>BOND
     1    1    2 2
     2    1    3 1
     3    1    4 1
     4    1    8 1
     5    4   32 1
     6    5    6 2
     7    5    7 1
     8    5    8 1
     9    5   12 1
    10    9   10 2
    11    9   11 1
    12    9   12 1
    13    9   13 1
    14   13   14 1
    15   14   15 1
    16   14   33 1
    17   14   34 1
    18   15   16 1
    19   15   17 1
    20   15   35 1
    21   16   21 1
    22   17   18 1
    23   17   19 1
    24   17   36 1
    25   18   37 1
    26   19   20 1
    27   19   21 1
    28   19   38 1
    29   20   39 1
    30   21   22 1
    31   21   40 1
    32   22   23 ar
    33   22   31 ar
    34   23   24 ar
    35   23   41 1
    36   24   25 ar
    37   24   45 1
    38   25   26 ar
    39   25   31 ar
    40   26   27 2
    41   26   28 ar
    42   27   42 1
    43   28   29 ar
    44   28   44 1
    45   29   30 ar
    46   29   43 1
    47   30   31 ar
@<TRIPOS>SUBSTRUCTURE
     1 ATP         1 GROUP 0 A     ****
@<TRIPOS>MOLECULE
[[[3,4-dihydroxy-5-(6-imino-7,8-dihydro-1~{H}-purin-8-ylium-9-yl)tetrahydrofuran-2-yl]methoxy-oxido-phosphoryl]oxy-oxido-phosphoryl] hydrogen phosphate
   45    47     1     0     0
SMALL
USER_CHARGES

@<TRIPOS>ATOM
      1 PG         -1.2233   -8.7247    2.4252 P.3       1 ATP         1.5631
      2 O1G        -0.7369   -8.5688    1.0016 O.co2     1 ATP        -0.8806
      3 O2G        -2.4560   -7.9945    2.9097 O.co2     1 ATP        -0.8806
      4 O3G        -1.4066  -10.3164    2.7393 O.3       1 ATP        -0.8165
      5 PB          0.8005   -7.0129    3.7358 P.3       1 ATP         1.6877
      6 O1B         1.7505   -7.2228    4.8938 O.co2     1 ATP        -0.8727
      7 O2B         1.2834   -6.4465    2.4191 O.co2     1 ATP        -0.8727
      8 O3B         0.0117   -8.4126    3.4456 O.3       1 ATP        -0.8330
      9 PA         -0.5250   -4.5707    4.7525 P.3       1 ATP         1.6036
     10 O1A         0.4868   -4.3780    5.8613 O.co2     1 ATP        -0.9062
     11 O2A        -1.9752   -4.1885    4.9536 O.co2     1 ATP        -0.9062
     12 O3A        -0.4680   -6.1256    4.2538 O.3       1 ATP        -0.8166
     13 O5'         0.0118   -3.8395    3.3916 O.3       1 ATP        -0.5510
     14 C5'        -0.7840   -3.8935    2.2172 C.3       1 ATP         0.2099
     15 C4'        -0.0724   -3.1466    1.1027 C.3       1 ATP         0.0598
     16 O4'        -0.8674   -3.1929   -0.0945 O.3       1 ATP        -0.3455
     17 C3'         0.1338   -1.6715    1.4027 C.3       1 ATP         0.0742
     18 O3'         1.2893   -1.4445    2.1808 O.3       1 ATP        -0.6025
     19 C2'         0.2158   -1.0724    0.0128 C.3       1 ATP         0.1145
     20 O2'         1.5141   -1.2448   -0.5513 O.3       1 ATP        -0.5835
     21 C1'        -0.7897   -1.9176   -0.7583 C.3       1 ATP         0.3776
     22 N9         -2.1040   -1.3333   -0.7704 N.pl3     1 ATP        -0.4429
     23 C8         -3.0590   -1.5123    0.1363 C.ar      1 ATP         0.2964
     24 N7         -4.1655   -0.8354   -0.1554 N.pl3     1 ATP        -0.4957
     25 C5         -3.8852   -0.1874   -1.3253 C.ar      1 ATP        -0.1346
     26 C6         -4.7113    0.7160   -2.1458 C.ar      1 ATP         0.7213
     27 N6         -5.9213    1.0209   -1.8021 N.2       1 ATP        -0.8215
     28 N1         -4.0411    1.1673   -3.2764 N.pl3     1 ATP        -0.8455
     29 C2         -2.7403    0.7865   -3.5638 C.ar      1 ATP         0.6477
     30 N3         -1.9921   -0.0108   -2.8519 N.2       1 ATP        -0.5707
     31 C4         -2.6302   -0.4747   -1.7239 C.ar      1 ATP         0.2637
     32 HOG3       -1.7192  -10.5836    3.6299 H         1 ATP         0.4378
     33 H5'1       -0.9348   -4.9415    1.9415 H         1 ATP         0.0340
     34 H5'2       -1.7548   -3.4350    2.4278 H         1 ATP         0.0340
     35 H4'         0.8874   -3.6466    0.8805 H         1 ATP         0.0910
     36 H3'        -0.7376   -1.2333    1.9867 H         1 ATP         0.0656
     37 HO3'        1.1626   -1.9325    3.0084 H         1 ATP         0.4386
     38 H2'        -0.0384   -0.0310    0.0096 H         1 ATP         0.0788
     39 HO2'        2.1463   -0.7958    0.0370 H         1 ATP         0.4363
     40 H1'        -0.4769   -2.1002   -1.8093 H         1 ATP         0.1225
     41 H8         -2.9569   -2.1323    1.0098 H         1 ATP         0.3824
     42 HN62       -6.3169    1.6552   -2.5012 H         1 ATP         0.4018
     43 H2         -2.3612    1.2343   -4.4957 H         1 ATP         0.0652
     44 H44        -4.5223    1.7976   -3.9117 H         1 ATP         0.4503
     45 H45        -5.0218   -0.8132    0.3804 H         1 ATP         0.5209
@<TRIPOS>BOND
     1    1    2 2
     2    1    3 1
     3    1    4 1
     4    1    8 1
     5    4   32 1
     6    5    6 2
     7    5    7 1
     8    5    8 1
     9    5   12 1
    10    9   10 2
    11    9   11 1
    12    9   12 1
    13    9   13 1
    14   13   14 1
    15   14   15 1
    16   14   33 1
    17   14   34 1
    18   15   16 1
    19   15   17 1
    20   15   35 1
    21   16   21 1
    22   17   18 1
    23   17   19 1
    24   17   36 1
    25   18   37 1
    26   19   20 1
    27   19   21 1
    28   19   38 1
    29   20   39 1
    30   21   22 1
    31   21   40 1
    32   22   23 ar
    33   22   31 ar
    34   23   24 ar
    35   23   41 1
    36   24   25 ar
    37   24   45 1
    38   25   26 ar
    39   25   31 ar
    40   26   27 2
    41   26   28 ar
    42   27   42 1
    43   28   29 ar
    44   28   44 1
    45   29   30 ar
    46   29   43 1
    47   30   31 ar
@<TRIPOS>SUBSTRUCTURE
     1 ATP         1 GROUP 0 A     ****
@<TRIPOS>MOLECULE
[[[3,4-dihydroxy-5-(6-imino-7,8-dihydro-1~{H}-purin-8-ylium-9-yl)tetrahydrofuran-2-yl]methoxy-oxido-phosphoryl]oxy-oxido-phosphoryl] hydrogen phosphate
   45    47     1     0     0
SMALL
USER_CHARGES

@<TRIPOS>ATOM
      1 PG         -2.3357   -7.0153    7.5613 P.3       1 ATP         1.5631
      2 O1G        -1.3068   -6.6756    8.6164 O.co2     1 ATP        -0.8806
      3 O2G        -2.9879   -8.3794    7.5224 O.co2     1 ATP        -0.8806
      4 O3G        -3.5091   -5.8805    7.5968 O.3       1 ATP        -0.8165
      5 PB         -0.4800   -7.3907    5.2900 P.3       1 ATP         1.6877
      6 O1B         0.8060   -7.0997    6.0310 O.co2     1 ATP        -0.8727
      7 O2B        -0.8778   -8.8068    4.9377 O.co2     1 ATP        -0.8727
      8 O3B        -1.7158   -6.6831    6.0885 O.3       1 ATP        -0.8330
      9 PA         -1.7207   -6.2770    2.8455 P.3       1 ATP         1.6036
     10 O1A        -2.8745   -5.5693    3.5224 O.co2     1 ATP        -0.9062
     11 O2A        -1.9354   -7.5877    2.1206 O.co2     1 ATP        -0.9062
     12 O3A        -0.5195   -6.4829    3.9339 O.3       1 ATP        -0.8166
     13 O5'        -0.9724   -5.2440    1.8220 O.3       1 ATP        -0.5510
     14 C5'        -0.7840   -3.8935    2.2172 C.3       1 ATP         0.2099
     15 C4'        -0.0724   -3.1466    1.1027 C.3       1 ATP         0.0598
     16 O4'        -0.8674   -3.1929   -0.0945 O.3       1 ATP        -0.3455
     17 C3'         0.1338   -1.6715    1.4027 C.3       1 ATP         0.0742
     18 O3'         1.2893   -1.4445    2.1808 O.3       1 ATP        -0.6025
     19 C2'         0.2158   -1.0724    0.0128 C.3       1 ATP         0.1145
     20 O2'         1.5141   -1.2448   -0.5513 O.3       1 ATP        -0.5835
     21 C1'        -0.7897   -1.9176   -0.7583 C.3       1 ATP         0.3776
     22 N9         -2.1040   -1.3333   -0.7704 N.pl3     1 ATP        -0.4429
     23 C8         -3.0590   -1.5123    0.1363 C.ar      1 ATP         0.2964
     24 N7         -4.1655   -0.8354   -0.1554 N.pl3     1 ATP        -0.4957
     25 C5         -3.8852   -0.1874   -1.3253 C.ar      1 ATP        -0.1346
     26 C6         -4.7113    0.7160   -2.1458 C.ar      1 ATP         0.7213
     27 N6         -5.9213    1.0209   -1.8021 N.2       1 ATP        -0.8215
     28 N1         -4.0411    1.1673   -3.2764 N.pl3     1 ATP        -0.8455
     29 C2         -2.7403    0.7865   -3.5638 C.ar      1 ATP         0.6477
     30 N3         -1.9921   -0.0108   -2.8519 N.2       1 ATP        -0.5707
     31 C4         -2.6302   -0.4747   -1.7239 C.ar      1 ATP         0.2637
     32 HOG3       -4.2559   -5.9612    6.9659 H         1 ATP         0.4378
     33 H5'1       -1.7618   -3.4448    2.4164 H         1 ATP         0.0340
     34 H5'2       -0.1874   -3.8744    3.1341 H         1 ATP         0.0340
     35 H4'         0.8874   -3.6466    0.8805 H         1 ATP         0.0910
     36 H3'        -0.7376   -1.2333    1.9867 H         1 ATP         0.0656
     37 HO3'        1.1626   -1.9325    3.0084 H         1 ATP         0.4386
     38 H2'        -0.0384   -0.0310    0.0096 H         1 ATP         0.0788
     39 HO2'        2.1463   -0.7958    0.0370 H         1 ATP         0.4363
     40 H1'        -0.4769   -2.1002   -1.8093 H         1 ATP         0.1225
     41 H8         -2.9569   -2.1323    1.0098 H         1 ATP         0.3824
     42 HN62       -6.3169    1.6552   -2.5012 H         1 ATP         0.4018
     43 H2         -2.3612    1.2343   -4.4957 H         1 ATP         0.0652
     44 H44        -4.5223    1.7976   -3.9117 H         1 ATP         0.4503
     45 H45        -5.0218   -0.8132    0.3804 H         1 ATP         0.5209
@<TRIPOS>BOND
     1    1    2 2
     2    1    3 1
     3    1    4 1
     4    1    8 1
     5    4   32 1
     6    5    6 2
     7    5    7 1
     8    5    8 1
     9    5   12 1
    10    9   10 2
    11    9   11 1
    12    9   12 1
    13    9   13 1
    14   13   14 1
    15   14   15 1
    16   14   33 1
    17   14   34 1
    18   15   16 1
    19   15   17 1
    20   15   35 1
    21   16   21 1
    22   17   18 1
    23   17   19 1
    24   17   36 1
    25   18   37 1
    26   19   20 1
    27   19   21 1
    28   19   38 1
    29   20   39 1
    30   21   22 1
    31   21   40 1
    32   22   23 ar
    33   22   31 ar
    34   23   24 ar
    35   23   41 1
    36   24   25 ar
    37   24   45 1
    38   25   26 ar
    39   25   31 ar
    40   26   27 2
    41   26   28 ar
    42   27   42 1
    43   28   29 ar
    44   28   44 1
    45   29   30 ar
    46   29   43 1
    47   30   31 ar
@<TRIPOS>SUBSTRUCTURE
     1 ATP         1 GROUP 0 A     ****
@<TRIPOS>MOLECULE
[[[3,4-dihydroxy-5-(6-imino-7,8-dihydro-1~{H}-purin-8-ylium-9-yl)tetrahydrofuran-2-yl]methoxy-oxido-phosphoryl]oxy-oxido-phosphoryl] hydrogen phosphate
   45    47     1     0     0
SMALL
USER_CHARGES

@<TRIPOS>ATOM
      1 PG         -0.4837   -5.9205    6.8595 P.3       1 ATP         1.5631
      2 O1G         0.3956   -5.3804    5.7538 O.co2     1 ATP        -0.8806
      3 O2G        -0.3193   -7.3380    7.3610 O.co2     1 ATP        -0.8806
      4 O3G        -0.3949   -4.9056    8.1354 O.3       1 ATP        -0.8165
      5 PB         -2.9353   -6.3403    5.2605 P.3       1 ATP         1.6877
      6 O1B        -2.8261   -7.8461    5.3503 O.co2     1 ATP        -0.8727
      7 O2B        -4.2823   -5.6538    5.2186 O.co2     1 ATP        -0.8727
      8 O3B        -2.0477   -5.6786    6.4604 O.3       1 ATP        -0.8330
      9 PA         -2.2652   -6.0681    2.3913 P.3       1 ATP         1.6036
     10 O1A        -3.5375   -5.3691    1.9635 O.co2     1 ATP        -0.9062
     11 O2A        -2.0545   -7.5378    2.0994 O.co2     1 ATP        -0.9062
     12 O3A        -2.0456   -5.8259    3.9922 O.3       1 ATP        -0.8166
     13 O5'        -0.9724   -5.2440    1.8220 O.3       1 ATP        -0.5510
     14 C5'        -0.7840   -3.8935    2.2172 C.3       1 ATP         0.2099
     15 C4'        -0.0724   -3.1466    1.1027 C.3       1 ATP         0.0598
     16 O4'        -0.8674   -3.1929   -0.0945 O.3       1 ATP        -0.3455
     17 C3'         0.1338   -1.6715    1.4027 C.3       1 ATP         0.0742
     18 O3'         1.2893   -1.4445    2.1808 O.3       1 ATP        -0.6025
     19 C2'         0.2158   -1.0724    0.0128 C.3       1 ATP         0.1145
     20 O2'         1.5141   -1.2448   -0.5513 O.3       1 ATP        -0.5835
     21 C1'        -0.7897   -1.9176   -0.7583 C.3       1 ATP         0.3776
     22 N9         -2.1040   -1.3333   -0.7704 N.pl3     1 ATP        -0.4429
     23 C8         -3.0590   -1.5123    0.1363 C.ar      1 ATP         0.2964
     24 N7         -4.1655   -0.8354   -0.1554 N.pl3     1 ATP        -0.4957
     25 C5         -3.8852   -0.1874   -1.3253 C.ar      1 ATP        -0.1346
     26 C6         -4.7113    0.7160   -2.1458 C.ar      1 ATP         0.7213
     27 N6         -5.9213    1.0209   -1.8021 N.2       1 ATP        -0.8215
     28 N1         -4.0411    1.1673   -3.2764 N.pl3     1 ATP        -0.8455
     29 C2         -2.7403    0.7865   -3.5638 C.ar      1 ATP         0.6477
     30 N3         -1.9921   -0.0108   -2.8519 N.2       1 ATP        -0.5707
     31 C4         -2.6302   -0.4747   -1.7239 C.ar      1 ATP         0.2637
     32 HOG3       -0.9142   -5.1199    8.9395 H         1 ATP         0.4378
     33 H5'1       -1.7618   -3.4448    2.4164 H         1 ATP         0.0340
     34 H5'2       -0.1874   -3.8744    3.1341 H         1 ATP         0.0340
     35 H4'         0.8874   -3.6466    0.8805 H         1 ATP         0.0910
     36 H3'        -0.7376   -1.2333    1.9867 H         1 ATP         0.0656
     37 HO3'        1.1626   -1.9325    3.0084 H         1 ATP         0.4386
     38 H2'        -0.0384   -0.0310    0.0096 H         1 ATP         0.0788
     39 HO2'        2.1463   -0.7958    0.0370 H         1 ATP         0.4363
     40 H1'        -0.4769   -2.1002   -1.8093 H         1 ATP         0.1225
     41 H8         -2.9569   -2.1323    1.0098 H         1 ATP         0.3824
     42 HN62       -6.3169    1.6552   -2.5012 H         1 ATP         0.4018
     43 H2         -2.3612    1.2343   -4.4957 H         1 ATP         0.0652
     44 H44        -4.5223    1.7976   -3.9117 H         1 ATP         0.4503
     45 H45        -5.0218   -0.8132    0.3804 H         1 ATP         0.5209
@<TRIPOS>BOND
     1    1    2 2
     2    1    3 1
     3    1    4 1
     4    1    8 1
     5    4   32 1
     6    5    6 2
     7    5    7 1
     8    5    8 1
     9    5   12 1
    10    9   10 2
    11    9   11 1
    12    9   12 1
    13    9   13 1
    14   13   14 1
    15   14   15 1
    16   14   33 1
    17   14   34 1
    18   15   16 1
    19   15   17 1
    20   15   35 1
    21   16   21 1
    22   17   18 1
    23   17   19 1
    24   17   36 1
    25   18   37 1
    26   19   20 1
    27   19   21 1
    28   19   38 1
    29   20   39 1
    30   21   22 1
    31   21   40 1
    32   22   23 ar
    33   22   31 ar
    34   23   24 ar
    35   23   41 1
    36   24   25 ar
    37   24   45 1
    38   25   26 ar
    39   25   31 ar
    40   26   27 2
    41   26   28 ar
    42   27   42 1
    43   28   29 ar
    44   28   44 1
    45   29   30 ar
    46   29   43 1
    47   30   31 ar
@<TRIPOS>SUBSTRUCTURE
     1 ATP         1 GROUP 0 A     ****
@<TRIPOS>MOLECULE
[[[3,4-dihydroxy-5-(6-imino-7,8-dihydro-1~{H}-purin-8-ylium-9-yl)tetrahydrofuran-2-yl]methoxy-oxido-phosphoryl]oxy-oxido-phosphoryl] hydrogen phosphate
   45    47     1     0     0
SMALL
USER_CHARGES

@<TRIPOS>ATOM
      1 PG          5.0066   -0.8767   -8.4864 P.3       1 ATP         1.5631
      2 O1G         3.8299   -0.9172   -9.4357 O.co2     1 ATP        -0.8806
      3 O2G         6.1008   -1.9184   -8.5599 O.co2     1 ATP        -0.8806
      4 O3G         5.6924    0.6025   -8.5730 O.3       1 ATP        -0.8165
      5 PB          3.6265   -1.9107   -6.0843 P.3       1 ATP         1.6877
      6 O1B         2.2574   -2.0911   -6.7013 O.co2     1 ATP        -0.8727
      7 O2B         4.5318   -3.0946   -5.8267 O.co2     1 ATP        -0.8727
      8 O3B         4.4503   -0.8013   -6.9538 O.3       1 ATP        -0.8330
      9 PA          2.7407    0.3769   -4.4297 P.3       1 ATP         1.6036
     10 O1A         1.2546    0.2227   -4.6707 O.co2     1 ATP        -0.9062
     11 O2A         3.5325    1.4517   -5.1421 O.co2     1 ATP        -0.9062
     12 O3A         3.4685   -1.0610   -4.6995 O.3       1 ATP        -0.8166
     13 O5'         3.0213    0.5153   -2.8245 O.3       1 ATP        -0.5510
     14 C5'         2.2816   -0.2918   -1.9206 C.3       1 ATP         0.2099
     15 C4'         2.7248    0.0226   -0.4980 C.3       1 ATP         0.0598
     16 O4'         2.4697    1.4219   -0.2462 O.3       1 ATP        -0.3455
     17 C3'         1.9404   -0.7419    0.5596 C.3       1 ATP         0.0742
     18 O3'         2.7418   -0.8086    1.7389 O.3       1 ATP        -0.6025
     19 C2'         0.7477    0.1630    0.7858 C.3       1 ATP         0.1145
     20 O2'         0.1373   -0.0577    2.0407 O.3       1 ATP        -0.5835
     21 C1'         1.3733    1.5427    0.6747 C.3       1 ATP         0.3776
     22 N9          0.4520    2.5240    0.1767 N.pl3     1 ATP        -0.4429
     23 C8         -0.6821    2.9098    0.7521 C.ar      1 ATP         0.2964
     24 N7         -1.3175    3.8384    0.0437 N.pl3     1 ATP        -0.4957
     25 C5         -0.5274    4.0494   -1.0512 C.ar      1 ATP        -0.1346
     26 C6         -0.6966    4.9597   -2.1977 C.ar      1 ATP         0.7213
     27 N6         -1.7259    5.7385   -2.2937 N.2       1 ATP        -0.8215
     28 N1          0.3493    4.8663   -3.1079 N.pl3     1 ATP        -0.8455
     29 C2          1.4148    4.0005   -2.9208 C.ar      1 ATP         0.6477
     30 N3          1.5838    3.1876   -1.9144 N.2       1 ATP        -0.5707
     31 C4          0.5619    3.2578   -0.9949 C.ar      1 ATP         0.2637
     32 HOG3        6.4749    0.7879   -8.0114 H         1 ATP         0.4378
     33 H5'1        1.2163   -0.0770   -2.0471 H         1 ATP         0.0340
     34 H5'2        2.4655   -1.3443   -2.1563 H         1 ATP         0.0340
     35 H4'         3.8044   -0.1397   -0.4040 H         1 ATP         0.0910
     36 H3'         1.6764   -1.7639    0.2728 H         1 ATP         0.0656
     37 HO3'        2.2232   -1.2979    2.3953 H         1 ATP         0.4386
     38 H2'        -0.0011    0.0027    0.0003 H         1 ATP         0.0788
     39 HO2'       -0.1563   -0.9855    2.0596 H         1 ATP         0.4363
     40 H1'         1.7826    1.9024    1.6451 H         1 ATP         0.1225
     41 H8         -1.0516    2.5207    1.6849 H         1 ATP         0.3824
     42 HN62       -1.6520    6.2842   -3.1564 H         1 ATP         0.4018
     43 H2          2.1542    4.0525   -3.7351 H         1 ATP         0.0652
     44 H44         0.3306    5.4533   -3.9370 H         1 ATP         0.4503
     45 H45        -2.1941    4.2838    0.2756 H         1 ATP         0.5209
@<TRIPOS>BOND
     1    1    2 2
     2    1    3 1
     3    1    4 1
     4    1    8 1
     5    4   32 1
     6    5    6 2
     7    5    7 1
     8    5    8 1
     9    5   12 1
    10    9   10 2
    11    9   11 1
    12    9   12 1
    13    9   13 1
    14   13   14 1
    15   14   15 1
    16   14   33 1
    17   14   34 1
    18   15   16 1
    19   15   17 1
    20   15   35 1
    21   16   21 1
    22   17   18 1
    23   17   19 1
    24   17   36 1
    25   18   37 1
    26   19   20 1
    27   19   21 1
    28   19   38 1
    29   20   39 1
    30   21   22 1
    31   21   40 1
    32   22   23 ar
    33   22   31 ar
    34   23   24 ar
    35   23   41 1
    36   24   25 ar
    37   24   45 1
    38   25   26 ar
    39   25   31 ar
    40   26   27 2
    41   26   28 ar
    42   27   42 1
    43   28   29 ar
    44   28   44 1
    45   29   30 ar
    46   29   43 1
    47   30   31 ar
@<TRIPOS>SUBSTRUCTURE
     1 ATP         1 GROUP 0 A     ****
@<TRIPOS>MOLECULE
[[[3,4-dihydroxy-5-(6-imino-7,8-dihydro-1~{H}-purin-8-ylium-9-yl)tetrahydrofuran-2-yl]methoxy-oxido-phosphoryl]oxy-oxido-phosphoryl] hydrogen phosphate
   45    47     1     0     0
SMALL
USER_CHARGES

@<TRIPOS>ATOM
      1 PG          4.1302   -0.8968   -8.7162 P.3       1 ATP         1.5631
      2 O1G         2.9111   -1.0292   -9.6015 O.co2     1 ATP        -0.8806
      3 O2G         5.2547   -1.9059   -8.7858 O.co2     1 ATP        -0.8806
      4 O3G         4.7597    0.5959   -8.9203 O.3       1 ATP        -0.8165
      5 PB          2.9040   -1.8329   -6.1936 P.3       1 ATP         1.6877
      6 O1B         1.5138   -2.0918   -6.7299 O.co2     1 ATP        -0.8727
      7 O2B         3.8608   -2.9707   -5.9154 O.co2     1 ATP        -0.8727
      8 O3B         3.6463   -0.7502   -7.1644 O.3       1 ATP        -0.8330
      9 PA          3.9554   -0.2064   -3.9565 P.3       1 ATP         1.6036
     10 O1A         4.6400    0.8514   -4.7948 O.co2     1 ATP        -0.9062
     11 O2A         4.7576   -1.2975   -3.2816 O.co2     1 ATP        -0.9062
     12 O3A         2.7840   -0.9098   -4.8526 O.3       1 ATP        -0.8166
     13 O5'         3.0213    0.5153   -2.8245 O.3       1 ATP        -0.5510
     14 C5'         2.2816   -0.2918   -1.9206 C.3       1 ATP         0.2099
     15 C4'         2.7248    0.0226   -0.4980 C.3       1 ATP         0.0598
     16 O4'         2.4697    1.4219   -0.2462 O.3       1 ATP        -0.3455
     17 C3'         1.9404   -0.7419    0.5596 C.3       1 ATP         0.0742
     18 O3'         2.7418   -0.8086    1.7389 O.3       1 ATP        -0.6025
     19 C2'         0.7477    0.1630    0.7858 C.3       1 ATP         0.1145
     20 O2'         0.1373   -0.0577    2.0407 O.3       1 ATP        -0.5835
     21 C1'         1.3733    1.5427    0.6747 C.3       1 ATP         0.3776
     22 N9          0.4520    2.5240    0.1767 N.pl3     1 ATP        -0.4429
     23 C8         -0.2004    2.4829   -0.9804 C.ar      1 ATP         0.2964
     24 N7         -0.9830    3.5431   -1.1568 N.pl3     1 ATP        -0.4957
     25 C5         -0.8095    4.3012   -0.0331 C.ar      1 ATP        -0.1346
     26 C6         -1.4065    5.5904    0.3585 C.ar      1 ATP         0.7213
     27 N6         -2.2501    6.2030   -0.4084 N.2       1 ATP        -0.8215
     28 N1         -0.9585    6.0272    1.5994 N.pl3     1 ATP        -0.8455
     29 C2         -0.0508    5.3009    2.3532 C.ar      1 ATP         0.6477
     30 N3          0.4890    4.1592    2.0257 N.2       1 ATP        -0.5707
     31 C4          0.0637    3.7006    0.7995 C.ar      1 ATP         0.2637
     32 HOG3        5.5617    0.8381   -8.4100 H         1 ATP         0.4378
     33 H5'1        1.2163   -0.0770   -2.0471 H         1 ATP         0.0340
     34 H5'2        2.4655   -1.3443   -2.1563 H         1 ATP         0.0340
     35 H4'         3.8044   -0.1397   -0.4040 H         1 ATP         0.0910
     36 H3'         1.6764   -1.7639    0.2728 H         1 ATP         0.0656
     37 HO3'        3.5554   -1.2733    1.4914 H         1 ATP         0.4386
     38 H2'        -0.0011    0.0027    0.0003 H         1 ATP         0.0788
     39 HO2'       -0.1563   -0.9855    2.0596 H         1 ATP         0.4363
     40 H1'         1.7826    1.9024    1.6451 H         1 ATP         0.1225
     41 H8         -0.1116    1.6863   -1.6984 H         1 ATP         0.3824
     42 HN62       -2.5420    7.0730    0.0447 H         1 ATP         0.4018
     43 H2          0.1969    5.7893    3.3086 H         1 ATP         0.0652
     44 H44        -1.3097    6.9080    1.9642 H         1 ATP         0.4503
     45 H45        -1.5735    3.7351   -1.9538 H         1 ATP         0.5209
@<TRIPOS>BOND
     1    1    2 2
     2    1    3 1
     3    1    4 1
     4    1    8 1
     5    4   32 1
     6    5    6 2
     7    5    7 1
     8    5    8 1
     9    5   12 1
    10    9   10 2
    11    9   11 1
    12    9   12 1
    13    9   13 1
    14   13   14 1
    15   14   15 1
    16   14   33 1
    17   14   34 1
    18   15   16 1
    19   15   17 1
    20   15   35 1
    21   16   21 1
    22   17   18 1
    23   17   19 1
    24   17   36 1
    25   18   37 1
    26   19   20 1
    27   19   21 1
    28   19   38 1
    29   20   39 1
    30   21   22 1
    31   21   40 1
    32   22   23 ar
    33   22   31 ar
    34   23   24 ar
    35   23   41 1
    36   24   25 ar
    37   24   45 1
    38   25   26 ar
    39   25   31 ar
    40   26   27 2
    41   26   28 ar
    42   27   42 1
    43   28   29 ar
    44   28   44 1
    45   29   30 ar
    46   29   43 1
    47   30   31 ar
@<TRIPOS>SUBSTRUCTURE
     1 ATP         1 GROUP 0 A     ****
@<TRIPOS>MOLECULE
[[[3,4-dihydroxy-5-(6-imino-7,8-dihydro-1~{H}-purin-8-ylium-9-yl)tetrahydrofuran-2-yl]methoxy-oxido-phosphoryl]oxy-oxido-phosphoryl] hydrogen phosphate
   45    47     1     0     0
SMALL
USER_CHARGES

@<TRIPOS>ATOM
      1 PG          8.5744   -2.3444   -1.4017 P.3       1 ATP         1.5631
      2 O1G         8.6086   -3.7754   -1.8903 O.co2     1 ATP        -0.8806
      3 O2G         8.8016   -2.0155    0.0570 O.co2     1 ATP        -0.8806
      4 O3G         9.6163   -1.4647   -2.2999 O.3       1 ATP        -0.8165
      5 PB          6.5300   -1.5474   -3.3838 P.3       1 ATP         1.6877
      6 O1B         7.4114   -0.6629   -4.2371 O.co2     1 ATP        -0.8727
      7 O2B         6.1391   -2.9360   -3.8384 O.co2     1 ATP        -0.8727
      8 O3B         7.1806   -1.6496   -1.8898 O.3       1 ATP        -0.8330
      9 PA          3.9554   -0.2064   -3.9565 P.3       1 ATP         1.6036
     10 O1A         3.2313   -1.4129   -4.5136 O.co2     1 ATP        -0.9062
     11 O2A         4.4942    0.8660   -4.8781 O.co2     1 ATP        -0.9062
     12 O3A         5.1753   -0.7215   -2.9994 O.3       1 ATP        -0.8166
     13 O5'         3.0213    0.5153   -2.8245 O.3       1 ATP        -0.5510
     14 C5'         2.2816   -0.2918   -1.9206 C.3       1 ATP         0.2099
     15 C4'         2.7248    0.0226   -0.4980 C.3       1 ATP         0.0598
     16 O4'         2.4697    1.4219   -0.2462 O.3       1 ATP        -0.3455
     17 C3'         1.9404   -0.7419    0.5596 C.3       1 ATP         0.0742
     18 O3'         2.7418   -0.8086    1.7389 O.3       1 ATP        -0.6025
     19 C2'         0.7477    0.1630    0.7858 C.3       1 ATP         0.1145
     20 O2'         0.1373   -0.0577    2.0407 O.3       1 ATP        -0.5835
     21 C1'         1.3733    1.5427    0.6747 C.3       1 ATP         0.3776
     22 N9          0.4520    2.5240    0.1767 N.pl3     1 ATP        -0.4429
     23 C8         -0.2004    2.4829   -0.9804 C.ar      1 ATP         0.2964
     24 N7         -0.9830    3.5431   -1.1568 N.pl3     1 ATP        -0.4957
     25 C5         -0.8095    4.3012   -0.0331 C.ar      1 ATP        -0.1346
     26 C6         -1.4065    5.5904    0.3585 C.ar      1 ATP         0.7213
     27 N6         -2.2501    6.2030   -0.4084 N.2       1 ATP        -0.8215
     28 N1         -0.9585    6.0272    1.5994 N.pl3     1 ATP        -0.8455
     29 C2         -0.0508    5.3009    2.3532 C.ar      1 ATP         0.6477
     30 N3          0.4890    4.1592    2.0257 N.2       1 ATP        -0.5707
     31 C4          0.0637    3.7006    0.7995 C.ar      1 ATP         0.2637
     32 HOG3        9.7093   -0.5081   -2.1038 H         1 ATP         0.4378
     33 H5'1        1.2163   -0.0770   -2.0471 H         1 ATP         0.0340
     34 H5'2        2.4655   -1.3443   -2.1563 H         1 ATP         0.0340
     35 H4'         3.8044   -0.1397   -0.4040 H         1 ATP         0.0910
     36 H3'         1.6764   -1.7639    0.2728 H         1 ATP         0.0656
     37 HO3'        2.2232   -1.2979    2.3953 H         1 ATP         0.4386
     38 H2'        -0.0011    0.0027    0.0003 H         1 ATP         0.0788
     39 HO2'       -0.1563   -0.9855    2.0596 H         1 ATP         0.4363
     40 H1'         1.7826    1.9024    1.6451 H         1 ATP         0.1225
     41 H8         -0.1116    1.6863   -1.6984 H         1 ATP         0.3824
     42 HN62       -2.5420    7.0730    0.0447 H         1 ATP         0.4018
     43 H2          0.1969    5.7893    3.3086 H         1 ATP         0.0652
     44 H44        -1.3097    6.9080    1.9642 H         1 ATP         0.4503
     45 H45        -1.5735    3.7351   -1.9538 H         1 ATP         0.5209
@<TRIPOS>BOND
     1    1    2 2
     2    1    3 1
     3    1    4 1
     4    1    8 1
     5    4   32 1
     6    5    6 2
     7    5    7 1
     8    5    8 1
     9    5   12 1
    10    9   10 2
    11    9   11 1
    12    9   12 1
    13    9   13 1
    14   13   14 1
    15   14   15 1
    16   14   33 1
    17   14   34 1
    18   15   16 1
    19   15   17 1
    20   15   35 1
    21   16   21 1
    22   17   18 1
    23   17   19 1
    24   17   36 1
    25   18   37 1
    26   19   20 1
    27   19   21 1
    28   19   38 1
    29   20   39 1
    30   21   22 1
    31   21   40 1
    32   22   23 ar
    33   22   31 ar
    34   23   24 ar
    35   23   41 1
    36   24   25 ar
    37   24   45 1
    38   25   26 ar
    39   25   31 ar
    40   26   27 2
    41   26   28 ar
    42   27   42 1
    43   28   29 ar
    44   28   44 1
    45   29   30 ar
    46   29   43 1
    47   30   31 ar
@<TRIPOS>SUBSTRUCTURE
     1 ATP         1 GROUP 0 A     ****
@<TRIPOS>MOLECULE
[[[3,4-dihydroxy-5-(6-imino-7,8-dihydro-1~{H}-purin-8-ylium-9-yl)tetrahydrofuran-2-yl]methoxy-oxido-phosphoryl]oxy-oxido-phosphoryl] hydrogen phosphate
   45    47     1     0     0
SMALL
USER_CHARGES

@<TRIPOS>ATOM
      1 PG         -6.0407   -6.4599    3.0878 P.3       1 ATP         1.5631
      2 O1G        -5.3727   -6.2126    4.4220 O.co2     1 ATP        -0.8806
      3 O2G        -6.4831   -7.8492    2.6857 O.co2     1 ATP        -0.8806
      4 O3G        -7.3163   -5.4498    2.9513 O.3       1 ATP        -0.8165
      5 PB         -3.6264   -6.2979    1.3883 P.3       1 ATP         1.6877
      6 O1B        -3.6616   -7.7756    1.0677 O.co2     1 ATP        -0.8727
      7 O2B        -3.1296   -5.2886    0.3773 O.co2     1 ATP        -0.8727
      8 O3B        -5.1063   -5.8386    1.9026 O.3       1 ATP        -0.8330
      9 PA         -1.2302   -6.3291    3.1238 P.3       1 ATP         1.6036
     10 O1A        -0.8643   -7.7469    2.7411 O.co2     1 ATP        -0.9062
     11 O2A        -0.9563   -5.8091    4.5182 O.co2     1 ATP        -0.9062
     12 O3A        -2.8100   -6.0849    2.7857 O.3       1 ATP        -0.8166
     13 O5'        -0.5687   -5.2869    2.0510 O.3       1 ATP        -0.5510
     14 C5'        -0.7840   -3.8935    2.2172 C.3       1 ATP         0.2099
     15 C4'        -0.0724   -3.1466    1.1027 C.3       1 ATP         0.0598
     16 O4'        -0.8674   -3.1929   -0.0945 O.3       1 ATP        -0.3455
     17 C3'         0.1338   -1.6715    1.4027 C.3       1 ATP         0.0742
     18 O3'         1.2893   -1.4445    2.1808 O.3       1 ATP        -0.6025
     19 C2'         0.2158   -1.0724    0.0128 C.3       1 ATP         0.1145
     20 O2'         1.5141   -1.2448   -0.5513 O.3       1 ATP        -0.5835
     21 C1'        -0.7897   -1.9176   -0.7583 C.3       1 ATP         0.3776
     22 N9         -2.1040   -1.3333   -0.7704 N.pl3     1 ATP        -0.4429
     23 C8         -3.0590   -1.5123    0.1363 C.ar      1 ATP         0.2964
     24 N7         -4.1655   -0.8354   -0.1554 N.pl3     1 ATP        -0.4957
     25 C5         -3.8852   -0.1874   -1.3253 C.ar      1 ATP        -0.1346
     26 C6         -4.7113    0.7160   -2.1458 C.ar      1 ATP         0.7213
     27 N6         -5.9213    1.0209   -1.8021 N.2       1 ATP        -0.8215
     28 N1         -4.0411    1.1673   -3.2764 N.pl3     1 ATP        -0.8455
     29 C2         -2.7403    0.7865   -3.5638 C.ar      1 ATP         0.6477
     30 N3         -1.9921   -0.0108   -2.8519 N.2       1 ATP        -0.5707
     31 C4         -2.6302   -0.4747   -1.7239 C.ar      1 ATP         0.2637
     32 HOG3       -7.8571   -5.4885    2.1338 H         1 ATP         0.4378
     33 H5'1       -1.8598   -3.6968    2.1850 H         1 ATP         0.0340
     34 H5'2       -0.3933   -3.5903    3.1931 H         1 ATP         0.0340
     35 H4'         0.8874   -3.6466    0.8805 H         1 ATP         0.0910
     36 H3'        -0.7376   -1.2333    1.9867 H         1 ATP         0.0656
     37 HO3'        1.1626   -1.9325    3.0084 H         1 ATP         0.4386
     38 H2'        -0.0384   -0.0310    0.0096 H         1 ATP         0.0788
     39 HO2'        1.4998   -0.8412   -1.4369 H         1 ATP         0.4363
     40 H1'        -0.4769   -2.1002   -1.8093 H         1 ATP         0.1225
     41 H8         -2.9569   -2.1323    1.0098 H         1 ATP         0.3824
     42 HN62       -6.3169    1.6552   -2.5012 H         1 ATP         0.4018
     43 H2         -2.3612    1.2343   -4.4957 H         1 ATP         0.0652
     44 H44        -4.5223    1.7976   -3.9117 H         1 ATP         0.4503
     45 H45        -5.0218   -0.8132    0.3804 H         1 ATP         0.5209
@<TRIPOS>BOND
     1    1    2 2
     2    1    3 1
     3    1    4 1
     4    1    8 1
     5    4   32 1
     6    5    6 2
     7    5    7 1
     8    5    8 1
     9    5   12 1
    10    9   10 2
    11    9   11 1
    12    9   12 1
    13    9   13 1
    14   13   14 1
    15   14   15 1
    16   14   33 1
    17   14   34 1
    18   15   16 1
    19   15   17 1
    20   15   35 1
    21   16   21 1
    22   17   18 1
    23   17   19 1
    24   17   36 1
    25   18   37 1
    26   19   20 1
    27   19   21 1
    28   19   38 1
    29   20   39 1
    30   21   22 1
    31   21   40 1
    32   22   23 ar
    33   22   31 ar
    34   23   24 ar
    35   23   41 1
    36   24   25 ar
    37   24   45 1
    38   25   26 ar
    39   25   31 ar
    40   26   27 2
    41   26   28 ar
    42   27   42 1
    43   28   29 ar
    44   28   44 1
    45   29   30 ar
    46   29   43 1
    47   30   31 ar
@<TRIPOS>SUBSTRUCTURE
     1 ATP         1 GROUP 0 A     ****
@<TRIPOS>MOLECULE
[[[3,4-dihydroxy-5-(6-imino-7,8-dihydro-1~{H}-purin-8-ylium-9-yl)tetrahydrofuran-2-yl]methoxy-oxido-phosphoryl]oxy-oxido-phosphoryl] hydrogen phosphate
   45    47     1     0     0
SMALL
USER_CHARGES

@<TRIPOS>ATOM
      1 PG          0.7402   -5.9023   -6.0465 P.3       1 ATP         1.5631
      2 O1G         0.6777   -5.3848   -7.4662 O.co2     1 ATP        -0.8806
      3 O2G        -0.3813   -6.7408   -5.4748 O.co2     1 ATP        -0.8806
      4 O3G         2.1444   -6.7122   -5.8510 O.3       1 ATP        -0.8165
      5 PB          0.0965   -3.3700   -4.6621 P.3       1 ATP         1.6877
      6 O1B        -0.0519   -2.5012   -5.8913 O.co2     1 ATP        -0.8727
      7 O2B        -1.1135   -3.8605   -3.8988 O.co2     1 ATP        -0.8727
      8 O3B         1.0336   -4.6530   -5.0381 O.3       1 ATP        -0.8330
      9 PA          2.6196   -2.0516   -3.8552 P.3       1 ATP         1.6036
     10 O1A         2.5494   -0.8938   -4.8272 O.co2     1 ATP        -0.9062
     11 O2A         3.5430   -3.2224   -4.1122 O.co2     1 ATP        -0.9062
     12 O3A         1.1101   -2.6304   -3.6179 O.3       1 ATP        -0.8166
     13 O5'         2.9216   -1.4836   -2.3516 O.3       1 ATP        -0.5510
     14 C5'         2.2816   -0.2918   -1.9206 C.3       1 ATP         0.2099
     15 C4'         2.7248    0.0226   -0.4980 C.3       1 ATP         0.0598
     16 O4'         2.4697    1.4219   -0.2462 O.3       1 ATP        -0.3455
     17 C3'         1.9404   -0.7419    0.5596 C.3       1 ATP         0.0742
     18 O3'         2.7418   -0.8086    1.7389 O.3       1 ATP        -0.6025
     19 C2'         0.7477    0.1630    0.7858 C.3       1 ATP         0.1145
     20 O2'         0.1373   -0.0577    2.0407 O.3       1 ATP        -0.5835
     21 C1'         1.3733    1.5427    0.6747 C.3       1 ATP         0.3776
     22 N9          0.4520    2.5240    0.1767 N.pl3     1 ATP        -0.4429
     23 C8         -0.2004    2.4829   -0.9804 C.ar      1 ATP         0.2964
     24 N7         -0.9830    3.5431   -1.1568 N.pl3     1 ATP        -0.4957
     25 C5         -0.8095    4.3012   -0.0331 C.ar      1 ATP        -0.1346
     26 C6         -1.4065    5.5904    0.3585 C.ar      1 ATP         0.7213
     27 N6         -2.2501    6.2030   -0.4084 N.2       1 ATP        -0.8215
     28 N1         -0.9585    6.0272    1.5994 N.pl3     1 ATP        -0.8455
     29 C2         -0.0508    5.3009    2.3532 C.ar      1 ATP         0.6477
     30 N3          0.4890    4.1592    2.0257 N.2       1 ATP        -0.5707
     31 C4          0.0637    3.7006    0.7995 C.ar      1 ATP         0.2637
     32 HOG3        2.3350   -7.1117   -4.9756 H         1 ATP         0.4378
     33 H5'1        2.5589    0.5217   -2.5976 H         1 ATP         0.0340
     34 H5'2        1.1982   -0.4388   -1.9617 H         1 ATP         0.0340
     35 H4'         3.8044   -0.1397   -0.4040 H         1 ATP         0.0910
     36 H3'         1.6764   -1.7639    0.2728 H         1 ATP         0.0656
     37 HO3'        3.5554   -1.2733    1.4914 H         1 ATP         0.4386
     38 H2'        -0.0011    0.0027    0.0003 H         1 ATP         0.0788
     39 HO2'        0.8082    0.1199    2.7232 H         1 ATP         0.4363
     40 H1'         1.7826    1.9024    1.6451 H         1 ATP         0.1225
     41 H8         -0.1116    1.6863   -1.6984 H         1 ATP         0.3824
     42 HN62       -2.5420    7.0730    0.0447 H         1 ATP         0.4018
     43 H2          0.1969    5.7893    3.3086 H         1 ATP         0.0652
     44 H44        -1.3097    6.9080    1.9642 H         1 ATP         0.4503
     45 H45        -1.5735    3.7351   -1.9538 H         1 ATP         0.5209
@<TRIPOS>BOND
     1    1    2 2
     2    1    3 1
     3    1    4 1
     4    1    8 1
     5    4   32 1
     6    5    6 2
     7    5    7 1
     8    5    8 1
     9    5   12 1
    10    9   10 2
    11    9   11 1
    12    9   12 1
    13    9   13 1
    14   13   14 1
    15   14   15 1
    16   14   33 1
    17   14   34 1
    18   15   16 1
    19   15   17 1
    20   15   35 1
    21   16   21 1
    22   17   18 1
    23   17   19 1
    24   17   36 1
    25   18   37 1
    26   19   20 1
    27   19   21 1
    28   19   38 1
    29   20   39 1
    30   21   22 1
    31   21   40 1
    32   22   23 ar
    33   22   31 ar
    34   23   24 ar
    35   23   41 1
    36   24   25 ar
    37   24   45 1
    38   25   26 ar
    39   25   31 ar
    40   26   27 2
    41   26   28 ar
    42   27   42 1
    43   28   29 ar
    44   28   44 1
    45   29   30 ar
    46   29   43 1
    47   30   31 ar
@<TRIPOS>SUBSTRUCTURE
     1 ATP         1 GROUP 0 A     ****
@<TRIPOS>MOLECULE
[[[3,4-dihydroxy-5-(6-imino-7,8-dihydro-1~{H}-purin-8-ylium-9-yl)tetrahydrofuran-2-yl]methoxy-oxido-phosphoryl]oxy-oxido-phosphoryl] hydrogen phosphate
   45    47     1     0     0
SMALL
USER_CHARGES

@<TRIPOS>ATOM
      1 PG         -5.7822   -5.6415    5.6488 P.3       1 ATP         1.5631
      2 O1G        -5.6387   -4.9085    6.9639 O.co2     1 ATP        -0.8806
      3 O2G        -6.3474   -7.0435    5.5980 O.co2     1 ATP        -0.8806
      4 O3G        -6.6344   -4.7015    4.6212 O.3       1 ATP        -0.8165
      5 PB         -2.9353   -6.3403    5.2605 P.3       1 ATP         1.6877
      6 O1B        -2.3977   -5.7007    6.5211 O.co2     1 ATP        -0.8727
      7 O2B        -3.1091   -7.8391    5.1552 O.co2     1 ATP        -0.8727
      8 O3B        -4.3480   -5.6209    4.8700 O.3       1 ATP        -0.8330
      9 PA         -2.2652   -6.0681    2.3913 P.3       1 ATP         1.6036
     10 O1A        -3.5375   -5.3691    1.9635 O.co2     1 ATP        -0.9062
     11 O2A        -2.0545   -7.5378    2.0994 O.co2     1 ATP        -0.9062
     12 O3A        -2.0456   -5.8259    3.9922 O.3       1 ATP        -0.8166
     13 O5'        -0.9724   -5.2440    1.8220 O.3       1 ATP        -0.5510
     14 C5'        -0.7840   -3.8935    2.2172 C.3       1 ATP         0.2099
     15 C4'        -0.0724   -3.1466    1.1027 C.3       1 ATP         0.0598
     16 O4'        -0.8674   -3.1929   -0.0945 O.3       1 ATP        -0.3455
     17 C3'         0.1338   -1.6715    1.4027 C.3       1 ATP         0.0742
     18 O3'         1.2893   -1.4445    2.1808 O.3       1 ATP        -0.6025
     19 C2'         0.2158   -1.0724    0.0128 C.3       1 ATP         0.1145
     20 O2'         1.5141   -1.2448   -0.5513 O.3       1 ATP        -0.5835
     21 C1'        -0.7897   -1.9176   -0.7583 C.3       1 ATP         0.3776
     22 N9         -2.1040   -1.3333   -0.7704 N.pl3     1 ATP        -0.4429
     23 C8         -3.0590   -1.5123    0.1363 C.ar      1 ATP         0.2964
     24 N7         -4.1655   -0.8354   -0.1554 N.pl3     1 ATP        -0.4957
     25 C5         -3.8852   -0.1874   -1.3253 C.ar      1 ATP        -0.1346
     26 C6         -4.7113    0.7160   -2.1458 C.ar      1 ATP         0.7213
     27 N6         -5.9213    1.0209   -1.8021 N.2       1 ATP        -0.8215
     28 N1         -4.0411    1.1673   -3.2764 N.pl3     1 ATP        -0.8455
     29 C2         -2.7403    0.7865   -3.5638 C.ar      1 ATP         0.6477
     30 N3         -1.9921   -0.0108   -2.8519 N.2       1 ATP        -0.5707
     31 C4         -2.6302   -0.4747   -1.7239 C.ar      1 ATP         0.2637
     32 HOG3       -6.8135   -5.0400    3.7181 H         1 ATP         0.4378
     33 H5'1       -1.7618   -3.4448    2.4164 H         1 ATP         0.0340
     34 H5'2       -0.1874   -3.8744    3.1341 H         1 ATP         0.0340
     35 H4'         0.8874   -3.6466    0.8805 H         1 ATP         0.0910
     36 H3'        -0.7376   -1.2333    1.9867 H         1 ATP         0.0656
     37 HO3'        1.3408   -0.4870    2.3219 H         1 ATP         0.4386
     38 H2'        -0.0384   -0.0310    0.0096 H         1 ATP         0.0788
     39 HO2'        2.1463   -0.7958    0.0370 H         1 ATP         0.4363
     40 H1'        -0.4769   -2.1002   -1.8093 H         1 ATP         0.1225
     41 H8         -2.9569   -2.1323    1.0098 H         1 ATP         0.3824
     42 HN62       -6.3169    1.6552   -2.5012 H         1 ATP         0.4018
     43 H2         -2.3612    1.2343   -4.4957 H         1 ATP         0.0652
     44 H44        -4.5223    1.7976   -3.9117 H         1 ATP         0.4503
     45 H45        -5.0218   -0.8132    0.3804 H         1 ATP         0.5209
@<TRIPOS>BOND
     1    1    2 2
     2    1    3 1
     3    1    4 1
     4    1    8 1
     5    4   32 1
     6    5    6 2
     7    5    7 1
     8    5    8 1
     9    5   12 1
    10    9   10 2
    11    9   11 1
    12    9   12 1
    13    9   13 1
    14   13   14 1
    15   14   15 1
    16   14   33 1
    17   14   34 1
    18   15   16 1
    19   15   17 1
    20   15   35 1
    21   16   21 1
    22   17   18 1
    23   17   19 1
    24   17   36 1
    25   18   37 1
    26   19   20 1
    27   19   21 1
    28   19   38 1
    29   20   39 1
    30   21   22 1
    31   21   40 1
    32   22   23 ar
    33   22   31 ar
    34   23   24 ar
    35   23   41 1
    36   24   25 ar
    37   24   45 1
    38   25   26 ar
    39   25   31 ar
    40   26   27 2
    41   26   28 ar
    42   27   42 1
    43   28   29 ar
    44   28   44 1
    45   29   30 ar
    46   29   43 1
    47   30   31 ar
@<TRIPOS>SUBSTRUCTURE
     1 ATP         1 GROUP 0 A     ****
@<TRIPOS>MOLECULE
[[[3,4-dihydroxy-5-(6-imino-7,8-dihydro-1~{H}-purin-8-ylium-9-yl)tetrahydrofuran-2-yl]methoxy-oxido-phosphoryl]oxy-oxido-phosphoryl] hydrogen phosphate
   45    47     1     0     0
SMALL
USER_CHARGES

@<TRIPOS>ATOM
      1 PG         -4.7414   -6.2333    6.5919 P.3       1 ATP         1.5631
      2 O1G        -3.8314   -5.8096    7.7232 O.co2     1 ATP        -0.8806
      3 O2G        -5.3414   -7.6212    6.5553 O.co2     1 ATP        -0.8806
      4 O3G        -5.9494   -5.1426    6.4617 O.3       1 ATP        -0.8165
      5 PB         -4.5615   -6.0640    3.6453 P.3       1 ATP         1.6877
      6 O1B        -4.8335   -7.5208    3.3434 O.co2     1 ATP        -0.8727
      7 O2B        -5.6258   -5.0093    3.4395 O.co2     1 ATP        -0.8727
      8 O3B        -3.9928   -5.9430    5.1710 O.3       1 ATP        -0.8330
      9 PA         -1.7207   -6.2770    2.8455 P.3       1 ATP         1.6036
     10 O1A        -1.8040   -7.6470    2.2080 O.co2     1 ATP        -0.9062
     11 O2A        -1.1163   -6.0995    4.2214 O.co2     1 ATP        -0.9062
     12 O3A        -3.2113   -5.6078    2.8492 O.3       1 ATP        -0.8166
     13 O5'        -0.9724   -5.2440    1.8220 O.3       1 ATP        -0.5510
     14 C5'        -0.7840   -3.8935    2.2172 C.3       1 ATP         0.2099
     15 C4'        -0.0724   -3.1466    1.1027 C.3       1 ATP         0.0598
     16 O4'        -0.8674   -3.1929   -0.0945 O.3       1 ATP        -0.3455
     17 C3'         0.1338   -1.6715    1.4027 C.3       1 ATP         0.0742
     18 O3'         1.2893   -1.4445    2.1808 O.3       1 ATP        -0.6025
     19 C2'         0.2158   -1.0724    0.0128 C.3       1 ATP         0.1145
     20 O2'         1.5141   -1.2448   -0.5513 O.3       1 ATP        -0.5835
     21 C1'        -0.7897   -1.9176   -0.7583 C.3       1 ATP         0.3776
     22 N9         -2.1040   -1.3333   -0.7704 N.pl3     1 ATP        -0.4429
     23 C8         -3.0590   -1.5123    0.1363 C.ar      1 ATP         0.2964
     24 N7         -4.1655   -0.8354   -0.1554 N.pl3     1 ATP        -0.4957
     25 C5         -3.8852   -0.1874   -1.3253 C.ar      1 ATP        -0.1346
     26 C6         -4.7113    0.7160   -2.1458 C.ar      1 ATP         0.7213
     27 N6         -5.9213    1.0209   -1.8021 N.2       1 ATP        -0.8215
     28 N1         -4.0411    1.1673   -3.2764 N.pl3     1 ATP        -0.8455
     29 C2         -2.7403    0.7865   -3.5638 C.ar      1 ATP         0.6477
     30 N3         -1.9921   -0.0108   -2.8519 N.2       1 ATP        -0.5707
     31 C4         -2.6302   -0.4747   -1.7239 C.ar      1 ATP         0.2637
     32 HOG3       -6.6285   -5.2787    5.7669 H         1 ATP         0.4378
     33 H5'1       -1.7618   -3.4448    2.4164 H         1 ATP         0.0340
     34 H5'2       -0.1874   -3.8744    3.1341 H         1 ATP         0.0340
     35 H4'         0.8874   -3.6466    0.8805 H         1 ATP         0.0910
     36 H3'        -0.7376   -1.2333    1.9867 H         1 ATP         0.0656
     37 HO3'        1.3408   -0.4870    2.3219 H         1 ATP         0.4386
     38 H2'        -0.0384   -0.0310    0.0096 H         1 ATP         0.0788
     39 HO2'        2.1463   -0.7958    0.0370 H         1 ATP         0.4363
     40 H1'        -0.4769   -2.1002   -1.8093 H         1 ATP         0.1225
     41 H8         -2.9569   -2.1323    1.0098 H         1 ATP         0.3824
     42 HN62       -6.3169    1.6552   -2.5012 H         1 ATP         0.4018
     43 H2         -2.3612    1.2343   -4.4957 H         1 ATP         0.0652
     44 H44        -4.5223    1.7976   -3.9117 H         1 ATP         0.4503
     45 H45        -5.0218   -0.8132    0.3804 H         1 ATP         0.5209
@<TRIPOS>BOND
     1    1    2 2
     2    1    3 1
     3    1    4 1
     4    1    8 1
     5    4   32 1
     6    5    6 2
     7    5    7 1
     8    5    8 1
     9    5   12 1
    10    9   10 2
    11    9   11 1
    12    9   12 1
    13    9   13 1
    14   13   14 1
    15   14   15 1
    16   14   33 1
    17   14   34 1
    18   15   16 1
    19   15   17 1
    20   15   35 1
    21   16   21 1
    22   17   18 1
    23   17   19 1
    24   17   36 1
    25   18   37 1
    26   19   20 1
    27   19   21 1
    28   19   38 1
    29   20   39 1
    30   21   22 1
    31   21   40 1
    32   22   23 ar
    33   22   31 ar
    34   23   24 ar
    35   23   41 1
    36   24   25 ar
    37   24   45 1
    38   25   26 ar
    39   25   31 ar
    40   26   27 2
    41   26   28 ar
    42   27   42 1
    43   28   29 ar
    44   28   44 1
    45   29   30 ar
    46   29   43 1
    47   30   31 ar
@<TRIPOS>SUBSTRUCTURE
     1 ATP         1 GROUP 0 A     ****
@<TRIPOS>MOLECULE
[[[3,4-dihydroxy-5-(6-imino-7,8-dihydro-1~{H}-purin-8-ylium-9-yl)tetrahydrofuran-2-yl]methoxy-oxido-phosphoryl]oxy-oxido-phosphoryl] hydrogen phosphate
   45    47     1     0     0
SMALL
USER_CHARGES

@<TRIPOS>ATOM
      1 PG          2.9566    0.4458   -8.9830 P.3       1 ATP         1.5631
      2 O1G         4.0906    1.4084   -9.2570 O.co2     1 ATP        -0.8806
      3 O2G         1.5709    0.7004   -9.5331 O.co2     1 ATP        -0.8806
      4 O3G         3.4266   -1.0513   -9.4343 O.3       1 ATP        -0.8165
      5 PB          1.9171   -0.8520   -6.5379 P.3       1 ATP         1.6877
      6 O1B         0.4691   -0.4440   -6.6939 O.co2     1 ATP        -0.8727
      7 O2B         2.3720   -2.2605   -6.8493 O.co2     1 ATP        -0.8727
      8 O3B         2.8492    0.1959   -7.3737 O.3       1 ATP        -0.8330
      9 PA          2.3336    0.9636   -4.2390 P.3       1 ATP         1.6036
     10 O1A         0.8796    1.3120   -4.0049 O.co2     1 ATP        -0.9062
     11 O2A         3.2620    1.9405   -4.9270 O.co2     1 ATP        -0.9062
     12 O3A         2.4109   -0.4633   -5.0313 O.3       1 ATP        -0.8166
     13 O5'         3.0213    0.5153   -2.8245 O.3       1 ATP        -0.5510
     14 C5'         2.2816   -0.2918   -1.9206 C.3       1 ATP         0.2099
     15 C4'         2.7248    0.0226   -0.4980 C.3       1 ATP         0.0598
     16 O4'         2.4697    1.4219   -0.2462 O.3       1 ATP        -0.3455
     17 C3'         1.9404   -0.7419    0.5596 C.3       1 ATP         0.0742
     18 O3'         2.7418   -0.8086    1.7389 O.3       1 ATP        -0.6025
     19 C2'         0.7477    0.1630    0.7858 C.3       1 ATP         0.1145
     20 O2'         0.1373   -0.0577    2.0407 O.3       1 ATP        -0.5835
     21 C1'         1.3733    1.5427    0.6747 C.3       1 ATP         0.3776
     22 N9          0.4520    2.5240    0.1767 N.pl3     1 ATP        -0.4429
     23 C8          0.5691    3.2215   -0.9485 C.ar      1 ATP         0.2964
     24 N7         -0.4499    4.0551   -1.1342 N.pl3     1 ATP        -0.4957
     25 C5         -1.2618    3.8674   -0.0512 C.ar      1 ATP        -0.1346
     26 C6         -2.5420    4.5007    0.3120 C.ar      1 ATP         0.7213
     27 N6         -3.0874    5.3993   -0.4432 N.2       1 ATP        -0.8215
     28 N1         -3.0494    4.0205    1.5133 N.pl3     1 ATP        -0.8455
     29 C2         -2.3933    3.0527    2.2567 C.ar      1 ATP         0.6477
     30 N3         -1.2611    2.4796    1.9536 N.2       1 ATP        -0.5707
     31 C4         -0.7334    2.9358    0.7669 C.ar      1 ATP         0.2637
     32 HOG3        2.7956   -1.7934   -9.3186 H         1 ATP         0.4378
     33 H5'1        1.2163   -0.0770   -2.0471 H         1 ATP         0.0340
     34 H5'2        2.4655   -1.3443   -2.1563 H         1 ATP         0.0340
     35 H4'         3.8044   -0.1397   -0.4040 H         1 ATP         0.0910
     36 H3'         1.6764   -1.7639    0.2728 H         1 ATP         0.0656
     37 HO3'        2.2232   -1.2979    2.3953 H         1 ATP         0.4386
     38 H2'        -0.0011    0.0027    0.0003 H         1 ATP         0.0788
     39 HO2'       -0.1563   -0.9855    2.0596 H         1 ATP         0.4363
     40 H1'         1.7826    1.9024    1.6451 H         1 ATP         0.1225
     41 H8          1.3912    3.1285   -1.6365 H         1 ATP         0.3824
     42 HN62       -3.9637    5.7083   -0.0142 H         1 ATP         0.4018
     43 H2         -2.9317    2.7866    3.1796 H         1 ATP         0.0652
     44 H44        -3.9307    4.3923    1.8558 H         1 ATP         0.4503
     45 H45        -0.5835    4.6857   -1.9122 H         1 ATP         0.5209
@<TRIPOS>BOND
     1    1    2 2
     2    1    3 1
     3    1    4 1
     4    1    8 1
     5    4   32 1
     6    5    6 2
     7    5    7 1
     8    5    8 1
     9    5   12 1
    10    9   10 2
    11    9   11 1
    12    9   12 1
    13    9   13 1
    14   13   14 1
    15   14   15 1
    16   14   33 1
    17   14   34 1
    18   15   16 1
    19   15   17 1
    20   15   35 1
    21   16   21 1
    22   17   18 1
    23   17   19 1
    24   17   36 1
    25   18   37 1
    26   19   20 1
    27   19   21 1
    28   19   38 1
    29   20   39 1
    30   21   22 1
    31   21   40 1
    32   22   23 ar
    33   22   31 ar
    34   23   24 ar
    35   23   41 1
    36   24   25 ar
    37   24   45 1
    38   25   26 ar
    39   25   31 ar
    40   26   27 2
    41   26   28 ar
    42   27   42 1
    43   28   29 ar
    44   28   44 1
    45   29   30 ar
    46   29   43 1
    47   30   31 ar
@<TRIPOS>SUBSTRUCTURE
     1 ATP         1 GROUP 0 A     ****
@<TRIPOS>MOLECULE
[[[3,4-dihydroxy-5-(6-imino-7,8-dihydro-1~{H}-purin-8-ylium-9-yl)tetrahydrofuran-2-yl]methoxy-oxido-phosphoryl]oxy-oxido-phosphoryl] hydrogen phosphate
   45    47     1     0     0
SMALL
USER_CHARGES

@<TRIPOS>ATOM
      1 PG          6.0473   -4.2166   -5.0629 P.3       1 ATP         1.5631
      2 O1G         6.4877   -4.5813   -3.6627 O.co2     1 ATP        -0.8806
      3 O2G         7.0580   -3.8298   -6.1196 O.co2     1 ATP        -0.8806
      4 O3G         5.1234   -5.4289   -5.6482 O.3       1 ATP        -0.8165
      5 PB          5.0227   -1.5062   -4.4736 P.3       1 ATP         1.6877
      6 O1B         5.3188   -1.4975   -2.9904 O.co2     1 ATP        -0.8727
      7 O2B         5.8921   -0.7462   -5.4504 O.co2     1 ATP        -0.8727
      8 O3B         4.9037   -3.0555   -4.9745 O.3       1 ATP        -0.8330
      9 PA          2.7407    0.3769   -4.4297 P.3       1 ATP         1.6036
     10 O1A         1.2546    0.2227   -4.6707 O.co2     1 ATP        -0.9062
     11 O2A         3.5325    1.4517   -5.1421 O.co2     1 ATP        -0.9062
     12 O3A         3.4685   -1.0610   -4.6995 O.3       1 ATP        -0.8166
     13 O5'         3.0213    0.5153   -2.8245 O.3       1 ATP        -0.5510
     14 C5'         2.2816   -0.2918   -1.9206 C.3       1 ATP         0.2099
     15 C4'         2.7248    0.0226   -0.4980 C.3       1 ATP         0.0598
     16 O4'         2.4697    1.4219   -0.2462 O.3       1 ATP        -0.3455
     17 C3'         1.9404   -0.7419    0.5596 C.3       1 ATP         0.0742
     18 O3'         2.7418   -0.8086    1.7389 O.3       1 ATP        -0.6025
     19 C2'         0.7477    0.1630    0.7858 C.3       1 ATP         0.1145
     20 O2'         0.1373   -0.0577    2.0407 O.3       1 ATP        -0.5835
     21 C1'         1.3733    1.5427    0.6747 C.3       1 ATP         0.3776
     22 N9          0.4520    2.5240    0.1767 N.pl3     1 ATP        -0.4429
     23 C8         -0.8620    2.5492    0.3743 C.ar      1 ATP         0.2964
     24 N7         -1.4419    3.5886   -0.2183 N.pl3     1 ATP        -0.4957
     25 C5         -0.4215    4.2614   -0.8294 C.ar      1 ATP        -0.1346
     26 C6         -0.4310    5.4918   -1.6405 C.ar      1 ATP         0.7213
     27 N6         -1.5302    6.1308   -1.8826 N.2       1 ATP        -0.8215
     28 N1          0.8382    5.8461   -2.0817 N.pl3     1 ATP        -0.8455
     29 C2          1.9625    5.0982   -1.7709 C.ar      1 ATP         0.6477
     30 N3          1.9930    4.0077   -1.0554 N.2       1 ATP        -0.5707
     31 C4          0.7483    3.6314   -0.6038 C.ar      1 ATP         0.2637
     32 HOG3        4.7578   -5.3415   -6.5543 H         1 ATP         0.4378
     33 H5'1        1.2163   -0.0770   -2.0471 H         1 ATP         0.0340
     34 H5'2        2.4655   -1.3443   -2.1563 H         1 ATP         0.0340
     35 H4'         3.8044   -0.1397   -0.4040 H         1 ATP         0.0910
     36 H3'         1.6764   -1.7639    0.2728 H         1 ATP         0.0656
     37 HO3'        2.2232   -1.2979    2.3953 H         1 ATP         0.4386
     38 H2'        -0.0011    0.0027    0.0003 H         1 ATP         0.0788
     39 HO2'       -0.1563   -0.9855    2.0596 H         1 ATP         0.4363
     40 H1'         1.7826    1.9024    1.6451 H         1 ATP         0.1225
     41 H8         -1.4030    1.8165    0.9473 H         1 ATP         0.3824
     42 HN62       -1.3197    6.9504   -2.4583 H         1 ATP         0.4018
     43 H2          2.8857    5.5186   -2.1994 H         1 ATP         0.0652
     44 H44         0.9433    6.6815   -2.6502 H         1 ATP         0.4503
     45 H45        -2.4254    3.8199   -0.2108 H         1 ATP         0.5209
@<TRIPOS>BOND
     1    1    2 2
     2    1    3 1
     3    1    4 1
     4    1    8 1
     5    4   32 1
     6    5    6 2
     7    5    7 1
     8    5    8 1
     9    5   12 1
    10    9   10 2
    11    9   11 1
    12    9   12 1
    13    9   13 1
    14   13   14 1
    15   14   15 1
    16   14   33 1
    17   14   34 1
    18   15   16 1
    19   15   17 1
    20   15   35 1
    21   16   21 1
    22   17   18 1
    23   17   19 1
    24   17   36 1
    25   18   37 1
    26   19   20 1
    27   19   21 1
    28   19   38 1
    29   20   39 1
    30   21   22 1
    31   21   40 1
    32   22   23 ar
    33   22   31 ar
    34   23   24 ar
    35   23   41 1
    36   24   25 ar
    37   24   45 1
    38   25   26 ar
    39   25   31 ar
    40   26   27 2
    41   26   28 ar
    42   27   42 1
    43   28   29 ar
    44   28   44 1
    45   29   30 ar
    46   29   43 1
    47   30   31 ar
@<TRIPOS>SUBSTRUCTURE
     1 ATP         1 GROUP 0 A     ****
@<TRIPOS>MOLECULE
[[[3,4-dihydroxy-5-(6-imino-7,8-dihydro-1~{H}-purin-8-ylium-9-yl)tetrahydrofuran-2-yl]methoxy-oxido-phosphoryl]oxy-oxido-phosphoryl] hydrogen phosphate
   45    47     1     0     0
SMALL
USER_CHARGES

@<TRIPOS>ATOM
      1 PG          1.8712   -7.5582    7.0753 P.3       1 ATP         1.5631
      2 O1G         1.0492   -7.2975    8.3178 O.co2     1 ATP        -0.8806
      3 O2G         3.2998   -7.0720    6.9723 O.co2     1 ATP        -0.8806
      4 O3G         1.8451   -9.1605    6.7628 O.3       1 ATP        -0.8165
      5 PB         -0.4800   -7.3907    5.2900 P.3       1 ATP         1.6877
      6 O1B        -0.5390   -8.8503    4.8982 O.co2     1 ATP        -0.8727
      7 O2B        -1.4519   -6.8087    6.2921 O.co2     1 ATP        -0.8727
      8 O3B         1.0403   -7.0388    5.7701 O.3       1 ATP        -0.8330
      9 PA         -1.7207   -6.2770    2.8455 P.3       1 ATP         1.6036
     10 O1A        -2.8745   -5.5693    3.5224 O.co2     1 ATP        -0.9062
     11 O2A        -1.9354   -7.5877    2.1206 O.co2     1 ATP        -0.9062
     12 O3A        -0.5195   -6.4829    3.9339 O.3       1 ATP        -0.8166
     13 O5'        -0.9724   -5.2440    1.8220 O.3       1 ATP        -0.5510
     14 C5'        -0.7840   -3.8935    2.2172 C.3       1 ATP         0.2099
     15 C4'        -0.0724   -3.1466    1.1027 C.3       1 ATP         0.0598
     16 O4'        -0.8674   -3.1929   -0.0945 O.3       1 ATP        -0.3455
     17 C3'         0.1338   -1.6715    1.4027 C.3       1 ATP         0.0742
     18 O3'         1.2893   -1.4445    2.1808 O.3       1 ATP        -0.6025
     19 C2'         0.2158   -1.0724    0.0128 C.3       1 ATP         0.1145
     20 O2'         1.5141   -1.2448   -0.5513 O.3       1 ATP        -0.5835
     21 C1'        -0.7897   -1.9176   -0.7583 C.3       1 ATP         0.3776
     22 N9         -2.1040   -1.3333   -0.7704 N.pl3     1 ATP        -0.4429
     23 C8         -3.0590   -1.5123    0.1363 C.ar      1 ATP         0.2964
     24 N7         -4.1655   -0.8354   -0.1554 N.pl3     1 ATP        -0.4957
     25 C5         -3.8852   -0.1874   -1.3253 C.ar      1 ATP        -0.1346
     26 C6         -4.7113    0.7160   -2.1458 C.ar      1 ATP         0.7213
     27 N6         -5.9213    1.0209   -1.8021 N.2       1 ATP        -0.8215
     28 N1         -4.0411    1.1673   -3.2764 N.pl3     1 ATP        -0.8455
     29 C2         -2.7403    0.7865   -3.5638 C.ar      1 ATP         0.6477
     30 N3         -1.9921   -0.0108   -2.8519 N.2       1 ATP        -0.5707
     31 C4         -2.6302   -0.4747   -1.7239 C.ar      1 ATP         0.2637
     32 HOG3        2.3367   -9.4919    5.9813 H         1 ATP         0.4378
     33 H5'1       -1.7618   -3.4448    2.4164 H         1 ATP         0.0340
     34 H5'2       -0.1874   -3.8744    3.1341 H         1 ATP         0.0340
     35 H4'         0.8874   -3.6466    0.8805 H         1 ATP         0.0910
     36 H3'        -0.7376   -1.2333    1.9867 H         1 ATP         0.0656
     37 HO3'        1.3408   -0.4870    2.3219 H         1 ATP         0.4386
     38 H2'        -0.0384   -0.0310    0.0096 H         1 ATP         0.0788
     39 HO2'        2.1463   -0.7958    0.0370 H         1 ATP         0.4363
     40 H1'        -0.4769   -2.1002   -1.8093 H         1 ATP         0.1225
     41 H8         -2.9569   -2.1323    1.0098 H         1 ATP         0.3824
     42 HN62       -6.3169    1.6552   -2.5012 H         1 ATP         0.4018
     43 H2         -2.3612    1.2343   -4.4957 H         1 ATP         0.0652
     44 H44        -4.5223    1.7976   -3.9117 H         1 ATP         0.4503
     45 H45        -5.0218   -0.8132    0.3804 H         1 ATP         0.5209
@<TRIPOS>BOND
     1    1    2 2
     2    1    3 1
     3    1    4 1
     4    1    8 1
     5    4   32 1
     6    5    6 2
     7    5    7 1
     8    5    8 1
     9    5   12 1
    10    9   10 2
    11    9   11 1
    12    9   12 1
    13    9   13 1
    14   13   14 1
    15   14   15 1
    16   14   33 1
    17   14   34 1
    18   15   16 1
    19   15   17 1
    20   15   35 1
    21   16   21 1
    22   17   18 1
    23   17   19 1
    24   17   36 1
    25   18   37 1
    26   19   20 1
    27   19   21 1
    28   19   38 1
    29   20   39 1
    30   21   22 1
    31   21   40 1
    32   22   23 ar
    33   22   31 ar
    34   23   24 ar
    35   23   41 1
    36   24   25 ar
    37   24   45 1
    38   25   26 ar
    39   25   31 ar
    40   26   27 2
    41   26   28 ar
    42   27   42 1
    43   28   29 ar
    44   28   44 1
    45   29   30 ar
    46   29   43 1
    47   30   31 ar
@<TRIPOS>SUBSTRUCTURE
     1 ATP         1 GROUP 0 A     ****
@<TRIPOS>MOLECULE
[[[3,4-dihydroxy-5-(6-imino-7,8-dihydro-1~{H}-purin-8-ylium-9-yl)tetrahydrofuran-2-yl]methoxy-oxido-phosphoryl]oxy-oxido-phosphoryl] hydrogen phosphate
   45    47     1     0     0
SMALL
USER_CHARGES

@<TRIPOS>ATOM
      1 PG          6.5095   -4.2296   -4.6284 P.3       1 ATP         1.5631
      2 O1G         7.4944   -3.8283   -5.7038 O.co2     1 ATP        -0.8806
      3 O2G         5.4238   -5.2448   -4.9084 O.co2     1 ATP        -0.8806
      4 O3G         7.3468   -4.7153   -3.3135 O.3       1 ATP        -0.8165
      5 PB          6.5300   -1.5474   -3.3838 P.3       1 ATP         1.6877
      6 O1B         7.2469   -1.9242   -2.1065 O.co2     1 ATP        -0.8727
      7 O2B         7.2455   -0.8150   -4.4969 O.co2     1 ATP        -0.8727
      8 O3B         5.8278   -2.8847   -4.0038 O.3       1 ATP        -0.8330
      9 PA          3.9554   -0.2064   -3.9565 P.3       1 ATP         1.6036
     10 O1A         3.2313   -1.4129   -4.5136 O.co2     1 ATP        -0.9062
     11 O2A         4.4942    0.8660   -4.8781 O.co2     1 ATP        -0.9062
     12 O3A         5.1753   -0.7215   -2.9994 O.3       1 ATP        -0.8166
     13 O5'         3.0213    0.5153   -2.8245 O.3       1 ATP        -0.5510
     14 C5'         2.2816   -0.2918   -1.9206 C.3       1 ATP         0.2099
     15 C4'         2.7248    0.0226   -0.4980 C.3       1 ATP         0.0598
     16 O4'         2.4697    1.4219   -0.2462 O.3       1 ATP        -0.3455
     17 C3'         1.9404   -0.7419    0.5596 C.3       1 ATP         0.0742
     18 O3'         2.7418   -0.8086    1.7389 O.3       1 ATP        -0.6025
     19 C2'         0.7477    0.1630    0.7858 C.3       1 ATP         0.1145
     20 O2'         0.1373   -0.0577    2.0407 O.3       1 ATP        -0.5835
     21 C1'         1.3733    1.5427    0.6747 C.3       1 ATP         0.3776
     22 N9          0.4520    2.5240    0.1767 N.pl3     1 ATP        -0.4429
     23 C8          0.2216    2.8192   -1.0985 C.ar      1 ATP         0.2964
     24 N7         -0.6906    3.7763   -1.2384 N.pl3     1 ATP        -0.4957
     25 C5         -1.0575    4.1037    0.0366 C.ar      1 ATP        -0.1346
     26 C6         -2.0291    5.0943    0.5330 C.ar      1 ATP         0.7213
     27 N6         -2.7093    5.8371   -0.2800 N.2       1 ATP        -0.8215
     28 N1         -2.1051    5.1136    1.9204 N.pl3     1 ATP        -0.8455
     29 C2         -1.3354    4.2774    2.7129 C.ar      1 ATP         0.6477
     30 N3         -0.4707    3.3945    2.2944 N.2       1 ATP        -0.5707
     31 C4         -0.3734    3.3525    0.9220 C.ar      1 ATP         0.2637
     32 HOG3        7.9548   -4.0759   -2.8847 H         1 ATP         0.4378
     33 H5'1        1.2163   -0.0770   -2.0471 H         1 ATP         0.0340
     34 H5'2        2.4655   -1.3443   -2.1563 H         1 ATP         0.0340
     35 H4'         3.8044   -0.1397   -0.4040 H         1 ATP         0.0910
     36 H3'         1.6764   -1.7639    0.2728 H         1 ATP         0.0656
     37 HO3'        2.2232   -1.2979    2.3953 H         1 ATP         0.4386
     38 H2'        -0.0011    0.0027    0.0003 H         1 ATP         0.0788
     39 HO2'       -0.6141    0.5574    2.1082 H         1 ATP         0.4363
     40 H1'         1.7826    1.9024    1.6451 H         1 ATP         0.1225
     41 H8          0.7125    2.3429   -1.9292 H         1 ATP         0.3824
     42 HN62       -3.3217    6.4517    0.2629 H         1 ATP         0.4018
     43 H2         -1.5188    4.4223    3.7890 H         1 ATP         0.0652
     44 H44        -2.7470    5.7626    2.3665 H         1 ATP         0.4503
     45 H45        -1.0305    4.1680   -2.1054 H         1 ATP         0.5209
@<TRIPOS>BOND
     1    1    2 2
     2    1    3 1
     3    1    4 1
     4    1    8 1
     5    4   32 1
     6    5    6 2
     7    5    7 1
     8    5    8 1
     9    5   12 1
    10    9   10 2
    11    9   11 1
    12    9   12 1
    13    9   13 1
    14   13   14 1
    15   14   15 1
    16   14   33 1
    17   14   34 1
    18   15   16 1
    19   15   17 1
    20   15   35 1
    21   16   21 1
    22   17   18 1
    23   17   19 1
    24   17   36 1
    25   18   37 1
    26   19   20 1
    27   19   21 1
    28   19   38 1
    29   20   39 1
    30   21   22 1
    31   21   40 1
    32   22   23 ar
    33   22   31 ar
    34   23   24 ar
    35   23   41 1
    36   24   25 ar
    37   24   45 1
    38   25   26 ar
    39   25   31 ar
    40   26   27 2
    41   26   28 ar
    42   27   42 1
    43   28   29 ar
    44   28   44 1
    45   29   30 ar
    46   29   43 1
    47   30   31 ar
@<TRIPOS>SUBSTRUCTURE
     1 ATP         1 GROUP 0 A     ****
@<TRIPOS>MOLECULE
[[[3,4-dihydroxy-5-(6-imino-7,8-dihydro-1~{H}-purin-8-ylium-9-yl)tetrahydrofuran-2-yl]methoxy-oxido-phosphoryl]oxy-oxido-phosphoryl] hydrogen phosphate
   45    47     1     0     0
SMALL
USER_CHARGES

@<TRIPOS>ATOM
      1 PG         -0.8139    2.7749   -6.5818 P.3       1 ATP         1.5631
      2 O1G        -1.3628    3.8146   -5.6303 O.co2     1 ATP        -0.8806
      3 O2G        -1.7401    1.8618   -7.3538 O.co2     1 ATP        -0.8806
      4 O3G         0.1843    3.5160   -7.6402 O.3       1 ATP        -0.8165
      5 PB          1.2948    0.7130   -6.3683 P.3       1 ATP         1.6877
      6 O1B         0.4671   -0.4685   -6.8226 O.co2     1 ATP        -0.8727
      7 O2B         2.3043    1.3624   -7.2885 O.co2     1 ATP        -0.8727
      8 O3B         0.2907    1.8662   -5.7958 O.3       1 ATP        -0.8330
      9 PA          2.9232    1.2546   -3.9579 P.3       1 ATP         1.6036
     10 O1A         2.0227    2.3093   -3.3521 O.co2     1 ATP        -0.9062
     11 O2A         4.2011    1.6439   -4.6686 O.co2     1 ATP        -0.9062
     12 O3A         2.0371    0.3242   -4.9674 O.3       1 ATP        -0.8166
     13 O5'         3.2903    0.1346   -2.8241 O.3       1 ATP        -0.5510
     14 C5'         2.2816   -0.2918   -1.9206 C.3       1 ATP         0.2099
     15 C4'         2.7248    0.0226   -0.4980 C.3       1 ATP         0.0598
     16 O4'         2.4697    1.4219   -0.2462 O.3       1 ATP        -0.3455
     17 C3'         1.9404   -0.7419    0.5596 C.3       1 ATP         0.0742
     18 O3'         2.7418   -0.8086    1.7389 O.3       1 ATP        -0.6025
     19 C2'         0.7477    0.1630    0.7858 C.3       1 ATP         0.1145
     20 O2'         0.1373   -0.0577    2.0407 O.3       1 ATP        -0.5835
     21 C1'         1.3733    1.5427    0.6747 C.3       1 ATP         0.3776
     22 N9          0.4520    2.5240    0.1767 N.pl3     1 ATP        -0.4429
     23 C8         -0.2004    2.4829   -0.9804 C.ar      1 ATP         0.2964
     24 N7         -0.9830    3.5431   -1.1568 N.pl3     1 ATP        -0.4957
     25 C5         -0.8095    4.3012   -0.0331 C.ar      1 ATP        -0.1346
     26 C6         -1.4065    5.5904    0.3585 C.ar      1 ATP         0.7213
     27 N6         -2.2501    6.2030   -0.4084 N.2       1 ATP        -0.8215
     28 N1         -0.9585    6.0272    1.5994 N.pl3     1 ATP        -0.8455
     29 C2         -0.0508    5.3009    2.3532 C.ar      1 ATP         0.6477
     30 N3          0.4890    4.1592    2.0257 N.2       1 ATP        -0.5707
     31 C4          0.0637    3.7006    0.7995 C.ar      1 ATP         0.2637
     32 HOG3        0.6233    2.9712   -8.3279 H         1 ATP         0.4378
     33 H5'1        1.3514    0.2330   -2.1577 H         1 ATP         0.0340
     34 H5'2        2.1280   -1.3678   -2.0460 H         1 ATP         0.0340
     35 H4'         3.8044   -0.1397   -0.4040 H         1 ATP         0.0910
     36 H3'         1.6764   -1.7639    0.2728 H         1 ATP         0.0656
     37 HO3'        3.5554   -1.2733    1.4914 H         1 ATP         0.4386
     38 H2'        -0.0011    0.0027    0.0003 H         1 ATP         0.0788
     39 HO2'       -0.1563   -0.9855    2.0596 H         1 ATP         0.4363
     40 H1'         1.7826    1.9024    1.6451 H         1 ATP         0.1225
     41 H8         -0.1116    1.6863   -1.6984 H         1 ATP         0.3824
     42 HN62       -2.5420    7.0730    0.0447 H         1 ATP         0.4018
     43 H2          0.1969    5.7893    3.3086 H         1 ATP         0.0652
     44 H44        -1.3097    6.9080    1.9642 H         1 ATP         0.4503
     45 H45        -1.5735    3.7351   -1.9538 H         1 ATP         0.5209
@<TRIPOS>BOND
     1    1    2 2
     2    1    3 1
     3    1    4 1
     4    1    8 1
     5    4   32 1
     6    5    6 2
     7    5    7 1
     8    5    8 1
     9    5   12 1
    10    9   10 2
    11    9   11 1
    12    9   12 1
    13    9   13 1
    14   13   14 1
    15   14   15 1
    16   14   33 1
    17   14   34 1
    18   15   16 1
    19   15   17 1
    20   15   35 1
    21   16   21 1
    22   17   18 1
    23   17   19 1
    24   17   36 1
    25   18   37 1
    26   19   20 1
    27   19   21 1
    28   19   38 1
    29   20   39 1
    30   21   22 1
    31   21   40 1
    32   22   23 ar
    33   22   31 ar
    34   23   24 ar
    35   23   41 1
    36   24   25 ar
    37   24   45 1
    38   25   26 ar
    39   25   31 ar
    40   26   27 2
    41   26   28 ar
    42   27   42 1
    43   28   29 ar
    44   28   44 1
    45   29   30 ar
    46   29   43 1
    47   30   31 ar
@<TRIPOS>SUBSTRUCTURE
     1 ATP         1 GROUP 0 A     ****
@<TRIPOS>MOLECULE
[[[3,4-dihydroxy-5-(6-imino-7,8-dihydro-1~{H}-purin-8-ylium-9-yl)tetrahydrofuran-2-yl]methoxy-oxido-phosphoryl]oxy-oxido-phosphoryl] hydrogen phosphate
   45    47     1     0     0
SMALL
USER_CHARGES

@<TRIPOS>ATOM
      1 PG         -0.4345   -1.4849   -7.4575 P.3       1 ATP         1.5631
      2 O1G        -1.6506   -0.9405   -6.7417 O.co2     1 ATP        -0.8806
      3 O2G        -0.4804   -2.8239   -8.1593 O.co2     1 ATP        -0.8806
      4 O3G         0.0887   -0.3606   -8.5196 O.3       1 ATP        -0.8165
      5 PB          1.0954   -2.3317   -5.0730 P.3       1 ATP         1.6877
      6 O1B         0.0915   -1.9011   -4.0269 O.co2     1 ATP        -0.8727
      7 O2B         1.2610   -3.7877   -5.4474 O.co2     1 ATP        -0.8727
      8 O3B         0.8365   -1.4675   -6.4338 O.3       1 ATP        -0.8330
      9 PA          3.5300   -2.0730   -3.4114 P.3       1 ATP         1.6036
     10 O1A         4.7117   -1.1277   -3.4301 O.co2     1 ATP        -0.9062
     11 O2A         3.7385   -3.5712   -3.3717 O.co2     1 ATP        -0.9062
     12 O3A         2.5575   -1.7232   -4.6769 O.3       1 ATP        -0.8166
     13 O5'         2.5245   -1.6648   -2.1878 O.3       1 ATP        -0.5510
     14 C5'         2.2816   -0.2918   -1.9206 C.3       1 ATP         0.2099
     15 C4'         2.7248    0.0226   -0.4980 C.3       1 ATP         0.0598
     16 O4'         2.4697    1.4219   -0.2462 O.3       1 ATP        -0.3455
     17 C3'         1.9404   -0.7419    0.5596 C.3       1 ATP         0.0742
     18 O3'         2.7418   -0.8086    1.7389 O.3       1 ATP        -0.6025
     19 C2'         0.7477    0.1630    0.7858 C.3       1 ATP         0.1145
     20 O2'         0.1373   -0.0577    2.0407 O.3       1 ATP        -0.5835
     21 C1'         1.3733    1.5427    0.6747 C.3       1 ATP         0.3776
     22 N9          0.4520    2.5240    0.1767 N.pl3     1 ATP        -0.4429
     23 C8         -0.2004    2.4829   -0.9804 C.ar      1 ATP         0.2964
     24 N7         -0.9830    3.5431   -1.1568 N.pl3     1 ATP        -0.4957
     25 C5         -0.8095    4.3012   -0.0331 C.ar      1 ATP        -0.1346
     26 C6         -1.4065    5.5904    0.3585 C.ar      1 ATP         0.7213
     27 N6         -2.2501    6.2030   -0.4084 N.2       1 ATP        -0.8215
     28 N1         -0.9585    6.0272    1.5994 N.pl3     1 ATP        -0.8455
     29 C2         -0.0508    5.3009    2.3532 C.ar      1 ATP         0.6477
     30 N3          0.4890    4.1592    2.0257 N.2       1 ATP        -0.5707
     31 C4          0.0637    3.7006    0.7995 C.ar      1 ATP         0.2637
     32 HOG3        0.8772   -0.5656   -9.0659 H         1 ATP         0.4378
     33 H5'1        2.8432    0.3119   -2.6398 H         1 ATP         0.0340
     34 H5'2        1.2128   -0.0927   -2.0428 H         1 ATP         0.0340
     35 H4'         3.8044   -0.1397   -0.4040 H         1 ATP         0.0910
     36 H3'         1.6764   -1.7639    0.2728 H         1 ATP         0.0656
     37 HO3'        2.2232   -1.2979    2.3953 H         1 ATP         0.4386
     38 H2'        -0.0011    0.0027    0.0003 H         1 ATP         0.0788
     39 HO2'       -0.6141    0.5574    2.1082 H         1 ATP         0.4363
     40 H1'         1.7826    1.9024    1.6451 H         1 ATP         0.1225
     41 H8         -0.1116    1.6863   -1.6984 H         1 ATP         0.3824
     42 HN62       -2.5420    7.0730    0.0447 H         1 ATP         0.4018
     43 H2          0.1969    5.7893    3.3086 H         1 ATP         0.0652
     44 H44        -1.3097    6.9080    1.9642 H         1 ATP         0.4503
     45 H45        -1.5735    3.7351   -1.9538 H         1 ATP         0.5209
@<TRIPOS>BOND
     1    1    2 2
     2    1    3 1
     3    1    4 1
     4    1    8 1
     5    4   32 1
     6    5    6 2
     7    5    7 1
     8    5    8 1
     9    5   12 1
    10    9   10 2
    11    9   11 1
    12    9   12 1
    13    9   13 1
    14   13   14 1
    15   14   15 1
    16   14   33 1
    17   14   34 1
    18   15   16 1
    19   15   17 1
    20   15   35 1
    21   16   21 1
    22   17   18 1
    23   17   19 1
    24   17   36 1
    25   18   37 1
    26   19   20 1
    27   19   21 1
    28   19   38 1
    29   20   39 1
    30   21   22 1
    31   21   40 1
    32   22   23 ar
    33   22   31 ar
    34   23   24 ar
    35   23   41 1
    36   24   25 ar
    37   24   45 1
    38   25   26 ar
    39   25   31 ar
    40   26   27 2
    41   26   28 ar
    42   27   42 1
    43   28   29 ar
    44   28   44 1
    45   29   30 ar
    46   29   43 1
    47   30   31 ar
@<TRIPOS>SUBSTRUCTURE
     1 ATP         1 GROUP 0 A     ****
@<TRIPOS>MOLECULE
[[[3,4-dihydroxy-5-(6-imino-7,8-dihydro-1~{H}-purin-8-ylium-9-yl)tetrahydrofuran-2-yl]methoxy-oxido-phosphoryl]oxy-oxido-phosphoryl] hydrogen phosphate
   45    47     1     0     0
SMALL
USER_CHARGES

@<TRIPOS>ATOM
      1 PG         -3.5502   -8.0485    6.1361 P.3       1 ATP         1.5631
      2 O1G        -3.1696   -8.1540    7.5960 O.co2     1 ATP        -0.8806
      3 O2G        -3.8510   -9.2858    5.3198 O.co2     1 ATP        -0.8806
      4 O3G        -4.8111   -7.0198    6.0019 O.3       1 ATP        -0.8165
      5 PB         -0.8551   -7.4957    5.0524 P.3       1 ATP         1.6877
      6 O1B        -0.1021   -7.5218    6.3638 O.co2     1 ATP        -0.8727
      7 O2B        -0.7854   -8.6570    4.0858 O.co2     1 ATP        -0.8727
      8 O3B        -2.4240   -7.1612    5.3563 O.3       1 ATP        -0.8330
      9 PA         -0.5250   -4.5707    4.7525 P.3       1 ATP         1.6036
     10 O1A         0.4868   -4.3780    5.8613 O.co2     1 ATP        -0.9062
     11 O2A        -1.9752   -4.1885    4.9536 O.co2     1 ATP        -0.9062
     12 O3A        -0.4680   -6.1256    4.2538 O.3       1 ATP        -0.8166
     13 O5'         0.0118   -3.8395    3.3916 O.3       1 ATP        -0.5510
     14 C5'        -0.7840   -3.8935    2.2172 C.3       1 ATP         0.2099
     15 C4'        -0.0724   -3.1466    1.1027 C.3       1 ATP         0.0598
     16 O4'        -0.8674   -3.1929   -0.0945 O.3       1 ATP        -0.3455
     17 C3'         0.1338   -1.6715    1.4027 C.3       1 ATP         0.0742
     18 O3'         1.2893   -1.4445    2.1808 O.3       1 ATP        -0.6025
     19 C2'         0.2158   -1.0724    0.0128 C.3       1 ATP         0.1145
     20 O2'         1.5141   -1.2448   -0.5513 O.3       1 ATP        -0.5835
     21 C1'        -0.7897   -1.9176   -0.7583 C.3       1 ATP         0.3776
     22 N9         -2.1040   -1.3333   -0.7704 N.pl3     1 ATP        -0.4429
     23 C8         -3.0590   -1.5123    0.1363 C.ar      1 ATP         0.2964
     24 N7         -4.1655   -0.8354   -0.1554 N.pl3     1 ATP        -0.4957
     25 C5         -3.8852   -0.1874   -1.3253 C.ar      1 ATP        -0.1346
     26 C6         -4.7113    0.7160   -2.1458 C.ar      1 ATP         0.7213
     27 N6         -5.9213    1.0209   -1.8021 N.2       1 ATP        -0.8215
     28 N1         -4.0411    1.1673   -3.2764 N.pl3     1 ATP        -0.8455
     29 C2         -2.7403    0.7865   -3.5638 C.ar      1 ATP         0.6477
     30 N3         -1.9921   -0.0108   -2.8519 N.2       1 ATP        -0.5707
     31 C4         -2.6302   -0.4747   -1.7239 C.ar      1 ATP         0.2637
     32 HOG3       -5.1774   -6.8442    5.1090 H         1 ATP         0.4378
     33 H5'1       -0.9348   -4.9415    1.9415 H         1 ATP         0.0340
     34 H5'2       -1.7548   -3.4350    2.4278 H         1 ATP         0.0340
     35 H4'         0.8874   -3.6466    0.8805 H         1 ATP         0.0910
     36 H3'        -0.7376   -1.2333    1.9867 H         1 ATP         0.0656
     37 HO3'        1.1626   -1.9325    3.0084 H         1 ATP         0.4386
     38 H2'        -0.0384   -0.0310    0.0096 H         1 ATP         0.0788
     39 HO2'        2.1463   -0.7958    0.0370 H         1 ATP         0.4363
     40 H1'        -0.4769   -2.1002   -1.8093 H         1 ATP         0.1225
     41 H8         -2.9569   -2.1323    1.0098 H         1 ATP         0.3824
     42 HN62       -6.3169    1.6552   -2.5012 H         1 ATP         0.4018
     43 H2         -2.3612    1.2343   -4.4957 H         1 ATP         0.0652
     44 H44        -4.5223    1.7976   -3.9117 H         1 ATP         0.4503
     45 H45        -5.0218   -0.8132    0.3804 H         1 ATP         0.5209
@<TRIPOS>BOND
     1    1    2 2
     2    1    3 1
     3    1    4 1
     4    1    8 1
     5    4   32 1
     6    5    6 2
     7    5    7 1
     8    5    8 1
     9    5   12 1
    10    9   10 2
    11    9   11 1
    12    9   12 1
    13    9   13 1
    14   13   14 1
    15   14   15 1
    16   14   33 1
    17   14   34 1
    18   15   16 1
    19   15   17 1
    20   15   35 1
    21   16   21 1
    22   17   18 1
    23   17   19 1
    24   17   36 1
    25   18   37 1
    26   19   20 1
    27   19   21 1
    28   19   38 1
    29   20   39 1
    30   21   22 1
    31   21   40 1
    32   22   23 ar
    33   22   31 ar
    34   23   24 ar
    35   23   41 1
    36   24   25 ar
    37   24   45 1
    38   25   26 ar
    39   25   31 ar
    40   26   27 2
    41   26   28 ar
    42   27   42 1
    43   28   29 ar
    44   28   44 1
    45   29   30 ar
    46   29   43 1
    47   30   31 ar
@<TRIPOS>SUBSTRUCTURE
     1 ATP         1 GROUP 0 A     ****
@<TRIPOS>MOLECULE
[[[3,4-dihydroxy-5-(6-imino-7,8-dihydro-1~{H}-purin-8-ylium-9-yl)tetrahydrofuran-2-yl]methoxy-oxido-phosphoryl]oxy-oxido-phosphoryl] hydrogen phosphate
   45    47     1     0     0
SMALL
USER_CHARGES

@<TRIPOS>ATOM
      1 PG         -4.7498   -1.4438    6.9451 P.3       1 ATP         1.5631
      2 O1G        -5.2673   -0.2727    6.1401 O.co2     1 ATP        -0.8806
      3 O2G        -4.3358   -1.2716    8.3897 O.co2     1 ATP        -0.8806
      4 O3G        -5.8414   -2.6549    6.8595 O.3       1 ATP        -0.8165
      5 PB         -2.7158   -3.5318    6.4483 P.3       1 ATP         1.6877
      6 O1B        -1.9136   -3.3363    7.7155 O.co2     1 ATP        -0.8727
      7 O2B        -3.6624   -4.7012    6.2930 O.co2     1 ATP        -0.8727
      8 O3B        -3.5294   -2.1534    6.1261 O.3       1 ATP        -0.8330
      9 PA         -0.5250   -4.5707    4.7525 P.3       1 ATP         1.6036
     10 O1A        -1.1707   -5.8917    4.3943 O.co2     1 ATP        -0.9062
     11 O2A         0.5744   -4.5032    5.7901 O.co2     1 ATP        -0.9062
     12 O3A        -1.6952   -3.5113    5.1745 O.3       1 ATP        -0.8166
     13 O5'         0.0118   -3.8395    3.3916 O.3       1 ATP        -0.5510
     14 C5'        -0.7840   -3.8935    2.2172 C.3       1 ATP         0.2099
     15 C4'        -0.0724   -3.1466    1.1027 C.3       1 ATP         0.0598
     16 O4'        -0.8674   -3.1929   -0.0945 O.3       1 ATP        -0.3455
     17 C3'         0.1338   -1.6715    1.4027 C.3       1 ATP         0.0742
     18 O3'         1.2893   -1.4445    2.1808 O.3       1 ATP        -0.6025
     19 C2'         0.2158   -1.0724    0.0128 C.3       1 ATP         0.1145
     20 O2'         1.5141   -1.2448   -0.5513 O.3       1 ATP        -0.5835
     21 C1'        -0.7897   -1.9176   -0.7583 C.3       1 ATP         0.3776
     22 N9         -2.1040   -1.3333   -0.7704 N.pl3     1 ATP        -0.4429
     23 C8         -3.0590   -1.5123    0.1363 C.ar      1 ATP         0.2964
     24 N7         -4.1655   -0.8354   -0.1554 N.pl3     1 ATP        -0.4957
     25 C5         -3.8852   -0.1874   -1.3253 C.ar      1 ATP        -0.1346
     26 C6         -4.7113    0.7160   -2.1458 C.ar      1 ATP         0.7213
     27 N6         -5.9213    1.0209   -1.8021 N.2       1 ATP        -0.8215
     28 N1         -4.0411    1.1673   -3.2764 N.pl3     1 ATP        -0.8455
     29 C2         -2.7403    0.7865   -3.5638 C.ar      1 ATP         0.6477
     30 N3         -1.9921   -0.0108   -2.8519 N.2       1 ATP        -0.5707
     31 C4         -2.6302   -0.4747   -1.7239 C.ar      1 ATP         0.2637
     32 HOG3       -5.6490   -3.4914    7.3345 H         1 ATP         0.4378
     33 H5'1       -0.9348   -4.9415    1.9415 H         1 ATP         0.0340
     34 H5'2       -1.7548   -3.4350    2.4278 H         1 ATP         0.0340
     35 H4'         0.8874   -3.6466    0.8805 H         1 ATP         0.0910
     36 H3'        -0.7376   -1.2333    1.9867 H         1 ATP         0.0656
     37 HO3'        1.1626   -1.9325    3.0084 H         1 ATP         0.4386
     38 H2'        -0.0384   -0.0310    0.0096 H         1 ATP         0.0788
     39 HO2'        2.1463   -0.7958    0.0370 H         1 ATP         0.4363
     40 H1'        -0.4769   -2.1002   -1.8093 H         1 ATP         0.1225
     41 H8         -2.9569   -2.1323    1.0098 H         1 ATP         0.3824
     42 HN62       -6.3169    1.6552   -2.5012 H         1 ATP         0.4018
     43 H2         -2.3612    1.2343   -4.4957 H         1 ATP         0.0652
     44 H44        -4.5223    1.7976   -3.9117 H         1 ATP         0.4503
     45 H45        -5.0218   -0.8132    0.3804 H         1 ATP         0.5209
@<TRIPOS>BOND
     1    1    2 2
     2    1    3 1
     3    1    4 1
     4    1    8 1
     5    4   32 1
     6    5    6 2
     7    5    7 1
     8    5    8 1
     9    5   12 1
    10    9   10 2
    11    9   11 1
    12    9   12 1
    13    9   13 1
    14   13   14 1
    15   14   15 1
    16   14   33 1
    17   14   34 1
    18   15   16 1
    19   15   17 1
    20   15   35 1
    21   16   21 1
    22   17   18 1
    23   17   19 1
    24   17   36 1
    25   18   37 1
    26   19   20 1
    27   19   21 1
    28   19   38 1
    29   20   39 1
    30   21   22 1
    31   21   40 1
    32   22   23 ar
    33   22   31 ar
    34   23   24 ar
    35   23   41 1
    36   24   25 ar
    37   24   45 1
    38   25   26 ar
    39   25   31 ar
    40   26   27 2
    41   26   28 ar
    42   27   42 1
    43   28   29 ar
    44   28   44 1
    45   29   30 ar
    46   29   43 1
    47   30   31 ar
@<TRIPOS>SUBSTRUCTURE
     1 ATP         1 GROUP 0 A     ****
@<TRIPOS>MOLECULE
[[[3,4-dihydroxy-5-(6-imino-7,8-dihydro-1~{H}-purin-8-ylium-9-yl)tetrahydrofuran-2-yl]methoxy-oxido-phosphoryl]oxy-oxido-phosphoryl] hydrogen phosphate
   45    47     1     0     0
SMALL
USER_CHARGES

@<TRIPOS>ATOM
      1 PG          0.8682   -8.2576    0.9793 P.3       1 ATP         1.5631
      2 O1G         0.6708   -6.8190    0.5565 O.co2     1 ATP        -0.8806
      3 O2G        -0.2712   -9.2502    0.9145 O.co2     1 ATP        -0.8806
      4 O3G         2.1374   -8.8709    0.1553 O.3       1 ATP        -0.8165
      5 PB          0.8612   -7.8261    3.9046 P.3       1 ATP         1.6877
      6 O1B        -0.4687   -8.5248    4.0799 O.co2     1 ATP        -0.8727
      7 O2B         1.9310   -7.8992    4.9712 O.co2     1 ATP        -0.8727
      8 O3B         1.5107   -8.2870    2.4794 O.3       1 ATP        -0.8330
      9 PA         -0.0649   -5.0721    4.4638 P.3       1 ATP         1.6036
     10 O1A         0.8648   -4.7899    5.6242 O.co2     1 ATP        -0.9062
     11 O2A        -1.5225   -5.4005    4.7026 O.co2     1 ATP        -0.9062
     12 O3A         0.5851   -6.2576    3.5463 O.3       1 ATP        -0.8166
     13 O5'         0.0118   -3.8395    3.3916 O.3       1 ATP        -0.5510
     14 C5'        -0.7840   -3.8935    2.2172 C.3       1 ATP         0.2099
     15 C4'        -0.0724   -3.1466    1.1027 C.3       1 ATP         0.0598
     16 O4'        -0.8674   -3.1929   -0.0945 O.3       1 ATP        -0.3455
     17 C3'         0.1338   -1.6715    1.4027 C.3       1 ATP         0.0742
     18 O3'         1.2893   -1.4445    2.1808 O.3       1 ATP        -0.6025
     19 C2'         0.2158   -1.0724    0.0128 C.3       1 ATP         0.1145
     20 O2'         1.5141   -1.2448   -0.5513 O.3       1 ATP        -0.5835
     21 C1'        -0.7897   -1.9176   -0.7583 C.3       1 ATP         0.3776
     22 N9         -2.1040   -1.3333   -0.7704 N.pl3     1 ATP        -0.4429
     23 C8         -3.0590   -1.5123    0.1363 C.ar      1 ATP         0.2964
     24 N7         -4.1655   -0.8354   -0.1554 N.pl3     1 ATP        -0.4957
     25 C5         -3.8852   -0.1874   -1.3253 C.ar      1 ATP        -0.1346
     26 C6         -4.7113    0.7160   -2.1458 C.ar      1 ATP         0.7213
     27 N6         -5.9213    1.0209   -1.8021 N.2       1 ATP        -0.8215
     28 N1         -4.0411    1.1673   -3.2764 N.pl3     1 ATP        -0.8455
     29 C2         -2.7403    0.7865   -3.5638 C.ar      1 ATP         0.6477
     30 N3         -1.9921   -0.0108   -2.8519 N.2       1 ATP        -0.5707
     31 C4         -2.6302   -0.4747   -1.7239 C.ar      1 ATP         0.2637
     32 HOG3        2.3945   -9.8031    0.3199 H         1 ATP         0.4378
     33 H5'1       -0.9348   -4.9415    1.9415 H         1 ATP         0.0340
     34 H5'2       -1.7548   -3.4350    2.4278 H         1 ATP         0.0340
     35 H4'         0.8874   -3.6466    0.8805 H         1 ATP         0.0910
     36 H3'        -0.7376   -1.2333    1.9867 H         1 ATP         0.0656
     37 HO3'        1.1626   -1.9325    3.0084 H         1 ATP         0.4386
     38 H2'        -0.0384   -0.0310    0.0096 H         1 ATP         0.0788
     39 HO2'        1.4998   -0.8412   -1.4369 H         1 ATP         0.4363
     40 H1'        -0.4769   -2.1002   -1.8093 H         1 ATP         0.1225
     41 H8         -2.9569   -2.1323    1.0098 H         1 ATP         0.3824
     42 HN62       -6.3169    1.6552   -2.5012 H         1 ATP         0.4018
     43 H2         -2.3612    1.2343   -4.4957 H         1 ATP         0.0652
     44 H44        -4.5223    1.7976   -3.9117 H         1 ATP         0.4503
     45 H45        -5.0218   -0.8132    0.3804 H         1 ATP         0.5209
@<TRIPOS>BOND
     1    1    2 2
     2    1    3 1
     3    1    4 1
     4    1    8 1
     5    4   32 1
     6    5    6 2
     7    5    7 1
     8    5    8 1
     9    5   12 1
    10    9   10 2
    11    9   11 1
    12    9   12 1
    13    9   13 1
    14   13   14 1
    15   14   15 1
    16   14   33 1
    17   14   34 1
    18   15   16 1
    19   15   17 1
    20   15   35 1
    21   16   21 1
    22   17   18 1
    23   17   19 1
    24   17   36 1
    25   18   37 1
    26   19   20 1
    27   19   21 1
    28   19   38 1
    29   20   39 1
    30   21   22 1
    31   21   40 1
    32   22   23 ar
    33   22   31 ar
    34   23   24 ar
    35   23   41 1
    36   24   25 ar
    37   24   45 1
    38   25   26 ar
    39   25   31 ar
    40   26   27 2
    41   26   28 ar
    42   27   42 1
    43   28   29 ar
    44   28   44 1
    45   29   30 ar
    46   29   43 1
    47   30   31 ar
@<TRIPOS>SUBSTRUCTURE
     1 ATP         1 GROUP 0 A     ****
@<TRIPOS>MOLECULE
[[[3,4-dihydroxy-5-(6-imino-7,8-dihydro-1~{H}-purin-8-ylium-9-yl)tetrahydrofuran-2-yl]methoxy-oxido-phosphoryl]oxy-oxido-phosphoryl] hydrogen phosphate
   45    47     1     0     0
SMALL
USER_CHARGES

@<TRIPOS>ATOM
      1 PG         -5.8561   -8.6985    3.2889 P.3       1 ATP         1.5631
      2 O1G        -5.9420   -8.9495    4.7779 O.co2     1 ATP        -0.8806
      3 O2G        -5.6538   -9.8408    2.3185 O.co2     1 ATP        -0.8806
      4 O3G        -7.1757   -7.8544    2.8283 O.3       1 ATP        -0.8165
      5 PB         -4.5615   -6.0640    3.6453 P.3       1 ATP         1.6877
      6 O1B        -5.7153   -5.2076    3.1732 O.co2     1 ATP        -0.8727
      7 O2B        -4.2357   -6.1977    5.1162 O.co2     1 ATP        -0.8727
      8 O3B        -4.7231   -7.5580    3.0070 O.3       1 ATP        -0.8330
      9 PA         -1.7207   -6.2770    2.8455 P.3       1 ATP         1.6036
     10 O1A        -1.8040   -7.6470    2.2080 O.co2     1 ATP        -0.9062
     11 O2A        -1.1163   -6.0995    4.2214 O.co2     1 ATP        -0.9062
     12 O3A        -3.2113   -5.6078    2.8492 O.3       1 ATP        -0.8166
     13 O5'        -0.9724   -5.2440    1.8220 O.3       1 ATP        -0.5510
     14 C5'        -0.7840   -3.8935    2.2172 C.3       1 ATP         0.2099
     15 C4'        -0.0724   -3.1466    1.1027 C.3       1 ATP         0.0598
     16 O4'        -0.8674   -3.1929   -0.0945 O.3       1 ATP        -0.3455
     17 C3'         0.1338   -1.6715    1.4027 C.3       1 ATP         0.0742
     18 O3'         1.2893   -1.4445    2.1808 O.3       1 ATP        -0.6025
     19 C2'         0.2158   -1.0724    0.0128 C.3       1 ATP         0.1145
     20 O2'         1.5141   -1.2448   -0.5513 O.3       1 ATP        -0.5835
     21 C1'        -0.7897   -1.9176   -0.7583 C.3       1 ATP         0.3776
     22 N9         -2.1040   -1.3333   -0.7704 N.pl3     1 ATP        -0.4429
     23 C8         -3.0590   -1.5123    0.1363 C.ar      1 ATP         0.2964
     24 N7         -4.1655   -0.8354   -0.1554 N.pl3     1 ATP        -0.4957
     25 C5         -3.8852   -0.1874   -1.3253 C.ar      1 ATP        -0.1346
     26 C6         -4.7113    0.7160   -2.1458 C.ar      1 ATP         0.7213
     27 N6         -5.9213    1.0209   -1.8021 N.2       1 ATP        -0.8215
     28 N1         -4.0411    1.1673   -3.2764 N.pl3     1 ATP        -0.8455
     29 C2         -2.7403    0.7865   -3.5638 C.ar      1 ATP         0.6477
     30 N3         -1.9921   -0.0108   -2.8519 N.2       1 ATP        -0.5707
     31 C4         -2.6302   -0.4747   -1.7239 C.ar      1 ATP         0.2637
     32 HOG3       -7.2678   -7.6114    1.8824 H         1 ATP         0.4378
     33 H5'1       -1.7618   -3.4448    2.4164 H         1 ATP         0.0340
     34 H5'2       -0.1874   -3.8744    3.1341 H         1 ATP         0.0340
     35 H4'         0.8874   -3.6466    0.8805 H         1 ATP         0.0910
     36 H3'        -0.7376   -1.2333    1.9867 H         1 ATP         0.0656
     37 HO3'        1.3408   -0.4870    2.3219 H         1 ATP         0.4386
     38 H2'        -0.0384   -0.0310    0.0096 H         1 ATP         0.0788
     39 HO2'        2.1463   -0.7958    0.0370 H         1 ATP         0.4363
     40 H1'        -0.4769   -2.1002   -1.8093 H         1 ATP         0.1225
     41 H8         -2.9569   -2.1323    1.0098 H         1 ATP         0.3824
     42 HN62       -6.3169    1.6552   -2.5012 H         1 ATP         0.4018
     43 H2         -2.3612    1.2343   -4.4957 H         1 ATP         0.0652
     44 H44        -4.5223    1.7976   -3.9117 H         1 ATP         0.4503
     45 H45        -5.0218   -0.8132    0.3804 H         1 ATP         0.5209
@<TRIPOS>BOND
     1    1    2 2
     2    1    3 1
     3    1    4 1
     4    1    8 1
     5    4   32 1
     6    5    6 2
     7    5    7 1
     8    5    8 1
     9    5   12 1
    10    9   10 2
    11    9   11 1
    12    9   12 1
    13    9   13 1
    14   13   14 1
    15   14   15 1
    16   14   33 1
    17   14   34 1
    18   15   16 1
    19   15   17 1
    20   15   35 1
    21   16   21 1
    22   17   18 1
    23   17   19 1
    24   17   36 1
    25   18   37 1
    26   19   20 1
    27   19   21 1
    28   19   38 1
    29   20   39 1
    30   21   22 1
    31   21   40 1
    32   22   23 ar
    33   22   31 ar
    34   23   24 ar
    35   23   41 1
    36   24   25 ar
    37   24   45 1
    38   25   26 ar
    39   25   31 ar
    40   26   27 2
    41   26   28 ar
    42   27   42 1
    43   28   29 ar
    44   28   44 1
    45   29   30 ar
    46   29   43 1
    47   30   31 ar
@<TRIPOS>SUBSTRUCTURE
     1 ATP         1 GROUP 0 A     ****
@<TRIPOS>MOLECULE
[[[3,4-dihydroxy-5-(6-imino-7,8-dihydro-1~{H}-purin-8-ylium-9-yl)tetrahydrofuran-2-yl]methoxy-oxido-phosphoryl]oxy-oxido-phosphoryl] hydrogen phosphate
   45    47     1     0     0
SMALL
USER_CHARGES

@<TRIPOS>ATOM
      1 PG          8.7936   -0.3505   -2.0842 P.3       1 ATP         1.5631
      2 O1G         9.0402    0.1971   -0.6961 O.co2     1 ATP        -0.8806
      3 O2G         9.2221    0.4220   -3.3119 O.co2     1 ATP        -0.8806
      4 O3G         9.4277   -1.8527   -2.1693 O.3       1 ATP        -0.8165
      5 PB          6.4334   -1.5035   -3.4420 P.3       1 ATP         1.6877
      6 O1B         6.4508   -0.6140   -4.6651 O.co2     1 ATP        -0.8727
      7 O2B         6.9185   -2.9346   -3.5071 O.co2     1 ATP        -0.8727
      8 O3B         7.2154   -0.7405   -2.2287 O.3       1 ATP        -0.8330
      9 PA          3.5300   -2.0730   -3.4114 P.3       1 ATP         1.6036
     10 O1A         3.6301   -3.5805   -3.5006 O.co2     1 ATP        -0.9062
     11 O2A         3.1564   -1.2495   -4.6246 O.co2     1 ATP        -0.9062
     12 O3A         4.9303   -1.4885   -2.8054 O.3       1 ATP        -0.8166
     13 O5'         2.5245   -1.6648   -2.1878 O.3       1 ATP        -0.5510
     14 C5'         2.2816   -0.2918   -1.9206 C.3       1 ATP         0.2099
     15 C4'         2.7248    0.0226   -0.4980 C.3       1 ATP         0.0598
     16 O4'         2.4697    1.4219   -0.2462 O.3       1 ATP        -0.3455
     17 C3'         1.9404   -0.7419    0.5596 C.3       1 ATP         0.0742
     18 O3'         2.7418   -0.8086    1.7389 O.3       1 ATP        -0.6025
     19 C2'         0.7477    0.1630    0.7858 C.3       1 ATP         0.1145
     20 O2'         0.1373   -0.0577    2.0407 O.3       1 ATP        -0.5835
     21 C1'         1.3733    1.5427    0.6747 C.3       1 ATP         0.3776
     22 N9          0.4520    2.5240    0.1767 N.pl3     1 ATP        -0.4429
     23 C8         -0.2004    2.4829   -0.9804 C.ar      1 ATP         0.2964
     24 N7         -0.9830    3.5431   -1.1568 N.pl3     1 ATP        -0.4957
     25 C5         -0.8095    4.3012   -0.0331 C.ar      1 ATP        -0.1346
     26 C6         -1.4065    5.5904    0.3585 C.ar      1 ATP         0.7213
     27 N6         -2.2501    6.2030   -0.4084 N.2       1 ATP        -0.8215
     28 N1         -0.9585    6.0272    1.5994 N.pl3     1 ATP        -0.8455
     29 C2         -0.0508    5.3009    2.3532 C.ar      1 ATP         0.6477
     30 N3          0.4890    4.1592    2.0257 N.2       1 ATP        -0.5707
     31 C4          0.0637    3.7006    0.7995 C.ar      1 ATP         0.2637
     32 HOG3        9.3485   -2.3457   -3.0137 H         1 ATP         0.4378
     33 H5'1        2.8432    0.3119   -2.6398 H         1 ATP         0.0340
     34 H5'2        1.2128   -0.0927   -2.0428 H         1 ATP         0.0340
     35 H4'         3.8044   -0.1397   -0.4040 H         1 ATP         0.0910
     36 H3'         1.6764   -1.7639    0.2728 H         1 ATP         0.0656
     37 HO3'        2.2232   -1.2979    2.3953 H         1 ATP         0.4386
     38 H2'        -0.0011    0.0027    0.0003 H         1 ATP         0.0788
     39 HO2'       -0.1563   -0.9855    2.0596 H         1 ATP         0.4363
     40 H1'         1.7826    1.9024    1.6451 H         1 ATP         0.1225
     41 H8         -0.1116    1.6863   -1.6984 H         1 ATP         0.3824
     42 HN62       -2.5420    7.0730    0.0447 H         1 ATP         0.4018
     43 H2          0.1969    5.7893    3.3086 H         1 ATP         0.0652
     44 H44        -1.3097    6.9080    1.9642 H         1 ATP         0.4503
     45 H45        -1.5735    3.7351   -1.9538 H         1 ATP         0.5209
@<TRIPOS>BOND
     1    1    2 2
     2    1    3 1
     3    1    4 1
     4    1    8 1
     5    4   32 1
     6    5    6 2
     7    5    7 1
     8    5    8 1
     9    5   12 1
    10    9   10 2
    11    9   11 1
    12    9   12 1
    13    9   13 1
    14   13   14 1
    15   14   15 1
    16   14   33 1
    17   14   34 1
    18   15   16 1
    19   15   17 1
    20   15   35 1
    21   16   21 1
    22   17   18 1
    23   17   19 1
    24   17   36 1
    25   18   37 1
    26   19   20 1
    27   19   21 1
    28   19   38 1
    29   20   39 1
    30   21   22 1
    31   21   40 1
    32   22   23 ar
    33   22   31 ar
    34   23   24 ar
    35   23   41 1
    36   24   25 ar
    37   24   45 1
    38   25   26 ar
    39   25   31 ar
    40   26   27 2
    41   26   28 ar
    42   27   42 1
    43   28   29 ar
    44   28   44 1
    45   29   30 ar
    46   29   43 1
    47   30   31 ar
@<TRIPOS>SUBSTRUCTURE
     1 ATP         1 GROUP 0 A     ****
@<TRIPOS>MOLECULE
[[[3,4-dihydroxy-5-(6-imino-7,8-dihydro-1~{H}-purin-8-ylium-9-yl)tetrahydrofuran-2-yl]methoxy-oxido-phosphoryl]oxy-oxido-phosphoryl] hydrogen phosphate
   45    47     1     0     0
SMALL
USER_CHARGES

@<TRIPOS>ATOM
      1 PG         -2.3619   -3.1465   -2.1891 P.3       1 ATP         1.5631
      2 O1G        -1.3861   -2.6501   -1.1457 O.co2     1 ATP        -0.8806
      3 O2G        -2.6436   -4.6239   -2.3494 O.co2     1 ATP        -0.8806
      4 O3G        -3.7820   -2.3673   -1.9834 O.3       1 ATP        -0.8165
      5 PB         -0.6289   -2.8068   -4.5607 P.3       1 ATP         1.6877
      6 O1B        -0.4885   -4.2988   -4.7648 O.co2     1 ATP        -0.8727
      7 O2B        -0.6446   -1.8535   -5.7348 O.co2     1 ATP        -0.8727
      8 O3B        -1.9483   -2.5262   -3.6410 O.3       1 ATP        -0.8330
      9 PA          2.1372   -2.2718   -3.6563 P.3       1 ATP         1.6036
     10 O1A         2.4977   -1.2667   -4.7287 O.co2     1 ATP        -0.9062
     11 O2A         2.6452   -3.6953   -3.7281 O.co2     1 ATP        -0.9062
     12 O3A         0.5112   -2.3140   -3.5013 O.3       1 ATP        -0.8166
     13 O5'         2.5245   -1.6648   -2.1878 O.3       1 ATP        -0.5510
     14 C5'         2.2816   -0.2918   -1.9206 C.3       1 ATP         0.2099
     15 C4'         2.7248    0.0226   -0.4980 C.3       1 ATP         0.0598
     16 O4'         2.4697    1.4219   -0.2462 O.3       1 ATP        -0.3455
     17 C3'         1.9404   -0.7419    0.5596 C.3       1 ATP         0.0742
     18 O3'         2.7418   -0.8086    1.7389 O.3       1 ATP        -0.6025
     19 C2'         0.7477    0.1630    0.7858 C.3       1 ATP         0.1145
     20 O2'         0.1373   -0.0577    2.0407 O.3       1 ATP        -0.5835
     21 C1'         1.3733    1.5427    0.6747 C.3       1 ATP         0.3776
     22 N9          0.4520    2.5240    0.1767 N.pl3     1 ATP        -0.4429
     23 C8         -0.8620    2.5492    0.3743 C.ar      1 ATP         0.2964
     24 N7         -1.4419    3.5886   -0.2183 N.pl3     1 ATP        -0.4957
     25 C5         -0.4215    4.2614   -0.8294 C.ar      1 ATP        -0.1346
     26 C6         -0.4310    5.4918   -1.6405 C.ar      1 ATP         0.7213
     27 N6         -1.5302    6.1308   -1.8826 N.2       1 ATP        -0.8215
     28 N1          0.8382    5.8461   -2.0817 N.pl3     1 ATP        -0.8455
     29 C2          1.9625    5.0982   -1.7709 C.ar      1 ATP         0.6477
     30 N3          1.9930    4.0077   -1.0554 N.2       1 ATP        -0.5707
     31 C4          0.7483    3.6314   -0.6038 C.ar      1 ATP         0.2637
     32 HOG3       -4.5238   -2.5810   -2.5887 H         1 ATP         0.4378
     33 H5'1        2.8432    0.3119   -2.6398 H         1 ATP         0.0340
     34 H5'2        1.2128   -0.0927   -2.0428 H         1 ATP         0.0340
     35 H4'         3.8044   -0.1397   -0.4040 H         1 ATP         0.0910
     36 H3'         1.6764   -1.7639    0.2728 H         1 ATP         0.0656
     37 HO3'        2.2232   -1.2979    2.3953 H         1 ATP         0.4386
     38 H2'        -0.0011    0.0027    0.0003 H         1 ATP         0.0788
     39 HO2'       -0.1563   -0.9855    2.0596 H         1 ATP         0.4363
     40 H1'         1.7826    1.9024    1.6451 H         1 ATP         0.1225
     41 H8         -1.4030    1.8165    0.9473 H         1 ATP         0.3824
     42 HN62       -1.3197    6.9504   -2.4583 H         1 ATP         0.4018
     43 H2          2.8857    5.5186   -2.1994 H         1 ATP         0.0652
     44 H44         0.9433    6.6815   -2.6502 H         1 ATP         0.4503
     45 H45        -2.4254    3.8199   -0.2108 H         1 ATP         0.5209
@<TRIPOS>BOND
     1    1    2 2
     2    1    3 1
     3    1    4 1
     4    1    8 1
     5    4   32 1
     6    5    6 2
     7    5    7 1
     8    5    8 1
     9    5   12 1
    10    9   10 2
    11    9   11 1
    12    9   12 1
    13    9   13 1
    14   13   14 1
    15   14   15 1
    16   14   33 1
    17   14   34 1
    18   15   16 1
    19   15   17 1
    20   15   35 1
    21   16   21 1
    22   17   18 1
    23   17   19 1
    24   17   36 1
    25   18   37 1
    26   19   20 1
    27   19   21 1
    28   19   38 1
    29   20   39 1
    30   21   22 1
    31   21   40 1
    32   22   23 ar
    33   22   31 ar
    34   23   24 ar
    35   23   41 1
    36   24   25 ar
    37   24   45 1
    38   25   26 ar
    39   25   31 ar
    40   26   27 2
    41   26   28 ar
    42   27   42 1
    43   28   29 ar
    44   28   44 1
    45   29   30 ar
    46   29   43 1
    47   30   31 ar
@<TRIPOS>SUBSTRUCTURE
     1 ATP         1 GROUP 0 A     ****
@<TRIPOS>MOLECULE
[[[3,4-dihydroxy-5-(6-imino-7,8-dihydro-1~{H}-purin-8-ylium-9-yl)tetrahydrofuran-2-yl]methoxy-oxido-phosphoryl]oxy-oxido-phosphoryl] hydrogen phosphate
   45    47     1     0     0
SMALL
USER_CHARGES

@<TRIPOS>ATOM
      1 PG         -4.4676   -1.8131    4.8592 P.3       1 ATP         1.5631
      2 O1G        -4.6684   -3.2833    4.5666 O.co2     1 ATP        -0.8806
      3 O2G        -4.3805   -0.8022    3.7375 O.co2     1 ATP        -0.8806
      4 O3G        -5.6252   -1.3294    5.9042 O.3       1 ATP        -0.8165
      5 PB         -1.5895   -1.9213    5.5289 P.3       1 ATP         1.6877
      6 O1B        -1.1934   -1.1709    4.2769 O.co2     1 ATP        -0.8727
      7 O2B        -0.8126   -1.7617    6.8167 O.co2     1 ATP        -0.8727
      8 O3B        -3.1686   -1.6375    5.8316 O.3       1 ATP        -0.8330
      9 PA         -0.5250   -4.5707    4.7525 P.3       1 ATP         1.6036
     10 O1A        -1.1707   -5.8917    4.3943 O.co2     1 ATP        -0.9062
     11 O2A         0.5744   -4.5032    5.7901 O.co2     1 ATP        -0.9062
     12 O3A        -1.6952   -3.5113    5.1745 O.3       1 ATP        -0.8166
     13 O5'         0.0118   -3.8395    3.3916 O.3       1 ATP        -0.5510
     14 C5'        -0.7840   -3.8935    2.2172 C.3       1 ATP         0.2099
     15 C4'        -0.0724   -3.1466    1.1027 C.3       1 ATP         0.0598
     16 O4'        -0.8674   -3.1929   -0.0945 O.3       1 ATP        -0.3455
     17 C3'         0.1338   -1.6715    1.4027 C.3       1 ATP         0.0742
     18 O3'         1.2893   -1.4445    2.1808 O.3       1 ATP        -0.6025
     19 C2'         0.2158   -1.0724    0.0128 C.3       1 ATP         0.1145
     20 O2'         1.5141   -1.2448   -0.5513 O.3       1 ATP        -0.5835
     21 C1'        -0.7897   -1.9176   -0.7583 C.3       1 ATP         0.3776
     22 N9         -2.1040   -1.3333   -0.7704 N.pl3     1 ATP        -0.4429
     23 C8         -3.0590   -1.5123    0.1363 C.ar      1 ATP         0.2964
     24 N7         -4.1655   -0.8354   -0.1554 N.pl3     1 ATP        -0.4957
     25 C5         -3.8852   -0.1874   -1.3253 C.ar      1 ATP        -0.1346
     26 C6         -4.7113    0.7160   -2.1458 C.ar      1 ATP         0.7213
     27 N6         -5.9213    1.0209   -1.8021 N.2       1 ATP        -0.8215
     28 N1         -4.0411    1.1673   -3.2764 N.pl3     1 ATP        -0.8455
     29 C2         -2.7403    0.7865   -3.5638 C.ar      1 ATP         0.6477
     30 N3         -1.9921   -0.0108   -2.8519 N.2       1 ATP        -0.5707
     31 C4         -2.6302   -0.4747   -1.7239 C.ar      1 ATP         0.2637
     32 HOG3       -5.6305   -0.3923    6.1940 H         1 ATP         0.4378
     33 H5'1       -0.9348   -4.9415    1.9415 H         1 ATP         0.0340
     34 H5'2       -1.7548   -3.4350    2.4278 H         1 ATP         0.0340
     35 H4'         0.8874   -3.6466    0.8805 H         1 ATP         0.0910
     36 H3'        -0.7376   -1.2333    1.9867 H         1 ATP         0.0656
     37 HO3'        1.1626   -1.9325    3.0084 H         1 ATP         0.4386
     38 H2'        -0.0384   -0.0310    0.0096 H         1 ATP         0.0788
     39 HO2'        2.1463   -0.7958    0.0370 H         1 ATP         0.4363
     40 H1'        -0.4769   -2.1002   -1.8093 H         1 ATP         0.1225
     41 H8         -2.9569   -2.1323    1.0098 H         1 ATP         0.3824
     42 HN62       -6.3169    1.6552   -2.5012 H         1 ATP         0.4018
     43 H2         -2.3612    1.2343   -4.4957 H         1 ATP         0.0652
     44 H44        -4.5223    1.7976   -3.9117 H         1 ATP         0.4503
     45 H45        -5.0218   -0.8132    0.3804 H         1 ATP         0.5209
@<TRIPOS>BOND
     1    1    2 2
     2    1    3 1
     3    1    4 1
     4    1    8 1
     5    4   32 1
     6    5    6 2
     7    5    7 1
     8    5    8 1
     9    5   12 1
    10    9   10 2
    11    9   11 1
    12    9   12 1
    13    9   13 1
    14   13   14 1
    15   14   15 1
    16   14   33 1
    17   14   34 1
    18   15   16 1
    19   15   17 1
    20   15   35 1
    21   16   21 1
    22   17   18 1
    23   17   19 1
    24   17   36 1
    25   18   37 1
    26   19   20 1
    27   19   21 1
    28   19   38 1
    29   20   39 1
    30   21   22 1
    31   21   40 1
    32   22   23 ar
    33   22   31 ar
    34   23   24 ar
    35   23   41 1
    36   24   25 ar
    37   24   45 1
    38   25   26 ar
    39   25   31 ar
    40   26   27 2
    41   26   28 ar
    42   27   42 1
    43   28   29 ar
    44   28   44 1
    45   29   30 ar
    46   29   43 1
    47   30   31 ar
@<TRIPOS>SUBSTRUCTURE
     1 ATP         1 GROUP 0 A     ****
@<TRIPOS>MOLECULE
[[[3,4-dihydroxy-5-(6-imino-7,8-dihydro-1~{H}-purin-8-ylium-9-yl)tetrahydrofuran-2-yl]methoxy-oxido-phosphoryl]oxy-oxido-phosphoryl] hydrogen phosphate
   45    47     1     0     0
SMALL
USER_CHARGES

@<TRIPOS>ATOM
      1 PG         -1.9811    0.7356   -6.2135 P.3       1 ATP         1.5631
      2 O1G        -1.8408    1.6297   -7.4253 O.co2     1 ATP        -0.8806
      3 O2G        -2.7649    1.1869   -5.0012 O.co2     1 ATP        -0.8806
      4 O3G        -2.5649   -0.7095   -6.6999 O.3       1 ATP        -0.8165
      5 PB          0.7330    1.1236   -5.1059 P.3       1 ATP         1.6877
      6 O1B         1.2497    2.0694   -6.1671 O.co2     1 ATP        -0.8727
      7 O2B         0.3224    1.6275   -3.7403 O.co2     1 ATP        -0.8727
      8 O3B        -0.4972    0.2535   -5.7345 O.3       1 ATP        -0.8330
      9 PA          3.3343   -0.0514   -4.3264 P.3       1 ATP         1.6036
     10 O1A         4.1298    0.9787   -5.0986 O.co2     1 ATP        -0.9062
     11 O2A         3.8296   -1.4756   -4.2002 O.co2     1 ATP        -0.9062
     12 O3A         1.8106   -0.0877   -4.9151 O.3       1 ATP        -0.8166
     13 O5'         3.0213    0.5153   -2.8245 O.3       1 ATP        -0.5510
     14 C5'         2.2816   -0.2918   -1.9206 C.3       1 ATP         0.2099
     15 C4'         2.7248    0.0226   -0.4980 C.3       1 ATP         0.0598
     16 O4'         2.4697    1.4219   -0.2462 O.3       1 ATP        -0.3455
     17 C3'         1.9404   -0.7419    0.5596 C.3       1 ATP         0.0742
     18 O3'         2.7418   -0.8086    1.7389 O.3       1 ATP        -0.6025
     19 C2'         0.7477    0.1630    0.7858 C.3       1 ATP         0.1145
     20 O2'         0.1373   -0.0577    2.0407 O.3       1 ATP        -0.5835
     21 C1'         1.3733    1.5427    0.6747 C.3       1 ATP         0.3776
     22 N9          0.4520    2.5240    0.1767 N.pl3     1 ATP        -0.4429
     23 C8          0.5691    3.2215   -0.9485 C.ar      1 ATP         0.2964
     24 N7         -0.4499    4.0551   -1.1342 N.pl3     1 ATP        -0.4957
     25 C5         -1.2618    3.8674   -0.0512 C.ar      1 ATP        -0.1346
     26 C6         -2.5420    4.5007    0.3120 C.ar      1 ATP         0.7213
     27 N6         -3.0874    5.3993   -0.4432 N.2       1 ATP        -0.8215
     28 N1         -3.0494    4.0205    1.5133 N.pl3     1 ATP        -0.8455
     29 C2         -2.3933    3.0527    2.2567 C.ar      1 ATP         0.6477
     30 N3         -1.2611    2.4796    1.9536 N.2       1 ATP        -0.5707
     31 C4         -0.7334    2.9358    0.7669 C.ar      1 ATP         0.2637
     32 HOG3       -2.7129   -1.4048   -6.0240 H         1 ATP         0.4378
     33 H5'1        1.2163   -0.0770   -2.0471 H         1 ATP         0.0340
     34 H5'2        2.4655   -1.3443   -2.1563 H         1 ATP         0.0340
     35 H4'         3.8044   -0.1397   -0.4040 H         1 ATP         0.0910
     36 H3'         1.6764   -1.7639    0.2728 H         1 ATP         0.0656
     37 HO3'        3.5554   -1.2733    1.4914 H         1 ATP         0.4386
     38 H2'        -0.0011    0.0027    0.0003 H         1 ATP         0.0788
     39 HO2'       -0.1563   -0.9855    2.0596 H         1 ATP         0.4363
     40 H1'         1.7826    1.9024    1.6451 H         1 ATP         0.1225
     41 H8          1.3912    3.1285   -1.6365 H         1 ATP         0.3824
     42 HN62       -3.9637    5.7083   -0.0142 H         1 ATP         0.4018
     43 H2         -2.9317    2.7866    3.1796 H         1 ATP         0.0652
     44 H44        -3.9307    4.3923    1.8558 H         1 ATP         0.4503
     45 H45        -0.5835    4.6857   -1.9122 H         1 ATP         0.5209
@<TRIPOS>BOND
     1    1    2 2
     2    1    3 1
     3    1    4 1
     4    1    8 1
     5    4   32 1
     6    5    6 2
     7    5    7 1
     8    5    8 1
     9    5   12 1
    10    9   10 2
    11    9   11 1
    12    9   12 1
    13    9   13 1
    14   13   14 1
    15   14   15 1
    16   14   33 1
    17   14   34 1
    18   15   16 1
    19   15   17 1
    20   15   35 1
    21   16   21 1
    22   17   18 1
    23   17   19 1
    24   17   36 1
    25   18   37 1
    26   19   20 1
    27   19   21 1
    28   19   38 1
    29   20   39 1
    30   21   22 1
    31   21   40 1
    32   22   23 ar
    33   22   31 ar
    34   23   24 ar
    35   23   41 1
    36   24   25 ar
    37   24   45 1
    38   25   26 ar
    39   25   31 ar
    40   26   27 2
    41   26   28 ar
    42   27   42 1
    43   28   29 ar
    44   28   44 1
    45   29   30 ar
    46   29   43 1
    47   30   31 ar
@<TRIPOS>SUBSTRUCTURE
     1 ATP         1 GROUP 0 A     ****
@<TRIPOS>MOLECULE
[[[3,4-dihydroxy-5-(6-imino-7,8-dihydro-1~{H}-purin-8-ylium-9-yl)tetrahydrofuran-2-yl]methoxy-oxido-phosphoryl]oxy-oxido-phosphoryl] hydrogen phosphate
   45    47     1     0     0
SMALL
USER_CHARGES

@<TRIPOS>ATOM
      1 PG          5.0159   -4.5154   -6.2527 P.3       1 ATP         1.5631
      2 O1G         6.1059   -4.1075   -7.2186 O.co2     1 ATP        -0.8806
      3 O2G         3.8398   -5.3471   -6.7141 O.co2     1 ATP        -0.8806
      4 O3G         5.7074   -5.2597   -4.9745 O.3       1 ATP        -0.8165
      5 PB          3.6265   -1.9107   -6.0843 P.3       1 ATP         1.6877
      6 O1B         4.5269   -1.1415   -7.0250 O.co2     1 ATP        -0.8727
      7 O2B         2.2583   -2.3844   -6.5218 O.co2     1 ATP        -0.8727
      8 O3B         4.4564   -3.1851   -5.4905 O.3       1 ATP        -0.8330
      9 PA          2.7407    0.3769   -4.4297 P.3       1 ATP         1.6036
     10 O1A         1.2546    0.2227   -4.6707 O.co2     1 ATP        -0.9062
     11 O2A         3.5325    1.4517   -5.1421 O.co2     1 ATP        -0.9062
     12 O3A         3.4685   -1.0610   -4.6995 O.3       1 ATP        -0.8166
     13 O5'         3.0213    0.5153   -2.8245 O.3       1 ATP        -0.5510
     14 C5'         2.2816   -0.2918   -1.9206 C.3       1 ATP         0.2099
     15 C4'         2.7248    0.0226   -0.4980 C.3       1 ATP         0.0598
     16 O4'         2.4697    1.4219   -0.2462 O.3       1 ATP        -0.3455
     17 C3'         1.9404   -0.7419    0.5596 C.3       1 ATP         0.0742
     18 O3'         2.7418   -0.8086    1.7389 O.3       1 ATP        -0.6025
     19 C2'         0.7477    0.1630    0.7858 C.3       1 ATP         0.1145
     20 O2'         0.1373   -0.0577    2.0407 O.3       1 ATP        -0.5835
     21 C1'         1.3733    1.5427    0.6747 C.3       1 ATP         0.3776
     22 N9          0.4520    2.5240    0.1767 N.pl3     1 ATP        -0.4429
     23 C8         -0.8620    2.5492    0.3743 C.ar      1 ATP         0.2964
     24 N7         -1.4419    3.5886   -0.2183 N.pl3     1 ATP        -0.4957
     25 C5         -0.4215    4.2614   -0.8294 C.ar      1 ATP        -0.1346
     26 C6         -0.4310    5.4918   -1.6405 C.ar      1 ATP         0.7213
     27 N6         -1.5302    6.1308   -1.8826 N.2       1 ATP        -0.8215
     28 N1          0.8382    5.8461   -2.0817 N.pl3     1 ATP        -0.8455
     29 C2          1.9625    5.0982   -1.7709 C.ar      1 ATP         0.6477
     30 N3          1.9930    4.0077   -1.0554 N.2       1 ATP        -0.5707
     31 C4          0.7483    3.6314   -0.6038 C.ar      1 ATP         0.2637
     32 HOG3        5.1270   -5.5862   -4.2542 H         1 ATP         0.4378
     33 H5'1        1.2163   -0.0770   -2.0471 H         1 ATP         0.0340
     34 H5'2        2.4655   -1.3443   -2.1563 H         1 ATP         0.0340
     35 H4'         3.8044   -0.1397   -0.4040 H         1 ATP         0.0910
     36 H3'         1.6764   -1.7639    0.2728 H         1 ATP         0.0656
     37 HO3'        2.2232   -1.2979    2.3953 H         1 ATP         0.4386
     38 H2'        -0.0011    0.0027    0.0003 H         1 ATP         0.0788
     39 HO2'       -0.1563   -0.9855    2.0596 H         1 ATP         0.4363
     40 H1'         1.7826    1.9024    1.6451 H         1 ATP         0.1225
     41 H8         -1.4030    1.8165    0.9473 H         1 ATP         0.3824
     42 HN62       -1.3197    6.9504   -2.4583 H         1 ATP         0.4018
     43 H2          2.8857    5.5186   -2.1994 H         1 ATP         0.0652
     44 H44         0.9433    6.6815   -2.6502 H         1 ATP         0.4503
     45 H45        -2.4254    3.8199   -0.2108 H         1 ATP         0.5209
@<TRIPOS>BOND
     1    1    2 2
     2    1    3 1
     3    1    4 1
     4    1    8 1
     5    4   32 1
     6    5    6 2
     7    5    7 1
     8    5    8 1
     9    5   12 1
    10    9   10 2
    11    9   11 1
    12    9   12 1
    13    9   13 1
    14   13   14 1
    15   14   15 1
    16   14   33 1
    17   14   34 1
    18   15   16 1
    19   15   17 1
    20   15   35 1
    21   16   21 1
    22   17   18 1
    23   17   19 1
    24   17   36 1
    25   18   37 1
    26   19   20 1
    27   19   21 1
    28   19   38 1
    29   20   39 1
    30   21   22 1
    31   21   40 1
    32   22   23 ar
    33   22   31 ar
    34   23   24 ar
    35   23   41 1
    36   24   25 ar
    37   24   45 1
    38   25   26 ar
    39   25   31 ar
    40   26   27 2
    41   26   28 ar
    42   27   42 1
    43   28   29 ar
    44   28   44 1
    45   29   30 ar
    46   29   43 1
    47   30   31 ar
@<TRIPOS>SUBSTRUCTURE
     1 ATP         1 GROUP 0 A     ****
@<TRIPOS>MOLECULE
[[[3,4-dihydroxy-5-(6-imino-7,8-dihydro-1~{H}-purin-8-ylium-9-yl)tetrahydrofuran-2-yl]methoxy-oxido-phosphoryl]oxy-oxido-phosphoryl] hydrogen phosphate
   45    47     1     0     0
SMALL
USER_CHARGES

@<TRIPOS>ATOM
      1 PG         -1.3188   -1.0056   -5.0993 P.3       1 ATP         1.5631
      2 O1G        -2.1156   -0.5226   -3.9080 O.co2     1 ATP        -0.8806
      3 O2G        -0.3861   -2.1904   -4.9820 O.co2     1 ATP        -0.8806
      4 O3G        -2.3490   -1.2773   -6.3366 O.3       1 ATP        -0.8165
      5 PB          0.7330    1.1236   -5.1059 P.3       1 ATP         1.6877
      6 O1B         1.2497    2.0694   -6.1671 O.co2     1 ATP        -0.8727
      7 O2B         0.3224    1.6275   -3.7403 O.co2     1 ATP        -0.8727
      8 O3B        -0.4972    0.2535   -5.7345 O.3       1 ATP        -0.8330
      9 PA          3.3343   -0.0514   -4.3264 P.3       1 ATP         1.6036
     10 O1A         4.1298    0.9787   -5.0986 O.co2     1 ATP        -0.9062
     11 O2A         3.8296   -1.4756   -4.2002 O.co2     1 ATP        -0.9062
     12 O3A         1.8106   -0.0877   -4.9151 O.3       1 ATP        -0.8166
     13 O5'         3.0213    0.5153   -2.8245 O.3       1 ATP        -0.5510
     14 C5'         2.2816   -0.2918   -1.9206 C.3       1 ATP         0.2099
     15 C4'         2.7248    0.0226   -0.4980 C.3       1 ATP         0.0598
     16 O4'         2.4697    1.4219   -0.2462 O.3       1 ATP        -0.3455
     17 C3'         1.9404   -0.7419    0.5596 C.3       1 ATP         0.0742
     18 O3'         2.7418   -0.8086    1.7389 O.3       1 ATP        -0.6025
     19 C2'         0.7477    0.1630    0.7858 C.3       1 ATP         0.1145
     20 O2'         0.1373   -0.0577    2.0407 O.3       1 ATP        -0.5835
     21 C1'         1.3733    1.5427    0.6747 C.3       1 ATP         0.3776
     22 N9          0.4520    2.5240    0.1767 N.pl3     1 ATP        -0.4429
     23 C8         -0.8620    2.5492    0.3743 C.ar      1 ATP         0.2964
     24 N7         -1.4419    3.5886   -0.2183 N.pl3     1 ATP        -0.4957
     25 C5         -0.4215    4.2614   -0.8294 C.ar      1 ATP        -0.1346
     26 C6         -0.4310    5.4918   -1.6405 C.ar      1 ATP         0.7213
     27 N6         -1.5302    6.1308   -1.8826 N.2       1 ATP        -0.8215
     28 N1          0.8382    5.8461   -2.0817 N.pl3     1 ATP        -0.8455
     29 C2          1.9625    5.0982   -1.7709 C.ar      1 ATP         0.6477
     30 N3          1.9930    4.0077   -1.0554 N.2       1 ATP        -0.5707
     31 C4          0.7483    3.6314   -0.6038 C.ar      1 ATP         0.2637
     32 HOG3       -1.9818   -1.5974   -7.1881 H         1 ATP         0.4378
     33 H5'1        1.2163   -0.0770   -2.0471 H         1 ATP         0.0340
     34 H5'2        2.4655   -1.3443   -2.1563 H         1 ATP         0.0340
     35 H4'         3.8044   -0.1397   -0.4040 H         1 ATP         0.0910
     36 H3'         1.6764   -1.7639    0.2728 H         1 ATP         0.0656
     37 HO3'        2.2232   -1.2979    2.3953 H         1 ATP         0.4386
     38 H2'        -0.0011    0.0027    0.0003 H         1 ATP         0.0788
     39 HO2'       -0.1563   -0.9855    2.0596 H         1 ATP         0.4363
     40 H1'         1.7826    1.9024    1.6451 H         1 ATP         0.1225
     41 H8         -1.4030    1.8165    0.9473 H         1 ATP         0.3824
     42 HN62       -1.3197    6.9504   -2.4583 H         1 ATP         0.4018
     43 H2          2.8857    5.5186   -2.1994 H         1 ATP         0.0652
     44 H44         0.9433    6.6815   -2.6502 H         1 ATP         0.4503
     45 H45        -2.4254    3.8199   -0.2108 H         1 ATP         0.5209
@<TRIPOS>BOND
     1    1    2 2
     2    1    3 1
     3    1    4 1
     4    1    8 1
     5    4   32 1
     6    5    6 2
     7    5    7 1
     8    5    8 1
     9    5   12 1
    10    9   10 2
    11    9   11 1
    12    9   12 1
    13    9   13 1
    14   13   14 1
    15   14   15 1
    16   14   33 1
    17   14   34 1
    18   15   16 1
    19   15   17 1
    20   15   35 1
    21   16   21 1
    22   17   18 1
    23   17   19 1
    24   17   36 1
    25   18   37 1
    26   19   20 1
    27   19   21 1
    28   19   38 1
    29   20   39 1
    30   21   22 1
    31   21   40 1
    32   22   23 ar
    33   22   31 ar
    34   23   24 ar
    35   23   41 1
    36   24   25 ar
    37   24   45 1
    38   25   26 ar
    39   25   31 ar
    40   26   27 2
    41   26   28 ar
    42   27   42 1
    43   28   29 ar
    44   28   44 1
    45   29   30 ar
    46   29   43 1
    47   30   31 ar
@<TRIPOS>SUBSTRUCTURE
     1 ATP         1 GROUP 0 A     ****
@<TRIPOS>MOLECULE
[[[3,4-dihydroxy-5-(6-imino-7,8-dihydro-1~{H}-purin-8-ylium-9-yl)tetrahydrofuran-2-yl]methoxy-oxido-phosphoryl]oxy-oxido-phosphoryl] hydrogen phosphate
   45    47     1     0     0
SMALL
USER_CHARGES

@<TRIPOS>ATOM
      1 PG         -1.4538   -0.9382    6.7561 P.3       1 ATP         1.5631
      2 O1G        -0.7624   -0.8299    5.4153 O.co2     1 ATP        -0.8806
      3 O2G        -0.6671   -0.8556    8.0452 O.co2     1 ATP        -0.8806
      4 O3G        -2.6556    0.1657    6.8105 O.3       1 ATP        -0.8165
      5 PB         -1.9052   -3.8605    6.7457 P.3       1 ATP         1.6877
      6 O1B        -0.9021   -4.0948    7.8531 O.co2     1 ATP        -0.8727
      7 O2B        -3.1399   -4.7237    6.6115 O.co2     1 ATP        -0.8727
      8 O3B        -2.3628   -2.2936    6.7770 O.3       1 ATP        -0.8330
      9 PA         -0.3427   -5.0626    4.5392 P.3       1 ATP         1.6036
     10 O1A        -1.3607   -6.1049    4.1300 O.co2     1 ATP        -0.9062
     11 O2A         0.8758   -5.4478    5.3495 O.co2     1 ATP        -0.9062
     12 O3A        -1.1150   -3.8511    5.3173 O.3       1 ATP        -0.8166
     13 O5'         0.1618   -4.2444    3.2161 O.3       1 ATP        -0.5510
     14 C5'        -0.7840   -3.8935    2.2172 C.3       1 ATP         0.2099
     15 C4'        -0.0724   -3.1466    1.1027 C.3       1 ATP         0.0598
     16 O4'        -0.8674   -3.1929   -0.0945 O.3       1 ATP        -0.3455
     17 C3'         0.1338   -1.6715    1.4027 C.3       1 ATP         0.0742
     18 O3'         1.2893   -1.4445    2.1808 O.3       1 ATP        -0.6025
     19 C2'         0.2158   -1.0724    0.0128 C.3       1 ATP         0.1145
     20 O2'         1.5141   -1.2448   -0.5513 O.3       1 ATP        -0.5835
     21 C1'        -0.7897   -1.9176   -0.7583 C.3       1 ATP         0.3776
     22 N9         -2.1040   -1.3333   -0.7704 N.pl3     1 ATP        -0.4429
     23 C8         -3.0590   -1.5123    0.1363 C.ar      1 ATP         0.2964
     24 N7         -4.1655   -0.8354   -0.1554 N.pl3     1 ATP        -0.4957
     25 C5         -3.8852   -0.1874   -1.3253 C.ar      1 ATP        -0.1346
     26 C6         -4.7113    0.7160   -2.1458 C.ar      1 ATP         0.7213
     27 N6         -5.9213    1.0209   -1.8021 N.2       1 ATP        -0.8215
     28 N1         -4.0411    1.1673   -3.2764 N.pl3     1 ATP        -0.8455
     29 C2         -2.7403    0.7865   -3.5638 C.ar      1 ATP         0.6477
     30 N3         -1.9921   -0.0108   -2.8519 N.2       1 ATP        -0.5707
     31 C4         -2.6302   -0.4747   -1.7239 C.ar      1 ATP         0.2637
     32 HOG3       -3.2025    0.2208    7.6230 H         1 ATP         0.4378
     33 H5'1       -1.2460   -4.8076    1.8325 H         1 ATP         0.0340
     34 H5'2       -1.5566   -3.2641    2.6688 H         1 ATP         0.0340
     35 H4'         0.8874   -3.6466    0.8805 H         1 ATP         0.0910
     36 H3'        -0.7376   -1.2333    1.9867 H         1 ATP         0.0656
     37 HO3'        1.1626   -1.9325    3.0084 H         1 ATP         0.4386
     38 H2'        -0.0384   -0.0310    0.0096 H         1 ATP         0.0788
     39 HO2'        2.1463   -0.7958    0.0370 H         1 ATP         0.4363
     40 H1'        -0.4769   -2.1002   -1.8093 H         1 ATP         0.1225
     41 H8         -2.9569   -2.1323    1.0098 H         1 ATP         0.3824
     42 HN62       -6.3169    1.6552   -2.5012 H         1 ATP         0.4018
     43 H2         -2.3612    1.2343   -4.4957 H         1 ATP         0.0652
     44 H44        -4.5223    1.7976   -3.9117 H         1 ATP         0.4503
     45 H45        -5.0218   -0.8132    0.3804 H         1 ATP         0.5209
@<TRIPOS>BOND
     1    1    2 2
     2    1    3 1
     3    1    4 1
     4    1    8 1
     5    4   32 1
     6    5    6 2
     7    5    7 1
     8    5    8 1
     9    5   12 1
    10    9   10 2
    11    9   11 1
    12    9   12 1
    13    9   13 1
    14   13   14 1
    15   14   15 1
    16   14   33 1
    17   14   34 1
    18   15   16 1
    19   15   17 1
    20   15   35 1
    21   16   21 1
    22   17   18 1
    23   17   19 1
    24   17   36 1
    25   18   37 1
    26   19   20 1
    27   19   21 1
    28   19   38 1
    29   20   39 1
    30   21   22 1
    31   21   40 1
    32   22   23 ar
    33   22   31 ar
    34   23   24 ar
    35   23   41 1
    36   24   25 ar
    37   24   45 1
    38   25   26 ar
    39   25   31 ar
    40   26   27 2
    41   26   28 ar
    42   27   42 1
    43   28   29 ar
    44   28   44 1
    45   29   30 ar
    46   29   43 1
    47   30   31 ar
@<TRIPOS>SUBSTRUCTURE
     1 ATP         1 GROUP 0 A     ****
@<TRIPOS>MOLECULE
[[[3,4-dihydroxy-5-(6-imino-7,8-dihydro-1~{H}-purin-8-ylium-9-yl)tetrahydrofuran-2-yl]methoxy-oxido-phosphoryl]oxy-oxido-phosphoryl] hydrogen phosphate
   45    47     1     0     0
SMALL
USER_CHARGES

@<TRIPOS>ATOM
      1 PG         -4.3483   -3.8461    5.1673 P.3       1 ATP         1.5631
      2 O1G        -5.6132   -3.3144    4.5310 O.co2     1 ATP        -0.8806
      3 O2G        -2.9939   -3.2918    4.7854 O.co2     1 ATP        -0.8806
      4 O3G        -4.5066   -3.7560    6.7899 O.3       1 ATP        -0.8165
      5 PB         -4.1792   -6.3908    3.6709 P.3       1 ATP         1.6877
      6 O1B        -4.0332   -7.8372    4.0882 O.co2     1 ATP        -0.8727
      7 O2B        -5.2384   -5.9648    2.6789 O.co2     1 ATP        -0.8727
      8 O3B        -4.3180   -5.4705    5.0123 O.3       1 ATP        -0.8330
      9 PA         -1.8564   -6.2730    1.8416 P.3       1 ATP         1.6036
     10 O1A        -2.6131   -5.8576    0.5986 O.co2     1 ATP        -0.9062
     11 O2A        -1.3919   -7.7016    2.0231 O.co2     1 ATP        -0.9062
     12 O3A        -2.7293   -5.8460    3.1552 O.3       1 ATP        -0.8166
     13 O5'        -0.5687   -5.2869    2.0510 O.3       1 ATP        -0.5510
     14 C5'        -0.7840   -3.8935    2.2172 C.3       1 ATP         0.2099
     15 C4'        -0.0724   -3.1466    1.1027 C.3       1 ATP         0.0598
     16 O4'        -0.8674   -3.1929   -0.0945 O.3       1 ATP        -0.3455
     17 C3'         0.1338   -1.6715    1.4027 C.3       1 ATP         0.0742
     18 O3'         1.2893   -1.4445    2.1808 O.3       1 ATP        -0.6025
     19 C2'         0.2158   -1.0724    0.0128 C.3       1 ATP         0.1145
     20 O2'         1.5141   -1.2448   -0.5513 O.3       1 ATP        -0.5835
     21 C1'        -0.7897   -1.9176   -0.7583 C.3       1 ATP         0.3776
     22 N9         -2.1040   -1.3333   -0.7704 N.pl3     1 ATP        -0.4429
     23 C8         -3.0590   -1.5123    0.1363 C.ar      1 ATP         0.2964
     24 N7         -4.1655   -0.8354   -0.1554 N.pl3     1 ATP        -0.4957
     25 C5         -3.8852   -0.1874   -1.3253 C.ar      1 ATP        -0.1346
     26 C6         -4.7113    0.7160   -2.1458 C.ar      1 ATP         0.7213
     27 N6         -5.9213    1.0209   -1.8021 N.2       1 ATP        -0.8215
     28 N1         -4.0411    1.1673   -3.2764 N.pl3     1 ATP        -0.8455
     29 C2         -2.7403    0.7865   -3.5638 C.ar      1 ATP         0.6477
     30 N3         -1.9921   -0.0108   -2.8519 N.2       1 ATP        -0.5707
     31 C4         -2.6302   -0.4747   -1.7239 C.ar      1 ATP         0.2637
     32 HOG3       -3.7629   -4.0660    7.3494 H         1 ATP         0.4378
     33 H5'1       -1.8598   -3.6968    2.1850 H         1 ATP         0.0340
     34 H5'2       -0.3933   -3.5903    3.1931 H         1 ATP         0.0340
     35 H4'         0.8874   -3.6466    0.8805 H         1 ATP         0.0910
     36 H3'        -0.7376   -1.2333    1.9867 H         1 ATP         0.0656
     37 HO3'        1.3408   -0.4870    2.3219 H         1 ATP         0.4386
     38 H2'        -0.0384   -0.0310    0.0096 H         1 ATP         0.0788
     39 HO2'        2.1463   -0.7958    0.0370 H         1 ATP         0.4363
     40 H1'        -0.4769   -2.1002   -1.8093 H         1 ATP         0.1225
     41 H8         -2.9569   -2.1323    1.0098 H         1 ATP         0.3824
     42 HN62       -6.3169    1.6552   -2.5012 H         1 ATP         0.4018
     43 H2         -2.3612    1.2343   -4.4957 H         1 ATP         0.0652
     44 H44        -4.5223    1.7976   -3.9117 H         1 ATP         0.4503
     45 H45        -5.0218   -0.8132    0.3804 H         1 ATP         0.5209
@<TRIPOS>BOND
     1    1    2 2
     2    1    3 1
     3    1    4 1
     4    1    8 1
     5    4   32 1
     6    5    6 2
     7    5    7 1
     8    5    8 1
     9    5   12 1
    10    9   10 2
    11    9   11 1
    12    9   12 1
    13    9   13 1
    14   13   14 1
    15   14   15 1
    16   14   33 1
    17   14   34 1
    18   15   16 1
    19   15   17 1
    20   15   35 1
    21   16   21 1
    22   17   18 1
    23   17   19 1
    24   17   36 1
    25   18   37 1
    26   19   20 1
    27   19   21 1
    28   19   38 1
    29   20   39 1
    30   21   22 1
    31   21   40 1
    32   22   23 ar
    33   22   31 ar
    34   23   24 ar
    35   23   41 1
    36   24   25 ar
    37   24   45 1
    38   25   26 ar
    39   25   31 ar
    40   26   27 2
    41   26   28 ar
    42   27   42 1
    43   28   29 ar
    44   28   44 1
    45   29   30 ar
    46   29   43 1
    47   30   31 ar
@<TRIPOS>SUBSTRUCTURE
     1 ATP         1 GROUP 0 A     ****
@<TRIPOS>MOLECULE
[[[3,4-dihydroxy-5-(6-imino-7,8-dihydro-1~{H}-purin-8-ylium-9-yl)tetrahydrofuran-2-yl]methoxy-oxido-phosphoryl]oxy-oxido-phosphoryl] hydrogen phosphate
   45    47     1     0     0
SMALL
USER_CHARGES

@<TRIPOS>ATOM
      1 PG          6.6105   -4.8435   -1.9562 P.3       1 ATP         1.5631
      2 O1G         6.6051   -4.5724   -0.4683 O.co2     1 ATP        -0.8806
      3 O2G         7.9027   -4.8405   -2.7422 O.co2     1 ATP        -0.8806
      4 O3G         5.8414   -6.2578   -2.2285 O.3       1 ATP        -0.8165
      5 PB          5.5879   -2.2174   -2.8514 P.3       1 ATP         1.6877
      6 O1B         5.4382   -1.5841   -1.4861 O.co2     1 ATP        -0.8727
      7 O2B         6.7395   -1.8533   -3.7617 O.co2     1 ATP        -0.8727
      8 O3B         5.5472   -3.8408   -2.6826 O.3       1 ATP        -0.8330
      9 PA          3.4844   -0.6652   -4.2374 P.3       1 ATP         1.6036
     10 O1A         2.1278   -1.0207   -4.8063 O.co2     1 ATP        -0.9062
     11 O2A         4.4996    0.0867   -5.0702 O.co2     1 ATP        -0.9062
     12 O3A         4.1903   -2.0264   -3.6729 O.3       1 ATP        -0.8166
     13 O5'         3.2903    0.1346   -2.8241 O.3       1 ATP        -0.5510
     14 C5'         2.2816   -0.2918   -1.9206 C.3       1 ATP         0.2099
     15 C4'         2.7248    0.0226   -0.4980 C.3       1 ATP         0.0598
     16 O4'         2.4697    1.4219   -0.2462 O.3       1 ATP        -0.3455
     17 C3'         1.9404   -0.7419    0.5596 C.3       1 ATP         0.0742
     18 O3'         2.7418   -0.8086    1.7389 O.3       1 ATP        -0.6025
     19 C2'         0.7477    0.1630    0.7858 C.3       1 ATP         0.1145
     20 O2'         0.1373   -0.0577    2.0407 O.3       1 ATP        -0.5835
     21 C1'         1.3733    1.5427    0.6747 C.3       1 ATP         0.3776
     22 N9          0.4520    2.5240    0.1767 N.pl3     1 ATP        -0.4429
     23 C8          0.2216    2.8192   -1.0985 C.ar      1 ATP         0.2964
     24 N7         -0.6906    3.7763   -1.2384 N.pl3     1 ATP        -0.4957
     25 C5         -1.0575    4.1037    0.0366 C.ar      1 ATP        -0.1346
     26 C6         -2.0291    5.0943    0.5330 C.ar      1 ATP         0.7213
     27 N6         -2.7093    5.8371   -0.2800 N.2       1 ATP        -0.8215
     28 N1         -2.1051    5.1136    1.9204 N.pl3     1 ATP        -0.8455
     29 C2         -1.3354    4.2774    2.7129 C.ar      1 ATP         0.6477
     30 N3         -0.4707    3.3945    2.2944 N.2       1 ATP        -0.5707
     31 C4         -0.3734    3.3525    0.9220 C.ar      1 ATP         0.2637
     32 HOG3        4.9039   -6.3403   -1.9519 H         1 ATP         0.4378
     33 H5'1        1.3514    0.2330   -2.1577 H         1 ATP         0.0340
     34 H5'2        2.1280   -1.3678   -2.0460 H         1 ATP         0.0340
     35 H4'         3.8044   -0.1397   -0.4040 H         1 ATP         0.0910
     36 H3'         1.6764   -1.7639    0.2728 H         1 ATP         0.0656
     37 HO3'        3.5554   -1.2733    1.4914 H         1 ATP         0.4386
     38 H2'        -0.0011    0.0027    0.0003 H         1 ATP         0.0788
     39 HO2'       -0.6141    0.5574    2.1082 H         1 ATP         0.4363
     40 H1'         1.7826    1.9024    1.6451 H         1 ATP         0.1225
     41 H8          0.7125    2.3429   -1.9292 H         1 ATP         0.3824
     42 HN62       -3.3217    6.4517    0.2629 H         1 ATP         0.4018
     43 H2         -1.5188    4.4223    3.7890 H         1 ATP         0.0652
     44 H44        -2.7470    5.7626    2.3665 H         1 ATP         0.4503
     45 H45        -1.0305    4.1680   -2.1054 H         1 ATP         0.5209
@<TRIPOS>BOND
     1    1    2 2
     2    1    3 1
     3    1    4 1
     4    1    8 1
     5    4   32 1
     6    5    6 2
     7    5    7 1
     8    5    8 1
     9    5   12 1
    10    9   10 2
    11    9   11 1
    12    9   12 1
    13    9   13 1
    14   13   14 1
    15   14   15 1
    16   14   33 1
    17   14   34 1
    18   15   16 1
    19   15   17 1
    20   15   35 1
    21   16   21 1
    22   17   18 1
    23   17   19 1
    24   17   36 1
    25   18   37 1
    26   19   20 1
    27   19   21 1
    28   19   38 1
    29   20   39 1
    30   21   22 1
    31   21   40 1
    32   22   23 ar
    33   22   31 ar
    34   23   24 ar
    35   23   41 1
    36   24   25 ar
    37   24   45 1
    38   25   26 ar
    39   25   31 ar
    40   26   27 2
    41   26   28 ar
    42   27   42 1
    43   28   29 ar
    44   28   44 1
    45   29   30 ar
    46   29   43 1
    47   30   31 ar
@<TRIPOS>SUBSTRUCTURE
     1 ATP         1 GROUP 0 A     ****
@<TRIPOS>MOLECULE
[[[3,4-dihydroxy-5-(6-imino-7,8-dihydro-1~{H}-purin-8-ylium-9-yl)tetrahydrofuran-2-yl]methoxy-oxido-phosphoryl]oxy-oxido-phosphoryl] hydrogen phosphate
   45    47     1     0     0
SMALL
USER_CHARGES

@<TRIPOS>ATOM
      1 PG          5.3586   -5.6366   -3.4172 P.3       1 ATP         1.5631
      2 O1G         5.6178   -5.9613   -1.9629 O.co2     1 ATP        -0.8806
      3 O2G         6.4644   -5.7343   -4.4445 O.co2     1 ATP        -0.8806
      4 O3G         4.0932   -6.5317   -3.9308 O.3       1 ATP        -0.8165
      5 PB          4.0507   -3.3802   -4.8106 P.3       1 ATP         1.6877
      6 O1B         5.1755   -3.0566   -5.7685 O.co2     1 ATP        -0.8727
      7 O2B         2.8154   -4.1195   -5.2742 O.co2     1 ATP        -0.8727
      8 O3B         4.6724   -4.1592   -3.5174 O.3       1 ATP        -0.8330
      9 PA          4.4789   -0.9083   -3.2418 P.3       1 ATP         1.6036
     10 O1A         5.4277   -0.2314   -4.2071 O.co2     1 ATP        -0.9062
     11 O2A         4.9966   -1.5644   -1.9804 O.co2     1 ATP        -0.9062
     12 O3A         3.5882   -2.0049   -4.0627 O.3       1 ATP        -0.8166
     13 O5'         3.2903    0.1346   -2.8241 O.3       1 ATP        -0.5510
     14 C5'         2.2816   -0.2918   -1.9206 C.3       1 ATP         0.2099
     15 C4'         2.7248    0.0226   -0.4980 C.3       1 ATP         0.0598
     16 O4'         2.4697    1.4219   -0.2462 O.3       1 ATP        -0.3455
     17 C3'         1.9404   -0.7419    0.5596 C.3       1 ATP         0.0742
     18 O3'         2.7418   -0.8086    1.7389 O.3       1 ATP        -0.6025
     19 C2'         0.7477    0.1630    0.7858 C.3       1 ATP         0.1145
     20 O2'         0.1373   -0.0577    2.0407 O.3       1 ATP        -0.5835
     21 C1'         1.3733    1.5427    0.6747 C.3       1 ATP         0.3776
     22 N9          0.4520    2.5240    0.1767 N.pl3     1 ATP        -0.4429
     23 C8          0.2216    2.8192   -1.0985 C.ar      1 ATP         0.2964
     24 N7         -0.6906    3.7763   -1.2384 N.pl3     1 ATP        -0.4957
     25 C5         -1.0575    4.1037    0.0366 C.ar      1 ATP        -0.1346
     26 C6         -2.0291    5.0943    0.5330 C.ar      1 ATP         0.7213
     27 N6         -2.7093    5.8371   -0.2800 N.2       1 ATP        -0.8215
     28 N1         -2.1051    5.1136    1.9204 N.pl3     1 ATP        -0.8455
     29 C2         -1.3354    4.2774    2.7129 C.ar      1 ATP         0.6477
     30 N3         -0.4707    3.3945    2.2944 N.2       1 ATP        -0.5707
     31 C4         -0.3734    3.3525    0.9220 C.ar      1 ATP         0.2637
     32 HOG3        3.7994   -6.4338   -4.8616 H         1 ATP         0.4378
     33 H5'1        1.3514    0.2330   -2.1577 H         1 ATP         0.0340
     34 H5'2        2.1280   -1.3678   -2.0460 H         1 ATP         0.0340
     35 H4'         3.8044   -0.1397   -0.4040 H         1 ATP         0.0910
     36 H3'         1.6764   -1.7639    0.2728 H         1 ATP         0.0656
     37 HO3'        2.2232   -1.2979    2.3953 H         1 ATP         0.4386
     38 H2'        -0.0011    0.0027    0.0003 H         1 ATP         0.0788
     39 HO2'       -0.1563   -0.9855    2.0596 H         1 ATP         0.4363
     40 H1'         1.7826    1.9024    1.6451 H         1 ATP         0.1225
     41 H8          0.7125    2.3429   -1.9292 H         1 ATP         0.3824
     42 HN62       -3.3217    6.4517    0.2629 H         1 ATP         0.4018
     43 H2         -1.5188    4.4223    3.7890 H         1 ATP         0.0652
     44 H44        -2.7470    5.7626    2.3665 H         1 ATP         0.4503
     45 H45        -1.0305    4.1680   -2.1054 H         1 ATP         0.5209
@<TRIPOS>BOND
     1    1    2 2
     2    1    3 1
     3    1    4 1
     4    1    8 1
     5    4   32 1
     6    5    6 2
     7    5    7 1
     8    5    8 1
     9    5   12 1
    10    9   10 2
    11    9   11 1
    12    9   12 1
    13    9   13 1
    14   13   14 1
    15   14   15 1
    16   14   33 1
    17   14   34 1
    18   15   16 1
    19   15   17 1
    20   15   35 1
    21   16   21 1
    22   17   18 1
    23   17   19 1
    24   17   36 1
    25   18   37 1
    26   19   20 1
    27   19   21 1
    28   19   38 1
    29   20   39 1
    30   21   22 1
    31   21   40 1
    32   22   23 ar
    33   22   31 ar
    34   23   24 ar
    35   23   41 1
    36   24   25 ar
    37   24   45 1
    38   25   26 ar
    39   25   31 ar
    40   26   27 2
    41   26   28 ar
    42   27   42 1
    43   28   29 ar
    44   28   44 1
    45   29   30 ar
    46   29   43 1
    47   30   31 ar
@<TRIPOS>SUBSTRUCTURE
     1 ATP         1 GROUP 0 A     ****
@<TRIPOS>MOLECULE
[[[3,4-dihydroxy-5-(6-imino-7,8-dihydro-1~{H}-purin-8-ylium-9-yl)tetrahydrofuran-2-yl]methoxy-oxido-phosphoryl]oxy-oxido-phosphoryl] hydrogen phosphate
   45    47     1     0     0
SMALL
USER_CHARGES

@<TRIPOS>ATOM
      1 PG         -4.6469   -5.7121    6.9589 P.3       1 ATP         1.5631
      2 O1G        -4.8714   -7.0773    6.3479 O.co2     1 ATP        -0.8806
      3 O2G        -5.7984   -4.7525    7.1618 O.co2     1 ATP        -0.8806
      4 O3G        -3.8734   -5.9025    8.3841 O.3       1 ATP        -0.8165
      5 PB         -2.7158   -3.5318    6.4483 P.3       1 ATP         1.6877
      6 O1B        -3.7175   -2.4104    6.2851 O.co2     1 ATP        -0.8727
      7 O2B        -1.9057   -3.6801    7.7169 O.co2     1 ATP        -0.8727
      8 O3B        -3.4620   -4.9498    6.1351 O.3       1 ATP        -0.8330
      9 PA         -0.5250   -4.5707    4.7525 P.3       1 ATP         1.6036
     10 O1A        -1.1707   -5.8917    4.3943 O.co2     1 ATP        -0.9062
     11 O2A         0.5744   -4.5032    5.7901 O.co2     1 ATP        -0.9062
     12 O3A        -1.6952   -3.5113    5.1745 O.3       1 ATP        -0.8166
     13 O5'         0.0118   -3.8395    3.3916 O.3       1 ATP        -0.5510
     14 C5'        -0.7840   -3.8935    2.2172 C.3       1 ATP         0.2099
     15 C4'        -0.0724   -3.1466    1.1027 C.3       1 ATP         0.0598
     16 O4'        -0.8674   -3.1929   -0.0945 O.3       1 ATP        -0.3455
     17 C3'         0.1338   -1.6715    1.4027 C.3       1 ATP         0.0742
     18 O3'         1.2893   -1.4445    2.1808 O.3       1 ATP        -0.6025
     19 C2'         0.2158   -1.0724    0.0128 C.3       1 ATP         0.1145
     20 O2'         1.5141   -1.2448   -0.5513 O.3       1 ATP        -0.5835
     21 C1'        -0.7897   -1.9176   -0.7583 C.3       1 ATP         0.3776
     22 N9         -2.1040   -1.3333   -0.7704 N.pl3     1 ATP        -0.4429
     23 C8         -3.0590   -1.5123    0.1363 C.ar      1 ATP         0.2964
     24 N7         -4.1655   -0.8354   -0.1554 N.pl3     1 ATP        -0.4957
     25 C5         -3.8852   -0.1874   -1.3253 C.ar      1 ATP        -0.1346
     26 C6         -4.7113    0.7160   -2.1458 C.ar      1 ATP         0.7213
     27 N6         -5.9213    1.0209   -1.8021 N.2       1 ATP        -0.8215
     28 N1         -4.0411    1.1673   -3.2764 N.pl3     1 ATP        -0.8455
     29 C2         -2.7403    0.7865   -3.5638 C.ar      1 ATP         0.6477
     30 N3         -1.9921   -0.0108   -2.8519 N.2       1 ATP        -0.5707
     31 C4         -2.6302   -0.4747   -1.7239 C.ar      1 ATP         0.2637
     32 HOG3       -3.6541   -5.1020    8.9069 H         1 ATP         0.4378
     33 H5'1       -0.9348   -4.9415    1.9415 H         1 ATP         0.0340
     34 H5'2       -1.7548   -3.4350    2.4278 H         1 ATP         0.0340
     35 H4'         0.8874   -3.6466    0.8805 H         1 ATP         0.0910
     36 H3'        -0.7376   -1.2333    1.9867 H         1 ATP         0.0656
     37 HO3'        1.1626   -1.9325    3.0084 H         1 ATP         0.4386
     38 H2'        -0.0384   -0.0310    0.0096 H         1 ATP         0.0788
     39 HO2'        2.1463   -0.7958    0.0370 H         1 ATP         0.4363
     40 H1'        -0.4769   -2.1002   -1.8093 H         1 ATP         0.1225
     41 H8         -2.9569   -2.1323    1.0098 H         1 ATP         0.3824
     42 HN62       -6.3169    1.6552   -2.5012 H         1 ATP         0.4018
     43 H2         -2.3612    1.2343   -4.4957 H         1 ATP         0.0652
     44 H44        -4.5223    1.7976   -3.9117 H         1 ATP         0.4503
     45 H45        -5.0218   -0.8132    0.3804 H         1 ATP         0.5209
@<TRIPOS>BOND
     1    1    2 2
     2    1    3 1
     3    1    4 1
     4    1    8 1
     5    4   32 1
     6    5    6 2
     7    5    7 1
     8    5    8 1
     9    5   12 1
    10    9   10 2
    11    9   11 1
    12    9   12 1
    13    9   13 1
    14   13   14 1
    15   14   15 1
    16   14   33 1
    17   14   34 1
    18   15   16 1
    19   15   17 1
    20   15   35 1
    21   16   21 1
    22   17   18 1
    23   17   19 1
    24   17   36 1
    25   18   37 1
    26   19   20 1
    27   19   21 1
    28   19   38 1
    29   20   39 1
    30   21   22 1
    31   21   40 1
    32   22   23 ar
    33   22   31 ar
    34   23   24 ar
    35   23   41 1
    36   24   25 ar
    37   24   45 1
    38   25   26 ar
    39   25   31 ar
    40   26   27 2
    41   26   28 ar
    42   27   42 1
    43   28   29 ar
    44   28   44 1
    45   29   30 ar
    46   29   43 1
    47   30   31 ar
@<TRIPOS>SUBSTRUCTURE
     1 ATP         1 GROUP 0 A     ****
@<TRIPOS>MOLECULE
[[[3,4-dihydroxy-5-(6-imino-7,8-dihydro-1~{H}-purin-8-ylium-9-yl)tetrahydrofuran-2-yl]methoxy-oxido-phosphoryl]oxy-oxido-phosphoryl] hydrogen phosphate
   45    47     1     0     0
SMALL
USER_CHARGES

@<TRIPOS>ATOM
      1 PG         -2.4992   -1.1194   -3.0765 P.3       1 ATP         1.5631
      2 O1G        -1.7302   -0.3539   -4.1301 O.co2     1 ATP        -0.8806
      3 O2G        -2.6861   -0.5538   -1.6862 O.co2     1 ATP        -0.8806
      4 O3G        -3.9663   -1.5032   -3.6816 O.3       1 ATP        -0.8165
      5 PB         -0.4171   -3.1149   -2.4234 P.3       1 ATP         1.6877
      6 O1B        -0.1802   -2.5286   -1.0495 O.co2     1 ATP        -0.8727
      7 O2B        -0.2816   -4.6001   -2.6754 O.co2     1 ATP        -0.8727
      8 O3B        -1.8805   -2.6249   -2.9563 O.3       1 ATP        -0.8330
      9 PA          2.1372   -2.2718   -3.6563 P.3       1 ATP         1.6036
     10 O1A         2.4977   -1.2667   -4.7287 O.co2     1 ATP        -0.9062
     11 O2A         2.6452   -3.6953   -3.7281 O.co2     1 ATP        -0.9062
     12 O3A         0.5112   -2.3140   -3.5013 O.3       1 ATP        -0.8166
     13 O5'         2.5245   -1.6648   -2.1878 O.3       1 ATP        -0.5510
     14 C5'         2.2816   -0.2918   -1.9206 C.3       1 ATP         0.2099
     15 C4'         2.7248    0.0226   -0.4980 C.3       1 ATP         0.0598
     16 O4'         2.4697    1.4219   -0.2462 O.3       1 ATP        -0.3455
     17 C3'         1.9404   -0.7419    0.5596 C.3       1 ATP         0.0742
     18 O3'         2.7418   -0.8086    1.7389 O.3       1 ATP        -0.6025
     19 C2'         0.7477    0.1630    0.7858 C.3       1 ATP         0.1145
     20 O2'         0.1373   -0.0577    2.0407 O.3       1 ATP        -0.5835
     21 C1'         1.3733    1.5427    0.6747 C.3       1 ATP         0.3776
     22 N9          0.4520    2.5240    0.1767 N.pl3     1 ATP        -0.4429
     23 C8         -0.3347    3.3121    0.9021 C.ar      1 ATP         0.2964
     24 N7         -1.0768    4.1172    0.1479 N.pl3     1 ATP        -0.4957
     25 C5         -0.7318    3.8130   -1.1389 C.ar      1 ATP        -0.1346
     26 C6         -1.2094    4.3661   -2.4187 C.ar      1 ATP         0.7213
     27 N6         -2.1040    5.3007   -2.4569 N.2       1 ATP        -0.8215
     28 N1         -0.5949    3.7732   -3.5151 N.pl3     1 ATP        -0.8455
     29 C2          0.3569    2.7758   -3.3770 C.ar      1 ATP         0.6477
     30 N3          0.7934    2.2726   -2.2552 N.2       1 ATP        -0.5707
     31 C4          0.2019    2.8412   -1.1500 C.ar      1 ATP         0.2637
     32 HOG3       -4.5887   -2.0055   -3.1137 H         1 ATP         0.4378
     33 H5'1        2.8432    0.3119   -2.6398 H         1 ATP         0.0340
     34 H5'2        1.2128   -0.0927   -2.0428 H         1 ATP         0.0340
     35 H4'         3.8044   -0.1397   -0.4040 H         1 ATP         0.0910
     36 H3'         1.6764   -1.7639    0.2728 H         1 ATP         0.0656
     37 HO3'        2.2232   -1.2979    2.3953 H         1 ATP         0.4386
     38 H2'        -0.0011    0.0027    0.0003 H         1 ATP         0.0788
     39 HO2'       -0.6141    0.5574    2.1082 H         1 ATP         0.4363
     40 H1'         1.7826    1.9024    1.6451 H         1 ATP         0.1225
     41 H8         -0.3729    3.3063    1.9775 H         1 ATP         0.3824
     42 HN62       -2.2940    5.5408   -3.4335 H         1 ATP         0.4018
     43 H2          0.7413    2.4168   -4.3445 H         1 ATP         0.0652
     44 H44        -0.8531    4.0829   -4.4476 H         1 ATP         0.4503
     45 H45        -1.7471    4.8016    0.4689 H         1 ATP         0.5209
@<TRIPOS>BOND
     1    1    2 2
     2    1    3 1
     3    1    4 1
     4    1    8 1
     5    4   32 1
     6    5    6 2
     7    5    7 1
     8    5    8 1
     9    5   12 1
    10    9   10 2
    11    9   11 1
    12    9   12 1
    13    9   13 1
    14   13   14 1
    15   14   15 1
    16   14   33 1
    17   14   34 1
    18   15   16 1
    19   15   17 1
    20   15   35 1
    21   16   21 1
    22   17   18 1
    23   17   19 1
    24   17   36 1
    25   18   37 1
    26   19   20 1
    27   19   21 1
    28   19   38 1
    29   20   39 1
    30   21   22 1
    31   21   40 1
    32   22   23 ar
    33   22   31 ar
    34   23   24 ar
    35   23   41 1
    36   24   25 ar
    37   24   45 1
    38   25   26 ar
    39   25   31 ar
    40   26   27 2
    41   26   28 ar
    42   27   42 1
    43   28   29 ar
    44   28   44 1
    45   29   30 ar
    46   29   43 1
    47   30   31 ar
@<TRIPOS>SUBSTRUCTURE
     1 ATP         1 GROUP 0 A     ****
@<TRIPOS>MOLECULE
[[[3,4-dihydroxy-5-(6-imino-7,8-dihydro-1~{H}-purin-8-ylium-9-yl)tetrahydrofuran-2-yl]methoxy-oxido-phosphoryl]oxy-oxido-phosphoryl] hydrogen phosphate
   45    47     1     0     0
SMALL
USER_CHARGES

@<TRIPOS>ATOM
      1 PG          8.5509   -1.7629   -4.8351 P.3       1 ATP         1.5631
      2 O1G         8.6148   -1.0510   -6.1680 O.co2     1 ATP        -0.8806
      3 O2G         8.7928   -3.2528   -4.7374 O.co2     1 ATP        -0.8806
      4 O3G         9.5548   -1.0054   -3.7938 O.3       1 ATP        -0.8165
      5 PB          6.4546    0.0417   -3.7901 P.3       1 ATP         1.6877
      6 O1B         7.2987    0.7524   -2.7558 O.co2     1 ATP        -0.8727
      7 O2B         6.0931    0.7085   -5.0987 O.co2     1 ATP        -0.8727
      8 O3B         7.1317   -1.4088   -4.1113 O.3       1 ATP        -0.8330
      9 PA          3.8940   -1.4358   -3.6657 P.3       1 ATP         1.6036
     10 O1A         4.4570   -2.8160   -3.9271 O.co2     1 ATP        -0.9062
     11 O2A         3.1753   -0.6739   -4.7578 O.co2     1 ATP        -0.9062
     12 O3A         5.0851   -0.4858   -3.0752 O.3       1 ATP        -0.8166
     13 O5'         2.9216   -1.4836   -2.3516 O.3       1 ATP        -0.5510
     14 C5'         2.2816   -0.2918   -1.9206 C.3       1 ATP         0.2099
     15 C4'         2.7248    0.0226   -0.4980 C.3       1 ATP         0.0598
     16 O4'         2.4697    1.4219   -0.2462 O.3       1 ATP        -0.3455
     17 C3'         1.9404   -0.7419    0.5596 C.3       1 ATP         0.0742
     18 O3'         2.7418   -0.8086    1.7389 O.3       1 ATP        -0.6025
     19 C2'         0.7477    0.1630    0.7858 C.3       1 ATP         0.1145
     20 O2'         0.1373   -0.0577    2.0407 O.3       1 ATP        -0.5835
     21 C1'         1.3733    1.5427    0.6747 C.3       1 ATP         0.3776
     22 N9          0.4520    2.5240    0.1767 N.pl3     1 ATP        -0.4429
     23 C8          0.2216    2.8192   -1.0985 C.ar      1 ATP         0.2964
     24 N7         -0.6906    3.7763   -1.2384 N.pl3     1 ATP        -0.4957
     25 C5         -1.0575    4.1037    0.0366 C.ar      1 ATP        -0.1346
     26 C6         -2.0291    5.0943    0.5330 C.ar      1 ATP         0.7213
     27 N6         -2.7093    5.8371   -0.2800 N.2       1 ATP        -0.8215
     28 N1         -2.1051    5.1136    1.9204 N.pl3     1 ATP        -0.8455
     29 C2         -1.3354    4.2774    2.7129 C.ar      1 ATP         0.6477
     30 N3         -0.4707    3.3945    2.2944 N.2       1 ATP        -0.5707
     31 C4         -0.3734    3.3525    0.9220 C.ar      1 ATP         0.2637
     32 HOG3        9.6257   -1.3511   -2.8786 H         1 ATP         0.4378
     33 H5'1        2.5589    0.5217   -2.5976 H         1 ATP         0.0340
     34 H5'2        1.1982   -0.4388   -1.9617 H         1 ATP         0.0340
     35 H4'         3.8044   -0.1397   -0.4040 H         1 ATP         0.0910
     36 H3'         1.6764   -1.7639    0.2728 H         1 ATP         0.0656
     37 HO3'        2.2232   -1.2979    2.3953 H         1 ATP         0.4386
     38 H2'        -0.0011    0.0027    0.0003 H         1 ATP         0.0788
     39 HO2'       -0.1563   -0.9855    2.0596 H         1 ATP         0.4363
     40 H1'         1.7826    1.9024    1.6451 H         1 ATP         0.1225
     41 H8          0.7125    2.3429   -1.9292 H         1 ATP         0.3824
     42 HN62       -3.3217    6.4517    0.2629 H         1 ATP         0.4018
     43 H2         -1.5188    4.4223    3.7890 H         1 ATP         0.0652
     44 H44        -2.7470    5.7626    2.3665 H         1 ATP         0.4503
     45 H45        -1.0305    4.1680   -2.1054 H         1 ATP         0.5209
@<TRIPOS>BOND
     1    1    2 2
     2    1    3 1
     3    1    4 1
     4    1    8 1
     5    4   32 1
     6    5    6 2
     7    5    7 1
     8    5    8 1
     9    5   12 1
    10    9   10 2
    11    9   11 1
    12    9   12 1
    13    9   13 1
    14   13   14 1
    15   14   15 1
    16   14   33 1
    17   14   34 1
    18   15   16 1
    19   15   17 1
    20   15   35 1
    21   16   21 1
    22   17   18 1
    23   17   19 1
    24   17   36 1
    25   18   37 1
    26   19   20 1
    27   19   21 1
    28   19   38 1
    29   20   39 1
    30   21   22 1
    31   21   40 1
    32   22   23 ar
    33   22   31 ar
    34   23   24 ar
    35   23   41 1
    36   24   25 ar
    37   24   45 1
    38   25   26 ar
    39   25   31 ar
    40   26   27 2
    41   26   28 ar
    42   27   42 1
    43   28   29 ar
    44   28   44 1
    45   29   30 ar
    46   29   43 1
    47   30   31 ar
@<TRIPOS>SUBSTRUCTURE
     1 ATP         1 GROUP 0 A     ****
@<TRIPOS>MOLECULE
[[[3,4-dihydroxy-5-(6-imino-7,8-dihydro-1~{H}-purin-8-ylium-9-yl)tetrahydrofuran-2-yl]methoxy-oxido-phosphoryl]oxy-oxido-phosphoryl] hydrogen phosphate
   45    47     1     0     0
SMALL
USER_CHARGES

@<TRIPOS>ATOM
      1 PG          3.8997    0.9254   -7.9351 P.3       1 ATP         1.5631
      2 O1G         4.7891    2.1455   -8.0234 O.co2     1 ATP        -0.8806
      3 O2G         2.4673    0.9711   -8.4187 O.co2     1 ATP        -0.8806
      4 O3G         4.6554   -0.3216   -8.6698 O.3       1 ATP        -0.8165
      5 PB          5.1912   -0.0348   -5.4545 P.3       1 ATP         1.6877
      6 O1B         5.8769   -1.2483   -6.0418 O.co2     1 ATP        -0.8727
      7 O2B         5.9662    1.2232   -5.1317 O.co2     1 ATP        -0.8727
      8 O3B         3.9233    0.3606   -6.4040 O.3       1 ATP        -0.8330
      9 PA          3.2531   -1.6804   -3.9410 P.3       1 ATP         1.6036
     10 O1A         3.9305   -3.0169   -4.1533 O.co2     1 ATP        -0.9062
     11 O2A         2.0184   -1.3047   -4.7311 O.co2     1 ATP        -0.9062
     12 O3A         4.3617   -0.4944   -4.1258 O.3       1 ATP        -0.8166
     13 O5'         2.9216   -1.4836   -2.3516 O.3       1 ATP        -0.5510
     14 C5'         2.2816   -0.2918   -1.9206 C.3       1 ATP         0.2099
     15 C4'         2.7248    0.0226   -0.4980 C.3       1 ATP         0.0598
     16 O4'         2.4697    1.4219   -0.2462 O.3       1 ATP        -0.3455
     17 C3'         1.9404   -0.7419    0.5596 C.3       1 ATP         0.0742
     18 O3'         2.7418   -0.8086    1.7389 O.3       1 ATP        -0.6025
     19 C2'         0.7477    0.1630    0.7858 C.3       1 ATP         0.1145
     20 O2'         0.1373   -0.0577    2.0407 O.3       1 ATP        -0.5835
     21 C1'         1.3733    1.5427    0.6747 C.3       1 ATP         0.3776
     22 N9          0.4520    2.5240    0.1767 N.pl3     1 ATP        -0.4429
     23 C8         -0.2004    2.4829   -0.9804 C.ar      1 ATP         0.2964
     24 N7         -0.9830    3.5431   -1.1568 N.pl3     1 ATP        -0.4957
     25 C5         -0.8095    4.3012   -0.0331 C.ar      1 ATP        -0.1346
     26 C6         -1.4065    5.5904    0.3585 C.ar      1 ATP         0.7213
     27 N6         -2.2501    6.2030   -0.4084 N.2       1 ATP        -0.8215
     28 N1         -0.9585    6.0272    1.5994 N.pl3     1 ATP        -0.8455
     29 C2         -0.0508    5.3009    2.3532 C.ar      1 ATP         0.6477
     30 N3          0.4890    4.1592    2.0257 N.2       1 ATP        -0.5707
     31 C4          0.0637    3.7006    0.7995 C.ar      1 ATP         0.2637
     32 HOG3        4.2026   -1.1914   -8.6967 H         1 ATP         0.4378
     33 H5'1        2.5589    0.5217   -2.5976 H         1 ATP         0.0340
     34 H5'2        1.1982   -0.4388   -1.9617 H         1 ATP         0.0340
     35 H4'         3.8044   -0.1397   -0.4040 H         1 ATP         0.0910
     36 H3'         1.6764   -1.7639    0.2728 H         1 ATP         0.0656
     37 HO3'        2.2232   -1.2979    2.3953 H         1 ATP         0.4386
     38 H2'        -0.0011    0.0027    0.0003 H         1 ATP         0.0788
     39 HO2'       -0.1563   -0.9855    2.0596 H         1 ATP         0.4363
     40 H1'         1.7826    1.9024    1.6451 H         1 ATP         0.1225
     41 H8         -0.1116    1.6863   -1.6984 H         1 ATP         0.3824
     42 HN62       -2.5420    7.0730    0.0447 H         1 ATP         0.4018
     43 H2          0.1969    5.7893    3.3086 H         1 ATP         0.0652
     44 H44        -1.3097    6.9080    1.9642 H         1 ATP         0.4503
     45 H45        -1.5735    3.7351   -1.9538 H         1 ATP         0.5209
@<TRIPOS>BOND
     1    1    2 2
     2    1    3 1
     3    1    4 1
     4    1    8 1
     5    4   32 1
     6    5    6 2
     7    5    7 1
     8    5    8 1
     9    5   12 1
    10    9   10 2
    11    9   11 1
    12    9   12 1
    13    9   13 1
    14   13   14 1
    15   14   15 1
    16   14   33 1
    17   14   34 1
    18   15   16 1
    19   15   17 1
    20   15   35 1
    21   16   21 1
    22   17   18 1
    23   17   19 1
    24   17   36 1
    25   18   37 1
    26   19   20 1
    27   19   21 1
    28   19   38 1
    29   20   39 1
    30   21   22 1
    31   21   40 1
    32   22   23 ar
    33   22   31 ar
    34   23   24 ar
    35   23   41 1
    36   24   25 ar
    37   24   45 1
    38   25   26 ar
    39   25   31 ar
    40   26   27 2
    41   26   28 ar
    42   27   42 1
    43   28   29 ar
    44   28   44 1
    45   29   30 ar
    46   29   43 1
    47   30   31 ar
@<TRIPOS>SUBSTRUCTURE
     1 ATP         1 GROUP 0 A     ****
@<TRIPOS>MOLECULE
[[[3,4-dihydroxy-5-(6-imino-7,8-dihydro-1~{H}-purin-8-ylium-9-yl)tetrahydrofuran-2-yl]methoxy-oxido-phosphoryl]oxy-oxido-phosphoryl] hydrogen phosphate
   45    47     1     0     0
SMALL
USER_CHARGES

@<TRIPOS>ATOM
      1 PG          7.3024   -2.2665   -2.7428 P.3       1 ATP         1.5631
      2 O1G         6.5700   -1.3856   -1.7554 O.co2     1 ATP        -0.8806
      3 O2G         8.4902   -1.7430   -3.5193 O.co2     1 ATP        -0.8806
      4 O3G         7.7456   -3.6415   -1.9820 O.3       1 ATP        -0.8165
      5 PB          5.3149   -2.1652   -4.9298 P.3       1 ATP         1.6877
      6 O1B         6.2224   -1.3429   -5.8173 O.co2     1 ATP        -0.8727
      7 O2B         4.3561   -3.1785   -5.5142 O.co2     1 ATP        -0.8727
      8 O3B         6.2237   -2.9011   -3.7905 O.3       1 ATP        -0.8330
      9 PA          3.3343   -0.0514   -4.3264 P.3       1 ATP         1.6036
     10 O1A         2.1154   -0.7746   -4.8569 O.co2     1 ATP        -0.9062
     11 O2A         3.9835    1.0584   -5.1242 O.co2     1 ATP        -0.9062
     12 O3A         4.4804   -1.1555   -3.9558 O.3       1 ATP        -0.8166
     13 O5'         3.0213    0.5153   -2.8245 O.3       1 ATP        -0.5510
     14 C5'         2.2816   -0.2918   -1.9206 C.3       1 ATP         0.2099
     15 C4'         2.7248    0.0226   -0.4980 C.3       1 ATP         0.0598
     16 O4'         2.4697    1.4219   -0.2462 O.3       1 ATP        -0.3455
     17 C3'         1.9404   -0.7419    0.5596 C.3       1 ATP         0.0742
     18 O3'         2.7418   -0.8086    1.7389 O.3       1 ATP        -0.6025
     19 C2'         0.7477    0.1630    0.7858 C.3       1 ATP         0.1145
     20 O2'         0.1373   -0.0577    2.0407 O.3       1 ATP        -0.5835
     21 C1'         1.3733    1.5427    0.6747 C.3       1 ATP         0.3776
     22 N9          0.4520    2.5240    0.1767 N.pl3     1 ATP        -0.4429
     23 C8         -0.6821    2.9098    0.7521 C.ar      1 ATP         0.2964
     24 N7         -1.3175    3.8384    0.0437 N.pl3     1 ATP        -0.4957
     25 C5         -0.5274    4.0494   -1.0512 C.ar      1 ATP        -0.1346
     26 C6         -0.6966    4.9597   -2.1977 C.ar      1 ATP         0.7213
     27 N6         -1.7259    5.7385   -2.2937 N.2       1 ATP        -0.8215
     28 N1          0.3493    4.8663   -3.1079 N.pl3     1 ATP        -0.8455
     29 C2          1.4148    4.0005   -2.9208 C.ar      1 ATP         0.6477
     30 N3          1.5838    3.1876   -1.9144 N.2       1 ATP        -0.5707
     31 C4          0.5619    3.2578   -0.9949 C.ar      1 ATP         0.2637
     32 HOG3        8.2345   -4.3212   -2.4931 H         1 ATP         0.4378
     33 H5'1        1.2163   -0.0770   -2.0471 H         1 ATP         0.0340
     34 H5'2        2.4655   -1.3443   -2.1563 H         1 ATP         0.0340
     35 H4'         3.8044   -0.1397   -0.4040 H         1 ATP         0.0910
     36 H3'         1.6764   -1.7639    0.2728 H         1 ATP         0.0656
     37 HO3'        2.2232   -1.2979    2.3953 H         1 ATP         0.4386
     38 H2'        -0.0011    0.0027    0.0003 H         1 ATP         0.0788
     39 HO2'       -0.1563   -0.9855    2.0596 H         1 ATP         0.4363
     40 H1'         1.7826    1.9024    1.6451 H         1 ATP         0.1225
     41 H8         -1.0516    2.5207    1.6849 H         1 ATP         0.3824
     42 HN62       -1.6520    6.2842   -3.1564 H         1 ATP         0.4018
     43 H2          2.1542    4.0525   -3.7351 H         1 ATP         0.0652
     44 H44         0.3306    5.4533   -3.9370 H         1 ATP         0.4503
     45 H45        -2.1941    4.2838    0.2756 H         1 ATP         0.5209
@<TRIPOS>BOND
     1    1    2 2
     2    1    3 1
     3    1    4 1
     4    1    8 1
     5    4   32 1
     6    5    6 2
     7    5    7 1
     8    5    8 1
     9    5   12 1
    10    9   10 2
    11    9   11 1
    12    9   12 1
    13    9   13 1
    14   13   14 1
    15   14   15 1
    16   14   33 1
    17   14   34 1
    18   15   16 1
    19   15   17 1
    20   15   35 1
    21   16   21 1
    22   17   18 1
    23   17   19 1
    24   17   36 1
    25   18   37 1
    26   19   20 1
    27   19   21 1
    28   19   38 1
    29   20   39 1
    30   21   22 1
    31   21   40 1
    32   22   23 ar
    33   22   31 ar
    34   23   24 ar
    35   23   41 1
    36   24   25 ar
    37   24   45 1
    38   25   26 ar
    39   25   31 ar
    40   26   27 2
    41   26   28 ar
    42   27   42 1
    43   28   29 ar
    44   28   44 1
    45   29   30 ar
    46   29   43 1
    47   30   31 ar
@<TRIPOS>SUBSTRUCTURE
     1 ATP         1 GROUP 0 A     ****
@<TRIPOS>MOLECULE
[[[3,4-dihydroxy-5-(6-imino-7,8-dihydro-1~{H}-purin-8-ylium-9-yl)tetrahydrofuran-2-yl]methoxy-oxido-phosphoryl]oxy-oxido-phosphoryl] hydrogen phosphate
   45    47     1     0     0
SMALL
USER_CHARGES

@<TRIPOS>ATOM
      1 PG          3.3526   -4.5492   -6.7335 P.3       1 ATP         1.5631
      2 O1G         4.0188   -5.7176   -6.0416 O.co2     1 ATP        -0.8806
      3 O2G         3.7750   -4.1248   -8.1224 O.co2     1 ATP        -0.8806
      4 O3G         1.7391   -4.7992   -6.7359 O.3       1 ATP        -0.8165
      5 PB          4.6772   -2.3763   -5.2277 P.3       1 ATP         1.6877
      6 O1B         5.5245   -3.2449   -4.3250 O.co2     1 ATP        -0.8727
      7 O2B         5.2811   -1.6519   -6.4101 O.co2     1 ATP        -0.8727
      8 O3B         3.3994   -3.2503   -5.7463 O.3       1 ATP        -0.8330
      9 PA          4.4374   -0.0466   -3.4193 P.3       1 ATP         1.6036
     10 O1A         5.0360    0.9827   -4.3535 O.co2     1 ATP        -0.9062
     11 O2A         5.2435   -0.6084   -2.2686 O.co2     1 ATP        -0.9062
     12 O3A         3.8708   -1.2955   -4.3076 O.3       1 ATP        -0.8166
     13 O5'         3.0213    0.5153   -2.8245 O.3       1 ATP        -0.5510
     14 C5'         2.2816   -0.2918   -1.9206 C.3       1 ATP         0.2099
     15 C4'         2.7248    0.0226   -0.4980 C.3       1 ATP         0.0598
     16 O4'         2.4697    1.4219   -0.2462 O.3       1 ATP        -0.3455
     17 C3'         1.9404   -0.7419    0.5596 C.3       1 ATP         0.0742
     18 O3'         2.7418   -0.8086    1.7389 O.3       1 ATP        -0.6025
     19 C2'         0.7477    0.1630    0.7858 C.3       1 ATP         0.1145
     20 O2'         0.1373   -0.0577    2.0407 O.3       1 ATP        -0.5835
     21 C1'         1.3733    1.5427    0.6747 C.3       1 ATP         0.3776
     22 N9          0.4520    2.5240    0.1767 N.pl3     1 ATP        -0.4429
     23 C8         -0.2004    2.4829   -0.9804 C.ar      1 ATP         0.2964
     24 N7         -0.9830    3.5431   -1.1568 N.pl3     1 ATP        -0.4957
     25 C5         -0.8095    4.3012   -0.0331 C.ar      1 ATP        -0.1346
     26 C6         -1.4065    5.5904    0.3585 C.ar      1 ATP         0.7213
     27 N6         -2.2501    6.2030   -0.4084 N.2       1 ATP        -0.8215
     28 N1         -0.9585    6.0272    1.5994 N.pl3     1 ATP        -0.8455
     29 C2         -0.0508    5.3009    2.3532 C.ar      1 ATP         0.6477
     30 N3          0.4890    4.1592    2.0257 N.2       1 ATP        -0.5707
     31 C4          0.0637    3.7006    0.7995 C.ar      1 ATP         0.2637
     32 HOG3        1.1626   -4.1236   -7.1524 H         1 ATP         0.4378
     33 H5'1        1.2163   -0.0770   -2.0471 H         1 ATP         0.0340
     34 H5'2        2.4655   -1.3443   -2.1563 H         1 ATP         0.0340
     35 H4'         3.8044   -0.1397   -0.4040 H         1 ATP         0.0910
     36 H3'         1.6764   -1.7639    0.2728 H         1 ATP         0.0656
     37 HO3'        2.2232   -1.2979    2.3953 H         1 ATP         0.4386
     38 H2'        -0.0011    0.0027    0.0003 H         1 ATP         0.0788
     39 HO2'       -0.6141    0.5574    2.1082 H         1 ATP         0.4363
     40 H1'         1.7826    1.9024    1.6451 H         1 ATP         0.1225
     41 H8         -0.1116    1.6863   -1.6984 H         1 ATP         0.3824
     42 HN62       -2.5420    7.0730    0.0447 H         1 ATP         0.4018
     43 H2          0.1969    5.7893    3.3086 H         1 ATP         0.0652
     44 H44        -1.3097    6.9080    1.9642 H         1 ATP         0.4503
     45 H45        -1.5735    3.7351   -1.9538 H         1 ATP         0.5209
@<TRIPOS>BOND
     1    1    2 2
     2    1    3 1
     3    1    4 1
     4    1    8 1
     5    4   32 1
     6    5    6 2
     7    5    7 1
     8    5    8 1
     9    5   12 1
    10    9   10 2
    11    9   11 1
    12    9   12 1
    13    9   13 1
    14   13   14 1
    15   14   15 1
    16   14   33 1
    17   14   34 1
    18   15   16 1
    19   15   17 1
    20   15   35 1
    21   16   21 1
    22   17   18 1
    23   17   19 1
    24   17   36 1
    25   18   37 1
    26   19   20 1
    27   19   21 1
    28   19   38 1
    29   20   39 1
    30   21   22 1
    31   21   40 1
    32   22   23 ar
    33   22   31 ar
    34   23   24 ar
    35   23   41 1
    36   24   25 ar
    37   24   45 1
    38   25   26 ar
    39   25   31 ar
    40   26   27 2
    41   26   28 ar
    42   27   42 1
    43   28   29 ar
    44   28   44 1
    45   29   30 ar
    46   29   43 1
    47   30   31 ar
@<TRIPOS>SUBSTRUCTURE
     1 ATP         1 GROUP 0 A     ****
@<TRIPOS>MOLECULE
[[[3,4-dihydroxy-5-(6-imino-7,8-dihydro-1~{H}-purin-8-ylium-9-yl)tetrahydrofuran-2-yl]methoxy-oxido-phosphoryl]oxy-oxido-phosphoryl] hydrogen phosphate
   45    47     1     0     0
SMALL
USER_CHARGES

@<TRIPOS>ATOM
      1 PG          4.3624   -5.3809    6.1394 P.3       1 ATP         1.5631
      2 O1G         5.1001   -6.6987    6.0591 O.co2     1 ATP        -0.8806
      3 O2G         3.9599   -4.7955    7.4748 O.co2     1 ATP        -0.8806
      4 O3G         5.2159   -4.2578    5.3171 O.3       1 ATP        -0.8165
      5 PB          1.6977   -6.3553    5.3068 P.3       1 ATP         1.6877
      6 O1B         2.0681   -7.8082    5.1083 O.co2     1 ATP        -0.8727
      7 O2B         0.9280   -5.9030    6.5277 O.co2     1 ATP        -0.8727
      8 O3B         3.0484   -5.4479    5.1737 O.3       1 ATP        -0.8330
      9 PA         -0.5379   -6.2517    3.3713 P.3       1 ATP         1.6036
     10 O1A        -1.6115   -5.8115    4.3429 O.co2     1 ATP        -0.9062
     11 O2A        -0.4592   -7.6888    2.9044 O.co2     1 ATP        -0.9062
     12 O3A         0.9208   -5.8263    3.9722 O.3       1 ATP        -0.8166
     13 O5'        -0.5687   -5.2869    2.0510 O.3       1 ATP        -0.5510
     14 C5'        -0.7840   -3.8935    2.2172 C.3       1 ATP         0.2099
     15 C4'        -0.0724   -3.1466    1.1027 C.3       1 ATP         0.0598
     16 O4'        -0.8674   -3.1929   -0.0945 O.3       1 ATP        -0.3455
     17 C3'         0.1338   -1.6715    1.4027 C.3       1 ATP         0.0742
     18 O3'         1.2893   -1.4445    2.1808 O.3       1 ATP        -0.6025
     19 C2'         0.2158   -1.0724    0.0128 C.3       1 ATP         0.1145
     20 O2'         1.5141   -1.2448   -0.5513 O.3       1 ATP        -0.5835
     21 C1'        -0.7897   -1.9176   -0.7583 C.3       1 ATP         0.3776
     22 N9         -2.1040   -1.3333   -0.7704 N.pl3     1 ATP        -0.4429
     23 C8         -3.0590   -1.5123    0.1363 C.ar      1 ATP         0.2964
     24 N7         -4.1655   -0.8354   -0.1554 N.pl3     1 ATP        -0.4957
     25 C5         -3.8852   -0.1874   -1.3253 C.ar      1 ATP        -0.1346
     26 C6         -4.7113    0.7160   -2.1458 C.ar      1 ATP         0.7213
     27 N6         -5.9213    1.0209   -1.8021 N.2       1 ATP        -0.8215
     28 N1         -4.0411    1.1673   -3.2764 N.pl3     1 ATP        -0.8455
     29 C2         -2.7403    0.7865   -3.5638 C.ar      1 ATP         0.6477
     30 N3         -1.9921   -0.0108   -2.8519 N.2       1 ATP        -0.5707
     31 C4         -2.6302   -0.4747   -1.7239 C.ar      1 ATP         0.2637
     32 HOG3        4.8651   -3.3426    5.2759 H         1 ATP         0.4378
     33 H5'1       -1.8598   -3.6968    2.1850 H         1 ATP         0.0340
     34 H5'2       -0.3933   -3.5903    3.1931 H         1 ATP         0.0340
     35 H4'         0.8874   -3.6466    0.8805 H         1 ATP         0.0910
     36 H3'        -0.7376   -1.2333    1.9867 H         1 ATP         0.0656
     37 HO3'        1.1626   -1.9325    3.0084 H         1 ATP         0.4386
     38 H2'        -0.0384   -0.0310    0.0096 H         1 ATP         0.0788
     39 HO2'        2.1463   -0.7958    0.0370 H         1 ATP         0.4363
     40 H1'        -0.4769   -2.1002   -1.8093 H         1 ATP         0.1225
     41 H8         -2.9569   -2.1323    1.0098 H         1 ATP         0.3824
     42 HN62       -6.3169    1.6552   -2.5012 H         1 ATP         0.4018
     43 H2         -2.3612    1.2343   -4.4957 H         1 ATP         0.0652
     44 H44        -4.5223    1.7976   -3.9117 H         1 ATP         0.4503
     45 H45        -5.0218   -0.8132    0.3804 H         1 ATP         0.5209
@<TRIPOS>BOND
     1    1    2 2
     2    1    3 1
     3    1    4 1
     4    1    8 1
     5    4   32 1
     6    5    6 2
     7    5    7 1
     8    5    8 1
     9    5   12 1
    10    9   10 2
    11    9   11 1
    12    9   12 1
    13    9   13 1
    14   13   14 1
    15   14   15 1
    16   14   33 1
    17   14   34 1
    18   15   16 1
    19   15   17 1
    20   15   35 1
    21   16   21 1
    22   17   18 1
    23   17   19 1
    24   17   36 1
    25   18   37 1
    26   19   20 1
    27   19   21 1
    28   19   38 1
    29   20   39 1
    30   21   22 1
    31   21   40 1
    32   22   23 ar
    33   22   31 ar
    34   23   24 ar
    35   23   41 1
    36   24   25 ar
    37   24   45 1
    38   25   26 ar
    39   25   31 ar
    40   26   27 2
    41   26   28 ar
    42   27   42 1
    43   28   29 ar
    44   28   44 1
    45   29   30 ar
    46   29   43 1
    47   30   31 ar
@<TRIPOS>SUBSTRUCTURE
     1 ATP         1 GROUP 0 A     ****
@<TRIPOS>MOLECULE
[[[3,4-dihydroxy-5-(6-imino-7,8-dihydro-1~{H}-purin-8-ylium-9-yl)tetrahydrofuran-2-yl]methoxy-oxido-phosphoryl]oxy-oxido-phosphoryl] hydrogen phosphate
   45    47     1     0     0
SMALL
USER_CHARGES

@<TRIPOS>ATOM
      1 PG          4.1124   -0.5691   -8.2966 P.3       1 ATP         1.5631
      2 O1G         4.1977   -1.8666   -9.0692 O.co2     1 ATP        -0.8806
      3 O2G         5.2155    0.4619   -8.3848 O.co2     1 ATP        -0.8806
      4 O3G         2.6947    0.1565   -8.6563 O.3       1 ATP        -0.8165
      5 PB          4.7775   -1.6435   -5.6233 P.3       1 ATP         1.6877
      6 O1B         4.9516   -3.0909   -6.0261 O.co2     1 ATP        -0.8727
      7 O2B         5.9720   -0.7592   -5.3430 O.co2     1 ATP        -0.8727
      8 O3B         3.8261   -0.9044   -6.7252 O.3       1 ATP        -0.8330
      9 PA          3.9668   -2.1116   -2.8163 P.3       1 ATP         1.6036
     10 O1A         5.0719   -1.3107   -2.1623 O.co2     1 ATP        -0.9062
     11 O2A         4.0210   -3.6235   -2.8465 O.co2     1 ATP        -0.9062
     12 O3A         3.7633   -1.5743   -4.3459 O.3       1 ATP        -0.8166
     13 O5'         2.5245   -1.6648   -2.1878 O.3       1 ATP        -0.5510
     14 C5'         2.2816   -0.2918   -1.9206 C.3       1 ATP         0.2099
     15 C4'         2.7248    0.0226   -0.4980 C.3       1 ATP         0.0598
     16 O4'         2.4697    1.4219   -0.2462 O.3       1 ATP        -0.3455
     17 C3'         1.9404   -0.7419    0.5596 C.3       1 ATP         0.0742
     18 O3'         2.7418   -0.8086    1.7389 O.3       1 ATP        -0.6025
     19 C2'         0.7477    0.1630    0.7858 C.3       1 ATP         0.1145
     20 O2'         0.1373   -0.0577    2.0407 O.3       1 ATP        -0.5835
     21 C1'         1.3733    1.5427    0.6747 C.3       1 ATP         0.3776
     22 N9          0.4520    2.5240    0.1767 N.pl3     1 ATP        -0.4429
     23 C8         -0.2004    2.4829   -0.9804 C.ar      1 ATP         0.2964
     24 N7         -0.9830    3.5431   -1.1568 N.pl3     1 ATP        -0.4957
     25 C5         -0.8095    4.3012   -0.0331 C.ar      1 ATP        -0.1346
     26 C6         -1.4065    5.5904    0.3585 C.ar      1 ATP         0.7213
     27 N6         -2.2501    6.2030   -0.4084 N.2       1 ATP        -0.8215
     28 N1         -0.9585    6.0272    1.5994 N.pl3     1 ATP        -0.8455
     29 C2         -0.0508    5.3009    2.3532 C.ar      1 ATP         0.6477
     30 N3          0.4890    4.1592    2.0257 N.2       1 ATP        -0.5707
     31 C4          0.0637    3.7006    0.7995 C.ar      1 ATP         0.2637
     32 HOG3        2.4889    1.0161   -8.2308 H         1 ATP         0.4378
     33 H5'1        2.8432    0.3119   -2.6398 H         1 ATP         0.0340
     34 H5'2        1.2128   -0.0927   -2.0428 H         1 ATP         0.0340
     35 H4'         3.8044   -0.1397   -0.4040 H         1 ATP         0.0910
     36 H3'         1.6764   -1.7639    0.2728 H         1 ATP         0.0656
     37 HO3'        2.2232   -1.2979    2.3953 H         1 ATP         0.4386
     38 H2'        -0.0011    0.0027    0.0003 H         1 ATP         0.0788
     39 HO2'       -0.1563   -0.9855    2.0596 H         1 ATP         0.4363
     40 H1'         1.7826    1.9024    1.6451 H         1 ATP         0.1225
     41 H8         -0.1116    1.6863   -1.6984 H         1 ATP         0.3824
     42 HN62       -2.5420    7.0730    0.0447 H         1 ATP         0.4018
     43 H2          0.1969    5.7893    3.3086 H         1 ATP         0.0652
     44 H44        -1.3097    6.9080    1.9642 H         1 ATP         0.4503
     45 H45        -1.5735    3.7351   -1.9538 H         1 ATP         0.5209
@<TRIPOS>BOND
     1    1    2 2
     2    1    3 1
     3    1    4 1
     4    1    8 1
     5    4   32 1
     6    5    6 2
     7    5    7 1
     8    5    8 1
     9    5   12 1
    10    9   10 2
    11    9   11 1
    12    9   12 1
    13    9   13 1
    14   13   14 1
    15   14   15 1
    16   14   33 1
    17   14   34 1
    18   15   16 1
    19   15   17 1
    20   15   35 1
    21   16   21 1
    22   17   18 1
    23   17   19 1
    24   17   36 1
    25   18   37 1
    26   19   20 1
    27   19   21 1
    28   19   38 1
    29   20   39 1
    30   21   22 1
    31   21   40 1
    32   22   23 ar
    33   22   31 ar
    34   23   24 ar
    35   23   41 1
    36   24   25 ar
    37   24   45 1
    38   25   26 ar
    39   25   31 ar
    40   26   27 2
    41   26   28 ar
    42   27   42 1
    43   28   29 ar
    44   28   44 1
    45   29   30 ar
    46   29   43 1
    47   30   31 ar
@<TRIPOS>SUBSTRUCTURE
     1 ATP         1 GROUP 0 A     ****
@<TRIPOS>MOLECULE
[[[3,4-dihydroxy-5-(6-imino-7,8-dihydro-1~{H}-purin-8-ylium-9-yl)tetrahydrofuran-2-yl]methoxy-oxido-phosphoryl]oxy-oxido-phosphoryl] hydrogen phosphate
   45    47     1     0     0
SMALL
USER_CHARGES

@<TRIPOS>ATOM
      1 PG          6.0028   -3.4551   -7.0303 P.3       1 ATP         1.5631
      2 O1G         6.8125   -4.5605   -6.3900 O.co2     1 ATP        -0.8806
      3 O2G         6.6702   -2.3910   -7.8730 O.co2     1 ATP        -0.8806
      4 O3G         4.8020   -4.1319   -7.9055 O.3       1 ATP        -0.8165
      5 PB          4.0507   -3.3802   -4.8106 P.3       1 ATP         1.6877
      6 O1B         2.8670   -3.9435   -5.5650 O.co2     1 ATP        -0.8727
      7 O2B         4.8297   -4.2278   -3.8296 O.co2     1 ATP        -0.8727
      8 O3B         5.0945   -2.7300   -5.8846 O.3       1 ATP        -0.8330
      9 PA          4.4789   -0.9083   -3.2418 P.3       1 ATP         1.6036
     10 O1A         5.4277   -0.2314   -4.2071 O.co2     1 ATP        -0.9062
     11 O2A         4.9966   -1.5644   -1.9804 O.co2     1 ATP        -0.9062
     12 O3A         3.5882   -2.0049   -4.0627 O.3       1 ATP        -0.8166
     13 O5'         3.2903    0.1346   -2.8241 O.3       1 ATP        -0.5510
     14 C5'         2.2816   -0.2918   -1.9206 C.3       1 ATP         0.2099
     15 C4'         2.7248    0.0226   -0.4980 C.3       1 ATP         0.0598
     16 O4'         2.4697    1.4219   -0.2462 O.3       1 ATP        -0.3455
     17 C3'         1.9404   -0.7419    0.5596 C.3       1 ATP         0.0742
     18 O3'         2.7418   -0.8086    1.7389 O.3       1 ATP        -0.6025
     19 C2'         0.7477    0.1630    0.7858 C.3       1 ATP         0.1145
     20 O2'         0.1373   -0.0577    2.0407 O.3       1 ATP        -0.5835
     21 C1'         1.3733    1.5427    0.6747 C.3       1 ATP         0.3776
     22 N9          0.4520    2.5240    0.1767 N.pl3     1 ATP        -0.4429
     23 C8          0.2216    2.8192   -1.0985 C.ar      1 ATP         0.2964
     24 N7         -0.6906    3.7763   -1.2384 N.pl3     1 ATP        -0.4957
     25 C5         -1.0575    4.1037    0.0366 C.ar      1 ATP        -0.1346
     26 C6         -2.0291    5.0943    0.5330 C.ar      1 ATP         0.7213
     27 N6         -2.7093    5.8371   -0.2800 N.2       1 ATP        -0.8215
     28 N1         -2.1051    5.1136    1.9204 N.pl3     1 ATP        -0.8455
     29 C2         -1.3354    4.2774    2.7129 C.ar      1 ATP         0.6477
     30 N3         -0.4707    3.3945    2.2944 N.2       1 ATP        -0.5707
     31 C4         -0.3734    3.3525    0.9220 C.ar      1 ATP         0.2637
     32 HOG3        4.1841   -3.5406   -8.3860 H         1 ATP         0.4378
     33 H5'1        1.3514    0.2330   -2.1577 H         1 ATP         0.0340
     34 H5'2        2.1280   -1.3678   -2.0460 H         1 ATP         0.0340
     35 H4'         3.8044   -0.1397   -0.4040 H         1 ATP         0.0910
     36 H3'         1.6764   -1.7639    0.2728 H         1 ATP         0.0656
     37 HO3'        2.2232   -1.2979    2.3953 H         1 ATP         0.4386
     38 H2'        -0.0011    0.0027    0.0003 H         1 ATP         0.0788
     39 HO2'       -0.6141    0.5574    2.1082 H         1 ATP         0.4363
     40 H1'         1.7826    1.9024    1.6451 H         1 ATP         0.1225
     41 H8          0.7125    2.3429   -1.9292 H         1 ATP         0.3824
     42 HN62       -3.3217    6.4517    0.2629 H         1 ATP         0.4018
     43 H2         -1.5188    4.4223    3.7890 H         1 ATP         0.0652
     44 H44        -2.7470    5.7626    2.3665 H         1 ATP         0.4503
     45 H45        -1.0305    4.1680   -2.1054 H         1 ATP         0.5209
@<TRIPOS>BOND
     1    1    2 2
     2    1    3 1
     3    1    4 1
     4    1    8 1
     5    4   32 1
     6    5    6 2
     7    5    7 1
     8    5    8 1
     9    5   12 1
    10    9   10 2
    11    9   11 1
    12    9   12 1
    13    9   13 1
    14   13   14 1
    15   14   15 1
    16   14   33 1
    17   14   34 1
    18   15   16 1
    19   15   17 1
    20   15   35 1
    21   16   21 1
    22   17   18 1
    23   17   19 1
    24   17   36 1
    25   18   37 1
    26   19   20 1
    27   19   21 1
    28   19   38 1
    29   20   39 1
    30   21   22 1
    31   21   40 1
    32   22   23 ar
    33   22   31 ar
    34   23   24 ar
    35   23   41 1
    36   24   25 ar
    37   24   45 1
    38   25   26 ar
    39   25   31 ar
    40   26   27 2
    41   26   28 ar
    42   27   42 1
    43   28   29 ar
    44   28   44 1
    45   29   30 ar
    46   29   43 1
    47   30   31 ar
@<TRIPOS>SUBSTRUCTURE
     1 ATP         1 GROUP 0 A     ****
@<TRIPOS>MOLECULE
[[[3,4-dihydroxy-5-(6-imino-7,8-dihydro-1~{H}-purin-8-ylium-9-yl)tetrahydrofuran-2-yl]methoxy-oxido-phosphoryl]oxy-oxido-phosphoryl] hydrogen phosphate
   45    47     1     0     0
SMALL
USER_CHARGES

@<TRIPOS>ATOM
      1 PG         -0.5076   -5.0358   -6.3566 P.3       1 ATP         1.5631
      2 O1G        -1.9685   -5.1941   -5.9986 O.co2     1 ATP        -0.8806
      3 O2G         0.4109   -6.2357   -6.4226 O.co2     1 ATP        -0.8806
      4 O3G        -0.4049   -4.2259   -7.7706 O.3       1 ATP        -0.8165
      5 PB         -0.3144   -2.3805   -5.0699 P.3       1 ATP         1.6877
      6 O1B        -0.1515   -1.5585   -6.3290 O.co2     1 ATP        -0.8727
      7 O2B        -1.6307   -2.4216   -4.3261 O.co2     1 ATP        -0.8727
      8 O3B         0.1599   -3.9118   -5.3795 O.3       1 ATP        -0.8330
      9 PA          1.2681   -2.6345   -2.5827 P.3       1 ATP         1.6036
     10 O1A         1.7719   -4.0417   -2.8198 O.co2     1 ATP        -0.9062
     11 O2A         0.1424   -2.3700   -1.6068 O.co2     1 ATP        -0.9062
     12 O3A         0.8674   -1.9707   -4.0210 O.3       1 ATP        -0.8166
     13 O5'         2.5245   -1.6648   -2.1878 O.3       1 ATP        -0.5510
     14 C5'         2.2816   -0.2918   -1.9206 C.3       1 ATP         0.2099
     15 C4'         2.7248    0.0226   -0.4980 C.3       1 ATP         0.0598
     16 O4'         2.4697    1.4219   -0.2462 O.3       1 ATP        -0.3455
     17 C3'         1.9404   -0.7419    0.5596 C.3       1 ATP         0.0742
     18 O3'         2.7418   -0.8086    1.7389 O.3       1 ATP        -0.6025
     19 C2'         0.7477    0.1630    0.7858 C.3       1 ATP         0.1145
     20 O2'         0.1373   -0.0577    2.0407 O.3       1 ATP        -0.5835
     21 C1'         1.3733    1.5427    0.6747 C.3       1 ATP         0.3776
     22 N9          0.4520    2.5240    0.1767 N.pl3     1 ATP        -0.4429
     23 C8          0.2216    2.8192   -1.0985 C.ar      1 ATP         0.2964
     24 N7         -0.6906    3.7763   -1.2384 N.pl3     1 ATP        -0.4957
     25 C5         -1.0575    4.1037    0.0366 C.ar      1 ATP        -0.1346
     26 C6         -2.0291    5.0943    0.5330 C.ar      1 ATP         0.7213
     27 N6         -2.7093    5.8371   -0.2800 N.2       1 ATP        -0.8215
     28 N1         -2.1051    5.1136    1.9204 N.pl3     1 ATP        -0.8455
     29 C2         -1.3354    4.2774    2.7129 C.ar      1 ATP         0.6477
     30 N3         -0.4707    3.3945    2.2944 N.2       1 ATP        -0.5707
     31 C4         -0.3734    3.3525    0.9220 C.ar      1 ATP         0.2637
     32 HOG3        0.4852   -4.0425   -8.1400 H         1 ATP         0.4378
     33 H5'1        2.8432    0.3119   -2.6398 H         1 ATP         0.0340
     34 H5'2        1.2128   -0.0927   -2.0428 H         1 ATP         0.0340
     35 H4'         3.8044   -0.1397   -0.4040 H         1 ATP         0.0910
     36 H3'         1.6764   -1.7639    0.2728 H         1 ATP         0.0656
     37 HO3'        3.5554   -1.2733    1.4914 H         1 ATP         0.4386
     38 H2'        -0.0011    0.0027    0.0003 H         1 ATP         0.0788
     39 HO2'       -0.1563   -0.9855    2.0596 H         1 ATP         0.4363
     40 H1'         1.7826    1.9024    1.6451 H         1 ATP         0.1225
     41 H8          0.7125    2.3429   -1.9292 H         1 ATP         0.3824
     42 HN62       -3.3217    6.4517    0.2629 H         1 ATP         0.4018
     43 H2         -1.5188    4.4223    3.7890 H         1 ATP         0.0652
     44 H44        -2.7470    5.7626    2.3665 H         1 ATP         0.4503
     45 H45        -1.0305    4.1680   -2.1054 H         1 ATP         0.5209
@<TRIPOS>BOND
     1    1    2 2
     2    1    3 1
     3    1    4 1
     4    1    8 1
     5    4   32 1
     6    5    6 2
     7    5    7 1
     8    5    8 1
     9    5   12 1
    10    9   10 2
    11    9   11 1
    12    9   12 1
    13    9   13 1
    14   13   14 1
    15   14   15 1
    16   14   33 1
    17   14   34 1
    18   15   16 1
    19   15   17 1
    20   15   35 1
    21   16   21 1
    22   17   18 1
    23   17   19 1
    24   17   36 1
    25   18   37 1
    26   19   20 1
    27   19   21 1
    28   19   38 1
    29   20   39 1
    30   21   22 1
    31   21   40 1
    32   22   23 ar
    33   22   31 ar
    34   23   24 ar
    35   23   41 1
    36   24   25 ar
    37   24   45 1
    38   25   26 ar
    39   25   31 ar
    40   26   27 2
    41   26   28 ar
    42   27   42 1
    43   28   29 ar
    44   28   44 1
    45   29   30 ar
    46   29   43 1
    47   30   31 ar
@<TRIPOS>SUBSTRUCTURE
     1 ATP         1 GROUP 0 A     ****
@<TRIPOS>MOLECULE
[[[3,4-dihydroxy-5-(6-imino-7,8-dihydro-1~{H}-purin-8-ylium-9-yl)tetrahydrofuran-2-yl]methoxy-oxido-phosphoryl]oxy-oxido-phosphoryl] hydrogen phosphate
   45    47     1     0     0
SMALL
USER_CHARGES

@<TRIPOS>ATOM
      1 PG         -0.6420  -10.1947    3.8634 P.3       1 ATP         1.5631
      2 O1G        -0.0473  -10.7303    2.5801 O.co2     1 ATP        -0.8806
      3 O2G        -2.0397  -10.5814    4.2931 O.co2     1 ATP        -0.8806
      4 O3G         0.3864  -10.5231    5.0883 O.3       1 ATP        -0.8165
      5 PB         -0.8551   -7.4957    5.0524 P.3       1 ATP         1.6877
      6 O1B        -2.3463   -7.5048    5.3052 O.co2     1 ATP        -0.8727
      7 O2B         0.1320   -7.6951    6.1809 O.co2     1 ATP        -0.8727
      8 O3B        -0.5187   -8.5673    3.8674 O.3       1 ATP        -0.8330
      9 PA         -0.5250   -4.5707    4.7525 P.3       1 ATP         1.6036
     10 O1A         0.4868   -4.3780    5.8613 O.co2     1 ATP        -0.9062
     11 O2A        -1.9752   -4.1885    4.9536 O.co2     1 ATP        -0.9062
     12 O3A        -0.4680   -6.1256    4.2538 O.3       1 ATP        -0.8166
     13 O5'         0.0118   -3.8395    3.3916 O.3       1 ATP        -0.5510
     14 C5'        -0.7840   -3.8935    2.2172 C.3       1 ATP         0.2099
     15 C4'        -0.0724   -3.1466    1.1027 C.3       1 ATP         0.0598
     16 O4'        -0.8674   -3.1929   -0.0945 O.3       1 ATP        -0.3455
     17 C3'         0.1338   -1.6715    1.4027 C.3       1 ATP         0.0742
     18 O3'         1.2893   -1.4445    2.1808 O.3       1 ATP        -0.6025
     19 C2'         0.2158   -1.0724    0.0128 C.3       1 ATP         0.1145
     20 O2'         1.5141   -1.2448   -0.5513 O.3       1 ATP        -0.5835
     21 C1'        -0.7897   -1.9176   -0.7583 C.3       1 ATP         0.3776
     22 N9         -2.1040   -1.3333   -0.7704 N.pl3     1 ATP        -0.4429
     23 C8         -3.0590   -1.5123    0.1363 C.ar      1 ATP         0.2964
     24 N7         -4.1655   -0.8354   -0.1554 N.pl3     1 ATP        -0.4957
     25 C5         -3.8852   -0.1874   -1.3253 C.ar      1 ATP        -0.1346
     26 C6         -4.7113    0.7160   -2.1458 C.ar      1 ATP         0.7213
     27 N6         -5.9213    1.0209   -1.8021 N.2       1 ATP        -0.8215
     28 N1         -4.0411    1.1673   -3.2764 N.pl3     1 ATP        -0.8455
     29 C2         -2.7403    0.7865   -3.5638 C.ar      1 ATP         0.6477
     30 N3         -1.9921   -0.0108   -2.8519 N.2       1 ATP        -0.5707
     31 C4         -2.6302   -0.4747   -1.7239 C.ar      1 ATP         0.2637
     32 HOG3        0.1407  -10.2366    5.9937 H         1 ATP         0.4378
     33 H5'1       -0.9348   -4.9415    1.9415 H         1 ATP         0.0340
     34 H5'2       -1.7548   -3.4350    2.4278 H         1 ATP         0.0340
     35 H4'         0.8874   -3.6466    0.8805 H         1 ATP         0.0910
     36 H3'        -0.7376   -1.2333    1.9867 H         1 ATP         0.0656
     37 HO3'        1.1626   -1.9325    3.0084 H         1 ATP         0.4386
     38 H2'        -0.0384   -0.0310    0.0096 H         1 ATP         0.0788
     39 HO2'        2.1463   -0.7958    0.0370 H         1 ATP         0.4363
     40 H1'        -0.4769   -2.1002   -1.8093 H         1 ATP         0.1225
     41 H8         -2.9569   -2.1323    1.0098 H         1 ATP         0.3824
     42 HN62       -6.3169    1.6552   -2.5012 H         1 ATP         0.4018
     43 H2         -2.3612    1.2343   -4.4957 H         1 ATP         0.0652
     44 H44        -4.5223    1.7976   -3.9117 H         1 ATP         0.4503
     45 H45        -5.0218   -0.8132    0.3804 H         1 ATP         0.5209
@<TRIPOS>BOND
     1    1    2 2
     2    1    3 1
     3    1    4 1
     4    1    8 1
     5    4   32 1
     6    5    6 2
     7    5    7 1
     8    5    8 1
     9    5   12 1
    10    9   10 2
    11    9   11 1
    12    9   12 1
    13    9   13 1
    14   13   14 1
    15   14   15 1
    16   14   33 1
    17   14   34 1
    18   15   16 1
    19   15   17 1
    20   15   35 1
    21   16   21 1
    22   17   18 1
    23   17   19 1
    24   17   36 1
    25   18   37 1
    26   19   20 1
    27   19   21 1
    28   19   38 1
    29   20   39 1
    30   21   22 1
    31   21   40 1
    32   22   23 ar
    33   22   31 ar
    34   23   24 ar
    35   23   41 1
    36   24   25 ar
    37   24   45 1
    38   25   26 ar
    39   25   31 ar
    40   26   27 2
    41   26   28 ar
    42   27   42 1
    43   28   29 ar
    44   28   44 1
    45   29   30 ar
    46   29   43 1
    47   30   31 ar
@<TRIPOS>SUBSTRUCTURE
     1 ATP         1 GROUP 0 A     ****
@<TRIPOS>MOLECULE
[[[3,4-dihydroxy-5-(6-imino-7,8-dihydro-1~{H}-purin-8-ylium-9-yl)tetrahydrofuran-2-yl]methoxy-oxido-phosphoryl]oxy-oxido-phosphoryl] hydrogen phosphate
   45    47     1     0     0
SMALL
USER_CHARGES

@<TRIPOS>ATOM
      1 PG          0.3846   -6.9069   -3.7965 P.3       1 ATP         1.5631
      2 O1G        -0.5144   -7.5540   -2.7667 O.co2     1 ATP        -0.8806
      3 O2G         1.6243   -7.6127   -4.2992 O.co2     1 ATP        -0.8806
      4 O3G        -0.5250   -6.4774   -5.0826 O.3       1 ATP        -0.8165
      5 PB         -0.1474   -4.1805   -2.7828 P.3       1 ATP         1.6877
      6 O1B        -0.9492   -3.6801   -3.9635 O.co2     1 ATP        -0.8727
      7 O2B        -0.8226   -4.5758   -1.4884 O.co2     1 ATP        -0.8727
      8 O3B         0.7985   -5.4156   -3.2782 O.3       1 ATP        -0.8330
      9 PA          2.1633   -2.4499   -3.4314 P.3       1 ATP         1.6036
     10 O1A         1.4760   -1.5972   -4.4759 O.co2     1 ATP        -0.9062
     11 O2A         3.1220   -3.5478   -3.8377 O.co2     1 ATP        -0.9062
     12 O3A         1.0274   -3.0968   -2.4510 O.3       1 ATP        -0.8166
     13 O5'         2.9216   -1.4836   -2.3516 O.3       1 ATP        -0.5510
     14 C5'         2.2816   -0.2918   -1.9206 C.3       1 ATP         0.2099
     15 C4'         2.7248    0.0226   -0.4980 C.3       1 ATP         0.0598
     16 O4'         2.4697    1.4219   -0.2462 O.3       1 ATP        -0.3455
     17 C3'         1.9404   -0.7419    0.5596 C.3       1 ATP         0.0742
     18 O3'         2.7418   -0.8086    1.7389 O.3       1 ATP        -0.6025
     19 C2'         0.7477    0.1630    0.7858 C.3       1 ATP         0.1145
     20 O2'         0.1373   -0.0577    2.0407 O.3       1 ATP        -0.5835
     21 C1'         1.3733    1.5427    0.6747 C.3       1 ATP         0.3776
     22 N9          0.4520    2.5240    0.1767 N.pl3     1 ATP        -0.4429
     23 C8          0.2216    2.8192   -1.0985 C.ar      1 ATP         0.2964
     24 N7         -0.6906    3.7763   -1.2384 N.pl3     1 ATP        -0.4957
     25 C5         -1.0575    4.1037    0.0366 C.ar      1 ATP        -0.1346
     26 C6         -2.0291    5.0943    0.5330 C.ar      1 ATP         0.7213
     27 N6         -2.7093    5.8371   -0.2800 N.2       1 ATP        -0.8215
     28 N1         -2.1051    5.1136    1.9204 N.pl3     1 ATP        -0.8455
     29 C2         -1.3354    4.2774    2.7129 C.ar      1 ATP         0.6477
     30 N3         -0.4707    3.3945    2.2944 N.2       1 ATP        -0.5707
     31 C4         -0.3734    3.3525    0.9220 C.ar      1 ATP         0.2637
     32 HOG3       -1.2605   -5.8434   -4.9435 H         1 ATP         0.4378
     33 H5'1        2.5589    0.5217   -2.5976 H         1 ATP         0.0340
     34 H5'2        1.1982   -0.4388   -1.9617 H         1 ATP         0.0340
     35 H4'         3.8044   -0.1397   -0.4040 H         1 ATP         0.0910
     36 H3'         1.6764   -1.7639    0.2728 H         1 ATP         0.0656
     37 HO3'        3.5554   -1.2733    1.4914 H         1 ATP         0.4386
     38 H2'        -0.0011    0.0027    0.0003 H         1 ATP         0.0788
     39 HO2'       -0.1563   -0.9855    2.0596 H         1 ATP         0.4363
     40 H1'         1.7826    1.9024    1.6451 H         1 ATP         0.1225
     41 H8          0.7125    2.3429   -1.9292 H         1 ATP         0.3824
     42 HN62       -3.3217    6.4517    0.2629 H         1 ATP         0.4018
     43 H2         -1.5188    4.4223    3.7890 H         1 ATP         0.0652
     44 H44        -2.7470    5.7626    2.3665 H         1 ATP         0.4503
     45 H45        -1.0305    4.1680   -2.1054 H         1 ATP         0.5209
@<TRIPOS>BOND
     1    1    2 2
     2    1    3 1
     3    1    4 1
     4    1    8 1
     5    4   32 1
     6    5    6 2
     7    5    7 1
     8    5    8 1
     9    5   12 1
    10    9   10 2
    11    9   11 1
    12    9   12 1
    13    9   13 1
    14   13   14 1
    15   14   15 1
    16   14   33 1
    17   14   34 1
    18   15   16 1
    19   15   17 1
    20   15   35 1
    21   16   21 1
    22   17   18 1
    23   17   19 1
    24   17   36 1
    25   18   37 1
    26   19   20 1
    27   19   21 1
    28   19   38 1
    29   20   39 1
    30   21   22 1
    31   21   40 1
    32   22   23 ar
    33   22   31 ar
    34   23   24 ar
    35   23   41 1
    36   24   25 ar
    37   24   45 1
    38   25   26 ar
    39   25   31 ar
    40   26   27 2
    41   26   28 ar
    42   27   42 1
    43   28   29 ar
    44   28   44 1
    45   29   30 ar
    46   29   43 1
    47   30   31 ar
@<TRIPOS>SUBSTRUCTURE
     1 ATP         1 GROUP 0 A     ****
@<TRIPOS>MOLECULE
[[[3,4-dihydroxy-5-(6-imino-7,8-dihydro-1~{H}-purin-8-ylium-9-yl)tetrahydrofuran-2-yl]methoxy-oxido-phosphoryl]oxy-oxido-phosphoryl] hydrogen phosphate
   45    47     1     0     0
SMALL
USER_CHARGES

@<TRIPOS>ATOM
      1 PG         -2.8727   -5.2280    8.0283 P.3       1 ATP         1.5631
      2 O1G        -2.4379   -6.4649    8.7824 O.co2     1 ATP        -0.8806
      3 O2G        -4.3168   -4.7785    8.0393 O.co2     1 ATP        -0.8806
      4 O3G        -1.9365   -3.9766    8.5008 O.3       1 ATP        -0.8165
      5 PB         -2.8289   -6.3768    5.3040 P.3       1 ATP         1.6877
      6 O1B        -2.3848   -7.7724    5.6815 O.co2     1 ATP        -0.8727
      7 O2B        -4.2674   -6.0843    4.9396 O.co2     1 ATP        -0.8727
      8 O3B        -2.3666   -5.3441    6.4809 O.3       1 ATP        -0.8330
      9 PA         -1.7128   -6.3370    2.5639 P.3       1 ATP         1.6036
     10 O1A        -3.0101   -6.0661    1.8332 O.co2     1 ATP        -0.9062
     11 O2A        -1.1083   -7.7241    2.5787 O.co2     1 ATP        -0.9062
     12 O3A        -1.8634   -5.8259    4.1085 O.3       1 ATP        -0.8166
     13 O5'        -0.5687   -5.2869    2.0510 O.3       1 ATP        -0.5510
     14 C5'        -0.7840   -3.8935    2.2172 C.3       1 ATP         0.2099
     15 C4'        -0.0724   -3.1466    1.1027 C.3       1 ATP         0.0598
     16 O4'        -0.8674   -3.1929   -0.0945 O.3       1 ATP        -0.3455
     17 C3'         0.1338   -1.6715    1.4027 C.3       1 ATP         0.0742
     18 O3'         1.2893   -1.4445    2.1808 O.3       1 ATP        -0.6025
     19 C2'         0.2158   -1.0724    0.0128 C.3       1 ATP         0.1145
     20 O2'         1.5141   -1.2448   -0.5513 O.3       1 ATP        -0.5835
     21 C1'        -0.7897   -1.9176   -0.7583 C.3       1 ATP         0.3776
     22 N9         -2.1040   -1.3333   -0.7704 N.pl3     1 ATP        -0.4429
     23 C8         -3.0590   -1.5123    0.1363 C.ar      1 ATP         0.2964
     24 N7         -4.1655   -0.8354   -0.1554 N.pl3     1 ATP        -0.4957
     25 C5         -3.8852   -0.1874   -1.3253 C.ar      1 ATP        -0.1346
     26 C6         -4.7113    0.7160   -2.1458 C.ar      1 ATP         0.7213
     27 N6         -5.9213    1.0209   -1.8021 N.2       1 ATP        -0.8215
     28 N1         -4.0411    1.1673   -3.2764 N.pl3     1 ATP        -0.8455
     29 C2         -2.7403    0.7865   -3.5638 C.ar      1 ATP         0.6477
     30 N3         -1.9921   -0.0108   -2.8519 N.2       1 ATP        -0.5707
     31 C4         -2.6302   -0.4747   -1.7239 C.ar      1 ATP         0.2637
     32 HOG3       -2.0961   -3.0962    8.0986 H         1 ATP         0.4378
     33 H5'1       -1.8598   -3.6968    2.1850 H         1 ATP         0.0340
     34 H5'2       -0.3933   -3.5903    3.1931 H         1 ATP         0.0340
     35 H4'         0.8874   -3.6466    0.8805 H         1 ATP         0.0910
     36 H3'        -0.7376   -1.2333    1.9867 H         1 ATP         0.0656
     37 HO3'        1.3408   -0.4870    2.3219 H         1 ATP         0.4386
     38 H2'        -0.0384   -0.0310    0.0096 H         1 ATP         0.0788
     39 HO2'        2.1463   -0.7958    0.0370 H         1 ATP         0.4363
     40 H1'        -0.4769   -2.1002   -1.8093 H         1 ATP         0.1225
     41 H8         -2.9569   -2.1323    1.0098 H         1 ATP         0.3824
     42 HN62       -6.3169    1.6552   -2.5012 H         1 ATP         0.4018
     43 H2         -2.3612    1.2343   -4.4957 H         1 ATP         0.0652
     44 H44        -4.5223    1.7976   -3.9117 H         1 ATP         0.4503
     45 H45        -5.0218   -0.8132    0.3804 H         1 ATP         0.5209
@<TRIPOS>BOND
     1    1    2 2
     2    1    3 1
     3    1    4 1
     4    1    8 1
     5    4   32 1
     6    5    6 2
     7    5    7 1
     8    5    8 1
     9    5   12 1
    10    9   10 2
    11    9   11 1
    12    9   12 1
    13    9   13 1
    14   13   14 1
    15   14   15 1
    16   14   33 1
    17   14   34 1
    18   15   16 1
    19   15   17 1
    20   15   35 1
    21   16   21 1
    22   17   18 1
    23   17   19 1
    24   17   36 1
    25   18   37 1
    26   19   20 1
    27   19   21 1
    28   19   38 1
    29   20   39 1
    30   21   22 1
    31   21   40 1
    32   22   23 ar
    33   22   31 ar
    34   23   24 ar
    35   23   41 1
    36   24   25 ar
    37   24   45 1
    38   25   26 ar
    39   25   31 ar
    40   26   27 2
    41   26   28 ar
    42   27   42 1
    43   28   29 ar
    44   28   44 1
    45   29   30 ar
    46   29   43 1
    47   30   31 ar
@<TRIPOS>SUBSTRUCTURE
     1 ATP         1 GROUP 0 A     ****
@<TRIPOS>MOLECULE
[[[3,4-dihydroxy-5-(6-imino-7,8-dihydro-1~{H}-purin-8-ylium-9-yl)tetrahydrofuran-2-yl]methoxy-oxido-phosphoryl]oxy-oxido-phosphoryl] hydrogen phosphate
   45    47     1     0     0
SMALL
USER_CHARGES

@<TRIPOS>ATOM
      1 PG         -0.3402   -2.9614   -4.6426 P.3       1 ATP         1.5631
      2 O1G        -1.7089   -2.3652   -4.8849 O.co2     1 ATP        -0.8806
      3 O2G         0.3609   -2.7838   -3.3142 O.co2     1 ATP        -0.8806
      4 O3G        -0.4007   -4.5562   -4.9877 O.3       1 ATP        -0.8165
      5 PB          1.2375   -1.0019   -6.1965 P.3       1 ATP         1.6877
      6 O1B         2.2668   -1.1311   -7.2970 O.co2     1 ATP        -0.8727
      7 O2B         0.0693   -0.0498   -6.3243 O.co2     1 ATP        -0.8727
      8 O3B         0.6646   -2.4882   -5.8385 O.3       1 ATP        -0.8330
      9 PA          2.8621    0.6170   -4.3270 P.3       1 ATP         1.6036
     10 O1A         1.9204    1.7976   -4.2287 O.co2     1 ATP        -0.9062
     11 O2A         4.1143    0.6947   -5.1729 O.co2     1 ATP        -0.9062
     12 O3A         2.0098   -0.6976   -4.7908 O.3       1 ATP        -0.8166
     13 O5'         3.2903    0.1346   -2.8241 O.3       1 ATP        -0.5510
     14 C5'         2.2816   -0.2918   -1.9206 C.3       1 ATP         0.2099
     15 C4'         2.7248    0.0226   -0.4980 C.3       1 ATP         0.0598
     16 O4'         2.4697    1.4219   -0.2462 O.3       1 ATP        -0.3455
     17 C3'         1.9404   -0.7419    0.5596 C.3       1 ATP         0.0742
     18 O3'         2.7418   -0.8086    1.7389 O.3       1 ATP        -0.6025
     19 C2'         0.7477    0.1630    0.7858 C.3       1 ATP         0.1145
     20 O2'         0.1373   -0.0577    2.0407 O.3       1 ATP        -0.5835
     21 C1'         1.3733    1.5427    0.6747 C.3       1 ATP         0.3776
     22 N9          0.4520    2.5240    0.1767 N.pl3     1 ATP        -0.4429
     23 C8         -0.8620    2.5492    0.3743 C.ar      1 ATP         0.2964
     24 N7         -1.4419    3.5886   -0.2183 N.pl3     1 ATP        -0.4957
     25 C5         -0.4215    4.2614   -0.8294 C.ar      1 ATP        -0.1346
     26 C6         -0.4310    5.4918   -1.6405 C.ar      1 ATP         0.7213
     27 N6         -1.5302    6.1308   -1.8826 N.2       1 ATP        -0.8215
     28 N1          0.8382    5.8461   -2.0817 N.pl3     1 ATP        -0.8455
     29 C2          1.9625    5.0982   -1.7709 C.ar      1 ATP         0.6477
     30 N3          1.9930    4.0077   -1.0554 N.2       1 ATP        -0.5707
     31 C4          0.7483    3.6314   -0.6038 C.ar      1 ATP         0.2637
     32 HOG3        0.4161   -5.0886   -4.8795 H         1 ATP         0.4378
     33 H5'1        1.3514    0.2330   -2.1577 H         1 ATP         0.0340
     34 H5'2        2.1280   -1.3678   -2.0460 H         1 ATP         0.0340
     35 H4'         3.8044   -0.1397   -0.4040 H         1 ATP         0.0910
     36 H3'         1.6764   -1.7639    0.2728 H         1 ATP         0.0656
     37 HO3'        2.2232   -1.2979    2.3953 H         1 ATP         0.4386
     38 H2'        -0.0011    0.0027    0.0003 H         1 ATP         0.0788
     39 HO2'       -0.1563   -0.9855    2.0596 H         1 ATP         0.4363
     40 H1'         1.7826    1.9024    1.6451 H         1 ATP         0.1225
     41 H8         -1.4030    1.8165    0.9473 H         1 ATP         0.3824
     42 HN62       -1.3197    6.9504   -2.4583 H         1 ATP         0.4018
     43 H2          2.8857    5.5186   -2.1994 H         1 ATP         0.0652
     44 H44         0.9433    6.6815   -2.6502 H         1 ATP         0.4503
     45 H45        -2.4254    3.8199   -0.2108 H         1 ATP         0.5209
@<TRIPOS>BOND
     1    1    2 2
     2    1    3 1
     3    1    4 1
     4    1    8 1
     5    4   32 1
     6    5    6 2
     7    5    7 1
     8    5    8 1
     9    5   12 1
    10    9   10 2
    11    9   11 1
    12    9   12 1
    13    9   13 1
    14   13   14 1
    15   14   15 1
    16   14   33 1
    17   14   34 1
    18   15   16 1
    19   15   17 1
    20   15   35 1
    21   16   21 1
    22   17   18 1
    23   17   19 1
    24   17   36 1
    25   18   37 1
    26   19   20 1
    27   19   21 1
    28   19   38 1
    29   20   39 1
    30   21   22 1
    31   21   40 1
    32   22   23 ar
    33   22   31 ar
    34   23   24 ar
    35   23   41 1
    36   24   25 ar
    37   24   45 1
    38   25   26 ar
    39   25   31 ar
    40   26   27 2
    41   26   28 ar
    42   27   42 1
    43   28   29 ar
    44   28   44 1
    45   29   30 ar
    46   29   43 1
    47   30   31 ar
@<TRIPOS>SUBSTRUCTURE
     1 ATP         1 GROUP 0 A     ****
@<TRIPOS>MOLECULE
[[[3,4-dihydroxy-5-(6-imino-7,8-dihydro-1~{H}-purin-8-ylium-9-yl)tetrahydrofuran-2-yl]methoxy-oxido-phosphoryl]oxy-oxido-phosphoryl] hydrogen phosphate
   45    47     1     0     0
SMALL
USER_CHARGES

@<TRIPOS>ATOM
      1 PG          0.8149    2.8586   -8.0758 P.3       1 ATP         1.5631
      2 O1G         0.4634    1.7763   -9.0720 O.co2     1 ATP        -0.8806
      3 O2G         1.9020    3.8669   -8.3749 O.co2     1 ATP        -0.8806
      4 O3G        -0.5489    3.6670   -7.6854 O.3       1 ATP        -0.8165
      5 PB          0.2043    1.1390   -5.7491 P.3       1 ATP         1.6877
      6 O1B        -1.0358    1.8673   -5.2810 O.co2     1 ATP        -0.8727
      7 O2B         0.1076   -0.1755   -6.4910 O.co2     1 ATP        -0.8727
      8 O3B         1.1165    2.1697   -6.6273 O.3       1 ATP        -0.8330
      9 PA          2.7407    0.3769   -4.4297 P.3       1 ATP         1.6036
     10 O1A         3.6422    1.3305   -5.1835 O.co2     1 ATP        -0.9062
     11 O2A         2.7080   -1.0952   -4.7784 O.co2     1 ATP        -0.9062
     12 O3A         1.2115    0.9503   -4.4784 O.3       1 ATP        -0.8166
     13 O5'         3.0213    0.5153   -2.8245 O.3       1 ATP        -0.5510
     14 C5'         2.2816   -0.2918   -1.9206 C.3       1 ATP         0.2099
     15 C4'         2.7248    0.0226   -0.4980 C.3       1 ATP         0.0598
     16 O4'         2.4697    1.4219   -0.2462 O.3       1 ATP        -0.3455
     17 C3'         1.9404   -0.7419    0.5596 C.3       1 ATP         0.0742
     18 O3'         2.7418   -0.8086    1.7389 O.3       1 ATP        -0.6025
     19 C2'         0.7477    0.1630    0.7858 C.3       1 ATP         0.1145
     20 O2'         0.1373   -0.0577    2.0407 O.3       1 ATP        -0.5835
     21 C1'         1.3733    1.5427    0.6747 C.3       1 ATP         0.3776
     22 N9          0.4520    2.5240    0.1767 N.pl3     1 ATP        -0.4429
     23 C8         -0.8620    2.5492    0.3743 C.ar      1 ATP         0.2964
     24 N7         -1.4419    3.5886   -0.2183 N.pl3     1 ATP        -0.4957
     25 C5         -0.4215    4.2614   -0.8294 C.ar      1 ATP        -0.1346
     26 C6         -0.4310    5.4918   -1.6405 C.ar      1 ATP         0.7213
     27 N6         -1.5302    6.1308   -1.8826 N.2       1 ATP        -0.8215
     28 N1          0.8382    5.8461   -2.0817 N.pl3     1 ATP        -0.8455
     29 C2          1.9625    5.0982   -1.7709 C.ar      1 ATP         0.6477
     30 N3          1.9930    4.0077   -1.0554 N.2       1 ATP        -0.5707
     31 C4          0.7483    3.6314   -0.6038 C.ar      1 ATP         0.2637
     32 HOG3       -0.4859    4.4062   -7.0435 H         1 ATP         0.4378
     33 H5'1        1.2163   -0.0770   -2.0471 H         1 ATP         0.0340
     34 H5'2        2.4655   -1.3443   -2.1563 H         1 ATP         0.0340
     35 H4'         3.8044   -0.1397   -0.4040 H         1 ATP         0.0910
     36 H3'         1.6764   -1.7639    0.2728 H         1 ATP         0.0656
     37 HO3'        3.5554   -1.2733    1.4914 H         1 ATP         0.4386
     38 H2'        -0.0011    0.0027    0.0003 H         1 ATP         0.0788
     39 HO2'       -0.1563   -0.9855    2.0596 H         1 ATP         0.4363
     40 H1'         1.7826    1.9024    1.6451 H         1 ATP         0.1225
     41 H8         -1.4030    1.8165    0.9473 H         1 ATP         0.3824
     42 HN62       -1.3197    6.9504   -2.4583 H         1 ATP         0.4018
     43 H2          2.8857    5.5186   -2.1994 H         1 ATP         0.0652
     44 H44         0.9433    6.6815   -2.6502 H         1 ATP         0.4503
     45 H45        -2.4254    3.8199   -0.2108 H         1 ATP         0.5209
@<TRIPOS>BOND
     1    1    2 2
     2    1    3 1
     3    1    4 1
     4    1    8 1
     5    4   32 1
     6    5    6 2
     7    5    7 1
     8    5    8 1
     9    5   12 1
    10    9   10 2
    11    9   11 1
    12    9   12 1
    13    9   13 1
    14   13   14 1
    15   14   15 1
    16   14   33 1
    17   14   34 1
    18   15   16 1
    19   15   17 1
    20   15   35 1
    21   16   21 1
    22   17   18 1
    23   17   19 1
    24   17   36 1
    25   18   37 1
    26   19   20 1
    27   19   21 1
    28   19   38 1
    29   20   39 1
    30   21   22 1
    31   21   40 1
    32   22   23 ar
    33   22   31 ar
    34   23   24 ar
    35   23   41 1
    36   24   25 ar
    37   24   45 1
    38   25   26 ar
    39   25   31 ar
    40   26   27 2
    41   26   28 ar
    42   27   42 1
    43   28   29 ar
    44   28   44 1
    45   29   30 ar
    46   29   43 1
    47   30   31 ar
@<TRIPOS>SUBSTRUCTURE
     1 ATP         1 GROUP 0 A     ****
@<TRIPOS>MOLECULE
[[[3,4-dihydroxy-5-(6-imino-7,8-dihydro-1~{H}-purin-8-ylium-9-yl)tetrahydrofuran-2-yl]methoxy-oxido-phosphoryl]oxy-oxido-phosphoryl] hydrogen phosphate
   45    47     1     0     0
SMALL
USER_CHARGES

@<TRIPOS>ATOM
      1 PG          3.8239   -3.1031   -6.3367 P.3       1 ATP         1.5631
      2 O1G         4.2968   -2.8492   -4.9228 O.co2     1 ATP        -0.8806
      3 O2G         4.6916   -2.7449   -7.5227 O.co2     1 ATP        -0.8806
      4 O3G         3.3923   -4.6725   -6.4654 O.3       1 ATP        -0.8165
      5 PB          1.9171   -0.8520   -6.5379 P.3       1 ATP         1.6877
      6 O1B         2.7795   -0.1128   -7.5366 O.co2     1 ATP        -0.8727
      7 O2B         0.4080   -0.7664   -6.5912 O.co2     1 ATP        -0.8727
      8 O3B         2.3522   -2.4257   -6.5343 O.3       1 ATP        -0.8330
      9 PA          2.3336    0.9636   -4.2390 P.3       1 ATP         1.6036
     10 O1A         0.8796    1.3120   -4.0049 O.co2     1 ATP        -0.9062
     11 O2A         3.2620    1.9405   -4.9270 O.co2     1 ATP        -0.9062
     12 O3A         2.4109   -0.4633   -5.0313 O.3       1 ATP        -0.8166
     13 O5'         3.0213    0.5153   -2.8245 O.3       1 ATP        -0.5510
     14 C5'         2.2816   -0.2918   -1.9206 C.3       1 ATP         0.2099
     15 C4'         2.7248    0.0226   -0.4980 C.3       1 ATP         0.0598
     16 O4'         2.4697    1.4219   -0.2462 O.3       1 ATP        -0.3455
     17 C3'         1.9404   -0.7419    0.5596 C.3       1 ATP         0.0742
     18 O3'         2.7418   -0.8086    1.7389 O.3       1 ATP        -0.6025
     19 C2'         0.7477    0.1630    0.7858 C.3       1 ATP         0.1145
     20 O2'         0.1373   -0.0577    2.0407 O.3       1 ATP        -0.5835
     21 C1'         1.3733    1.5427    0.6747 C.3       1 ATP         0.3776
     22 N9          0.4520    2.5240    0.1767 N.pl3     1 ATP        -0.4429
     23 C8         -0.2004    2.4829   -0.9804 C.ar      1 ATP         0.2964
     24 N7         -0.9830    3.5431   -1.1568 N.pl3     1 ATP        -0.4957
     25 C5         -0.8095    4.3012   -0.0331 C.ar      1 ATP        -0.1346
     26 C6         -1.4065    5.5904    0.3585 C.ar      1 ATP         0.7213
     27 N6         -2.2501    6.2030   -0.4084 N.2       1 ATP        -0.8215
     28 N1         -0.9585    6.0272    1.5994 N.pl3     1 ATP        -0.8455
     29 C2         -0.0508    5.3009    2.3532 C.ar      1 ATP         0.6477
     30 N3          0.4890    4.1592    2.0257 N.2       1 ATP        -0.5707
     31 C4          0.0637    3.7006    0.7995 C.ar      1 ATP         0.2637
     32 HOG3        2.6753   -5.0086   -5.8864 H         1 ATP         0.4378
     33 H5'1        1.2163   -0.0770   -2.0471 H         1 ATP         0.0340
     34 H5'2        2.4655   -1.3443   -2.1563 H         1 ATP         0.0340
     35 H4'         3.8044   -0.1397   -0.4040 H         1 ATP         0.0910
     36 H3'         1.6764   -1.7639    0.2728 H         1 ATP         0.0656
     37 HO3'        2.2232   -1.2979    2.3953 H         1 ATP         0.4386
     38 H2'        -0.0011    0.0027    0.0003 H         1 ATP         0.0788
     39 HO2'       -0.1563   -0.9855    2.0596 H         1 ATP         0.4363
     40 H1'         1.7826    1.9024    1.6451 H         1 ATP         0.1225
     41 H8         -0.1116    1.6863   -1.6984 H         1 ATP         0.3824
     42 HN62       -2.5420    7.0730    0.0447 H         1 ATP         0.4018
     43 H2          0.1969    5.7893    3.3086 H         1 ATP         0.0652
     44 H44        -1.3097    6.9080    1.9642 H         1 ATP         0.4503
     45 H45        -1.5735    3.7351   -1.9538 H         1 ATP         0.5209
@<TRIPOS>BOND
     1    1    2 2
     2    1    3 1
     3    1    4 1
     4    1    8 1
     5    4   32 1
     6    5    6 2
     7    5    7 1
     8    5    8 1
     9    5   12 1
    10    9   10 2
    11    9   11 1
    12    9   12 1
    13    9   13 1
    14   13   14 1
    15   14   15 1
    16   14   33 1
    17   14   34 1
    18   15   16 1
    19   15   17 1
    20   15   35 1
    21   16   21 1
    22   17   18 1
    23   17   19 1
    24   17   36 1
    25   18   37 1
    26   19   20 1
    27   19   21 1
    28   19   38 1
    29   20   39 1
    30   21   22 1
    31   21   40 1
    32   22   23 ar
    33   22   31 ar
    34   23   24 ar
    35   23   41 1
    36   24   25 ar
    37   24   45 1
    38   25   26 ar
    39   25   31 ar
    40   26   27 2
    41   26   28 ar
    42   27   42 1
    43   28   29 ar
    44   28   44 1
    45   29   30 ar
    46   29   43 1
    47   30   31 ar
@<TRIPOS>SUBSTRUCTURE
     1 ATP         1 GROUP 0 A     ****
@<TRIPOS>MOLECULE
[[[3,4-dihydroxy-5-(6-imino-7,8-dihydro-1~{H}-purin-8-ylium-9-yl)tetrahydrofuran-2-yl]methoxy-oxido-phosphoryl]oxy-oxido-phosphoryl] hydrogen phosphate
   45    47     1     0     0
SMALL
USER_CHARGES

@<TRIPOS>ATOM
      1 PG         -4.6806   -9.6739    3.3858 P.3       1 ATP         1.5631
      2 O1G        -5.9697   -9.6294    2.5961 O.co2     1 ATP        -0.8806
      3 O2G        -4.6919   -9.9113    4.8796 O.co2     1 ATP        -0.8806
      4 O3G        -3.6863  -10.7690    2.6944 O.3       1 ATP        -0.8165
      5 PB         -4.1389   -6.7676    3.4436 P.3       1 ATP         1.6877
      6 O1B        -5.3522   -6.3214    2.6587 O.co2     1 ATP        -0.8727
      7 O2B        -4.0746   -6.6052    4.9460 O.co2     1 ATP        -0.8727
      8 O3B        -3.8181   -8.3245    3.0712 O.3       1 ATP        -0.8330
      9 PA         -1.2302   -6.3291    3.1238 P.3       1 ATP         1.6036
     10 O1A        -0.8643   -7.7469    2.7411 O.co2     1 ATP        -0.9062
     11 O2A        -0.9563   -5.8091    4.5182 O.co2     1 ATP        -0.9062
     12 O3A        -2.8100   -6.0849    2.7857 O.3       1 ATP        -0.8166
     13 O5'        -0.5687   -5.2869    2.0510 O.3       1 ATP        -0.5510
     14 C5'        -0.7840   -3.8935    2.2172 C.3       1 ATP         0.2099
     15 C4'        -0.0724   -3.1466    1.1027 C.3       1 ATP         0.0598
     16 O4'        -0.8674   -3.1929   -0.0945 O.3       1 ATP        -0.3455
     17 C3'         0.1338   -1.6715    1.4027 C.3       1 ATP         0.0742
     18 O3'         1.2893   -1.4445    2.1808 O.3       1 ATP        -0.6025
     19 C2'         0.2158   -1.0724    0.0128 C.3       1 ATP         0.1145
     20 O2'         1.5141   -1.2448   -0.5513 O.3       1 ATP        -0.5835
     21 C1'        -0.7897   -1.9176   -0.7583 C.3       1 ATP         0.3776
     22 N9         -2.1040   -1.3333   -0.7704 N.pl3     1 ATP        -0.4429
     23 C8         -3.0590   -1.5123    0.1363 C.ar      1 ATP         0.2964
     24 N7         -4.1655   -0.8354   -0.1554 N.pl3     1 ATP        -0.4957
     25 C5         -3.8852   -0.1874   -1.3253 C.ar      1 ATP        -0.1346
     26 C6         -4.7113    0.7160   -2.1458 C.ar      1 ATP         0.7213
     27 N6         -5.9213    1.0209   -1.8021 N.2       1 ATP        -0.8215
     28 N1         -4.0411    1.1673   -3.2764 N.pl3     1 ATP        -0.8455
     29 C2         -2.7403    0.7865   -3.5638 C.ar      1 ATP         0.6477
     30 N3         -1.9921   -0.0108   -2.8519 N.2       1 ATP        -0.5707
     31 C4         -2.6302   -0.4747   -1.7239 C.ar      1 ATP         0.2637
     32 HOG3       -2.8025  -10.9151    3.0941 H         1 ATP         0.4378
     33 H5'1       -1.8598   -3.6968    2.1850 H         1 ATP         0.0340
     34 H5'2       -0.3933   -3.5903    3.1931 H         1 ATP         0.0340
     35 H4'         0.8874   -3.6466    0.8805 H         1 ATP         0.0910
     36 H3'        -0.7376   -1.2333    1.9867 H         1 ATP         0.0656
     37 HO3'        1.1626   -1.9325    3.0084 H         1 ATP         0.4386
     38 H2'        -0.0384   -0.0310    0.0096 H         1 ATP         0.0788
     39 HO2'        1.4998   -0.8412   -1.4369 H         1 ATP         0.4363
     40 H1'        -0.4769   -2.1002   -1.8093 H         1 ATP         0.1225
     41 H8         -2.9569   -2.1323    1.0098 H         1 ATP         0.3824
     42 HN62       -6.3169    1.6552   -2.5012 H         1 ATP         0.4018
     43 H2         -2.3612    1.2343   -4.4957 H         1 ATP         0.0652
     44 H44        -4.5223    1.7976   -3.9117 H         1 ATP         0.4503
     45 H45        -5.0218   -0.8132    0.3804 H         1 ATP         0.5209
@<TRIPOS>BOND
     1    1    2 2
     2    1    3 1
     3    1    4 1
     4    1    8 1
     5    4   32 1
     6    5    6 2
     7    5    7 1
     8    5    8 1
     9    5   12 1
    10    9   10 2
    11    9   11 1
    12    9   12 1
    13    9   13 1
    14   13   14 1
    15   14   15 1
    16   14   33 1
    17   14   34 1
    18   15   16 1
    19   15   17 1
    20   15   35 1
    21   16   21 1
    22   17   18 1
    23   17   19 1
    24   17   36 1
    25   18   37 1
    26   19   20 1
    27   19   21 1
    28   19   38 1
    29   20   39 1
    30   21   22 1
    31   21   40 1
    32   22   23 ar
    33   22   31 ar
    34   23   24 ar
    35   23   41 1
    36   24   25 ar
    37   24   45 1
    38   25   26 ar
    39   25   31 ar
    40   26   27 2
    41   26   28 ar
    42   27   42 1
    43   28   29 ar
    44   28   44 1
    45   29   30 ar
    46   29   43 1
    47   30   31 ar
@<TRIPOS>SUBSTRUCTURE
     1 ATP         1 GROUP 0 A     ****
@<TRIPOS>MOLECULE
[[[3,4-dihydroxy-5-(6-imino-7,8-dihydro-1~{H}-purin-8-ylium-9-yl)tetrahydrofuran-2-yl]methoxy-oxido-phosphoryl]oxy-oxido-phosphoryl] hydrogen phosphate
   45    47     1     0     0
SMALL
USER_CHARGES

@<TRIPOS>ATOM
      1 PG          3.4914   -4.6465   -5.9056 P.3       1 ATP         1.5631
      2 O1G         4.6514   -4.7358   -6.8720 O.co2     1 ATP        -0.8806
      3 O2G         2.2200   -3.9190   -6.2825 O.co2     1 ATP        -0.8806
      4 O3G         3.1010   -6.1566   -5.4228 O.3       1 ATP        -0.8165
      5 PB          4.6174   -2.5857   -4.1087 P.3       1 ATP         1.6877
      6 O1B         4.8196   -2.5062   -2.6119 O.co2     1 ATP        -0.8727
      7 O2B         5.7374   -2.2528   -5.0692 O.co2     1 ATP        -0.8727
      8 O3B         4.0315   -4.0637   -4.4800 O.3       1 ATP        -0.8330
      9 PA          3.0675   -0.0857   -4.4293 P.3       1 ATP         1.6036
     10 O1A         1.6267    0.2117   -4.7841 O.co2     1 ATP        -0.9062
     11 O2A         4.2015    0.5978   -5.1618 O.co2     1 ATP        -0.9062
     12 O3A         3.3051   -1.7004   -4.5072 O.3       1 ATP        -0.8166
     13 O5'         3.2903    0.1346   -2.8241 O.3       1 ATP        -0.5510
     14 C5'         2.2816   -0.2918   -1.9206 C.3       1 ATP         0.2099
     15 C4'         2.7248    0.0226   -0.4980 C.3       1 ATP         0.0598
     16 O4'         2.4697    1.4219   -0.2462 O.3       1 ATP        -0.3455
     17 C3'         1.9404   -0.7419    0.5596 C.3       1 ATP         0.0742
     18 O3'         2.7418   -0.8086    1.7389 O.3       1 ATP        -0.6025
     19 C2'         0.7477    0.1630    0.7858 C.3       1 ATP         0.1145
     20 O2'         0.1373   -0.0577    2.0407 O.3       1 ATP        -0.5835
     21 C1'         1.3733    1.5427    0.6747 C.3       1 ATP         0.3776
     22 N9          0.4520    2.5240    0.1767 N.pl3     1 ATP        -0.4429
     23 C8         -0.8620    2.5492    0.3743 C.ar      1 ATP         0.2964
     24 N7         -1.4419    3.5886   -0.2183 N.pl3     1 ATP        -0.4957
     25 C5         -0.4215    4.2614   -0.8294 C.ar      1 ATP        -0.1346
     26 C6         -0.4310    5.4918   -1.6405 C.ar      1 ATP         0.7213
     27 N6         -1.5302    6.1308   -1.8826 N.2       1 ATP        -0.8215
     28 N1          0.8382    5.8461   -2.0817 N.pl3     1 ATP        -0.8455
     29 C2          1.9625    5.0982   -1.7709 C.ar      1 ATP         0.6477
     30 N3          1.9930    4.0077   -1.0554 N.2       1 ATP        -0.5707
     31 C4          0.7483    3.6314   -0.6038 C.ar      1 ATP         0.2637
     32 HOG3        2.3607   -6.2673   -4.7889 H         1 ATP         0.4378
     33 H5'1        1.3514    0.2330   -2.1577 H         1 ATP         0.0340
     34 H5'2        2.1280   -1.3678   -2.0460 H         1 ATP         0.0340
     35 H4'         3.8044   -0.1397   -0.4040 H         1 ATP         0.0910
     36 H3'         1.6764   -1.7639    0.2728 H         1 ATP         0.0656
     37 HO3'        2.2232   -1.2979    2.3953 H         1 ATP         0.4386
     38 H2'        -0.0011    0.0027    0.0003 H         1 ATP         0.0788
     39 HO2'       -0.1563   -0.9855    2.0596 H         1 ATP         0.4363
     40 H1'         1.7826    1.9024    1.6451 H         1 ATP         0.1225
     41 H8         -1.4030    1.8165    0.9473 H         1 ATP         0.3824
     42 HN62       -1.3197    6.9504   -2.4583 H         1 ATP         0.4018
     43 H2          2.8857    5.5186   -2.1994 H         1 ATP         0.0652
     44 H44         0.9433    6.6815   -2.6502 H         1 ATP         0.4503
     45 H45        -2.4254    3.8199   -0.2108 H         1 ATP         0.5209
@<TRIPOS>BOND
     1    1    2 2
     2    1    3 1
     3    1    4 1
     4    1    8 1
     5    4   32 1
     6    5    6 2
     7    5    7 1
     8    5    8 1
     9    5   12 1
    10    9   10 2
    11    9   11 1
    12    9   12 1
    13    9   13 1
    14   13   14 1
    15   14   15 1
    16   14   33 1
    17   14   34 1
    18   15   16 1
    19   15   17 1
    20   15   35 1
    21   16   21 1
    22   17   18 1
    23   17   19 1
    24   17   36 1
    25   18   37 1
    26   19   20 1
    27   19   21 1
    28   19   38 1
    29   20   39 1
    30   21   22 1
    31   21   40 1
    32   22   23 ar
    33   22   31 ar
    34   23   24 ar
    35   23   41 1
    36   24   25 ar
    37   24   45 1
    38   25   26 ar
    39   25   31 ar
    40   26   27 2
    41   26   28 ar
    42   27   42 1
    43   28   29 ar
    44   28   44 1
    45   29   30 ar
    46   29   43 1
    47   30   31 ar
@<TRIPOS>SUBSTRUCTURE
     1 ATP         1 GROUP 0 A     ****
@<TRIPOS>MOLECULE
[[[3,4-dihydroxy-5-(6-imino-7,8-dihydro-1~{H}-purin-8-ylium-9-yl)tetrahydrofuran-2-yl]methoxy-oxido-phosphoryl]oxy-oxido-phosphoryl] hydrogen phosphate
   45    47     1     0     0
SMALL
USER_CHARGES

@<TRIPOS>ATOM
      1 PG         -3.9364   -8.9693   -1.5592 P.3       1 ATP         1.5631
      2 O1G        -5.3648   -9.0804   -1.0748 O.co2     1 ATP        -0.8806
      3 O2G        -3.0309  -10.1803   -1.5938 O.co2     1 ATP        -0.8806
      4 O3G        -3.9432   -8.2846   -3.0415 O.3       1 ATP        -0.8165
      5 PB         -3.6307   -6.2158   -0.5256 P.3       1 ATP         1.6877
      6 O1B        -3.5652   -5.5065   -1.8598 O.co2     1 ATP        -0.8727
      7 O2B        -4.8838   -6.1788    0.3206 O.co2     1 ATP        -0.8727
      8 O3B        -3.1887   -7.7730   -0.7384 O.3       1 ATP        -0.8330
      9 PA         -1.8564   -6.2730    1.8416 P.3       1 ATP         1.6036
     10 O1A        -1.3787   -7.7008    1.6878 O.co2     1 ATP        -0.9062
     11 O2A        -2.8999   -5.9138    2.8769 O.co2     1 ATP        -0.9062
     12 O3A        -2.3676   -5.7306    0.3876 O.3       1 ATP        -0.8166
     13 O5'        -0.5687   -5.2869    2.0510 O.3       1 ATP        -0.5510
     14 C5'        -0.7840   -3.8935    2.2172 C.3       1 ATP         0.2099
     15 C4'        -0.0724   -3.1466    1.1027 C.3       1 ATP         0.0598
     16 O4'        -0.8674   -3.1929   -0.0945 O.3       1 ATP        -0.3455
     17 C3'         0.1338   -1.6715    1.4027 C.3       1 ATP         0.0742
     18 O3'         1.2893   -1.4445    2.1808 O.3       1 ATP        -0.6025
     19 C2'         0.2158   -1.0724    0.0128 C.3       1 ATP         0.1145
     20 O2'         1.5141   -1.2448   -0.5513 O.3       1 ATP        -0.5835
     21 C1'        -0.7897   -1.9176   -0.7583 C.3       1 ATP         0.3776
     22 N9         -2.1040   -1.3333   -0.7704 N.pl3     1 ATP        -0.4429
     23 C8         -3.0590   -1.5123    0.1363 C.ar      1 ATP         0.2964
     24 N7         -4.1655   -0.8354   -0.1554 N.pl3     1 ATP        -0.4957
     25 C5         -3.8852   -0.1874   -1.3253 C.ar      1 ATP        -0.1346
     26 C6         -4.7113    0.7160   -2.1458 C.ar      1 ATP         0.7213
     27 N6         -5.9213    1.0209   -1.8021 N.2       1 ATP        -0.8215
     28 N1         -4.0411    1.1673   -3.2764 N.pl3     1 ATP        -0.8455
     29 C2         -2.7403    0.7865   -3.5638 C.ar      1 ATP         0.6477
     30 N3         -1.9921   -0.0108   -2.8519 N.2       1 ATP        -0.5707
     31 C4         -2.6302   -0.4747   -1.7239 C.ar      1 ATP         0.2637
     32 HOG3       -3.0846   -8.1432   -3.4944 H         1 ATP         0.4378
     33 H5'1       -1.8598   -3.6968    2.1850 H         1 ATP         0.0340
     34 H5'2       -0.3933   -3.5903    3.1931 H         1 ATP         0.0340
     35 H4'         0.8874   -3.6466    0.8805 H         1 ATP         0.0910
     36 H3'        -0.7376   -1.2333    1.9867 H         1 ATP         0.0656
     37 HO3'        1.3408   -0.4870    2.3219 H         1 ATP         0.4386
     38 H2'        -0.0384   -0.0310    0.0096 H         1 ATP         0.0788
     39 HO2'        2.1463   -0.7958    0.0370 H         1 ATP         0.4363
     40 H1'        -0.4769   -2.1002   -1.8093 H         1 ATP         0.1225
     41 H8         -2.9569   -2.1323    1.0098 H         1 ATP         0.3824
     42 HN62       -6.3169    1.6552   -2.5012 H         1 ATP         0.4018
     43 H2         -2.3612    1.2343   -4.4957 H         1 ATP         0.0652
     44 H44        -4.5223    1.7976   -3.9117 H         1 ATP         0.4503
     45 H45        -5.0218   -0.8132    0.3804 H         1 ATP         0.5209
@<TRIPOS>BOND
     1    1    2 2
     2    1    3 1
     3    1    4 1
     4    1    8 1
     5    4   32 1
     6    5    6 2
     7    5    7 1
     8    5    8 1
     9    5   12 1
    10    9   10 2
    11    9   11 1
    12    9   12 1
    13    9   13 1
    14   13   14 1
    15   14   15 1
    16   14   33 1
    17   14   34 1
    18   15   16 1
    19   15   17 1
    20   15   35 1
    21   16   21 1
    22   17   18 1
    23   17   19 1
    24   17   36 1
    25   18   37 1
    26   19   20 1
    27   19   21 1
    28   19   38 1
    29   20   39 1
    30   21   22 1
    31   21   40 1
    32   22   23 ar
    33   22   31 ar
    34   23   24 ar
    35   23   41 1
    36   24   25 ar
    37   24   45 1
    38   25   26 ar
    39   25   31 ar
    40   26   27 2
    41   26   28 ar
    42   27   42 1
    43   28   29 ar
    44   28   44 1
    45   29   30 ar
    46   29   43 1
    47   30   31 ar
@<TRIPOS>SUBSTRUCTURE
     1 ATP         1 GROUP 0 A     ****
@<TRIPOS>MOLECULE
[[[3,4-dihydroxy-5-(6-imino-7,8-dihydro-1~{H}-purin-8-ylium-9-yl)tetrahydrofuran-2-yl]methoxy-oxido-phosphoryl]oxy-oxido-phosphoryl] hydrogen phosphate
   45    47     1     0     0
SMALL
USER_CHARGES

@<TRIPOS>ATOM
      1 PG          4.4772   -4.7410   -1.8789 P.3       1 ATP         1.5631
      2 O1G         3.4768   -5.7962   -2.2950 O.co2     1 ATP        -0.8806
      3 O2G         4.0521   -3.5525   -1.0455 O.co2     1 ATP        -0.8806
      4 O3G         5.7276   -5.4780   -1.1310 O.3       1 ATP        -0.8165
      5 PB          4.7053   -3.3497   -4.4781 P.3       1 ATP         1.6877
      6 O1B         5.8765   -2.9602   -5.3521 O.co2     1 ATP        -0.8727
      7 O2B         3.5036   -4.0666   -5.0524 O.co2     1 ATP        -0.8727
      8 O3B         5.2644   -4.2035   -3.2037 O.3       1 ATP        -0.8330
      9 PA          3.4844   -0.6652   -4.2374 P.3       1 ATP         1.6036
     10 O1A         2.1278   -1.0207   -4.8063 O.co2     1 ATP        -0.9062
     11 O2A         4.4996    0.0867   -5.0702 O.co2     1 ATP        -0.9062
     12 O3A         4.1903   -2.0264   -3.6729 O.3       1 ATP        -0.8166
     13 O5'         3.2903    0.1346   -2.8241 O.3       1 ATP        -0.5510
     14 C5'         2.2816   -0.2918   -1.9206 C.3       1 ATP         0.2099
     15 C4'         2.7248    0.0226   -0.4980 C.3       1 ATP         0.0598
     16 O4'         2.4697    1.4219   -0.2462 O.3       1 ATP        -0.3455
     17 C3'         1.9404   -0.7419    0.5596 C.3       1 ATP         0.0742
     18 O3'         2.7418   -0.8086    1.7389 O.3       1 ATP        -0.6025
     19 C2'         0.7477    0.1630    0.7858 C.3       1 ATP         0.1145
     20 O2'         0.1373   -0.0577    2.0407 O.3       1 ATP        -0.5835
     21 C1'         1.3733    1.5427    0.6747 C.3       1 ATP         0.3776
     22 N9          0.4520    2.5240    0.1767 N.pl3     1 ATP        -0.4429
     23 C8         -0.8620    2.5492    0.3743 C.ar      1 ATP         0.2964
     24 N7         -1.4419    3.5886   -0.2183 N.pl3     1 ATP        -0.4957
     25 C5         -0.4215    4.2614   -0.8294 C.ar      1 ATP        -0.1346
     26 C6         -0.4310    5.4918   -1.6405 C.ar      1 ATP         0.7213
     27 N6         -1.5302    6.1308   -1.8826 N.2       1 ATP        -0.8215
     28 N1          0.8382    5.8461   -2.0817 N.pl3     1 ATP        -0.8455
     29 C2          1.9625    5.0982   -1.7709 C.ar      1 ATP         0.6477
     30 N3          1.9930    4.0077   -1.0554 N.2       1 ATP        -0.5707
     31 C4          0.7483    3.6314   -0.6038 C.ar      1 ATP         0.2637
     32 HOG3        6.4656   -4.9235   -0.7992 H         1 ATP         0.4378
     33 H5'1        1.3514    0.2330   -2.1577 H         1 ATP         0.0340
     34 H5'2        2.1280   -1.3678   -2.0460 H         1 ATP         0.0340
     35 H4'         3.8044   -0.1397   -0.4040 H         1 ATP         0.0910
     36 H3'         1.6764   -1.7639    0.2728 H         1 ATP         0.0656
     37 HO3'        3.5554   -1.2733    1.4914 H         1 ATP         0.4386
     38 H2'        -0.0011    0.0027    0.0003 H         1 ATP         0.0788
     39 HO2'       -0.1563   -0.9855    2.0596 H         1 ATP         0.4363
     40 H1'         1.7826    1.9024    1.6451 H         1 ATP         0.1225
     41 H8         -1.4030    1.8165    0.9473 H         1 ATP         0.3824
     42 HN62       -1.3197    6.9504   -2.4583 H         1 ATP         0.4018
     43 H2          2.8857    5.5186   -2.1994 H         1 ATP         0.0652
     44 H44         0.9433    6.6815   -2.6502 H         1 ATP         0.4503
     45 H45        -2.4254    3.8199   -0.2108 H         1 ATP         0.5209
@<TRIPOS>BOND
     1    1    2 2
     2    1    3 1
     3    1    4 1
     4    1    8 1
     5    4   32 1
     6    5    6 2
     7    5    7 1
     8    5    8 1
     9    5   12 1
    10    9   10 2
    11    9   11 1
    12    9   12 1
    13    9   13 1
    14   13   14 1
    15   14   15 1
    16   14   33 1
    17   14   34 1
    18   15   16 1
    19   15   17 1
    20   15   35 1
    21   16   21 1
    22   17   18 1
    23   17   19 1
    24   17   36 1
    25   18   37 1
    26   19   20 1
    27   19   21 1
    28   19   38 1
    29   20   39 1
    30   21   22 1
    31   21   40 1
    32   22   23 ar
    33   22   31 ar
    34   23   24 ar
    35   23   41 1
    36   24   25 ar
    37   24   45 1
    38   25   26 ar
    39   25   31 ar
    40   26   27 2
    41   26   28 ar
    42   27   42 1
    43   28   29 ar
    44   28   44 1
    45   29   30 ar
    46   29   43 1
    47   30   31 ar
@<TRIPOS>SUBSTRUCTURE
     1 ATP         1 GROUP 0 A     ****
@<TRIPOS>MOLECULE
[[[3,4-dihydroxy-5-(6-imino-7,8-dihydro-1~{H}-purin-8-ylium-9-yl)tetrahydrofuran-2-yl]methoxy-oxido-phosphoryl]oxy-oxido-phosphoryl] hydrogen phosphate
   45    47     1     0     0
SMALL
USER_CHARGES

@<TRIPOS>ATOM
      1 PG         -6.4204   -6.4859    3.5529 P.3       1 ATP         1.5631
      2 O1G        -7.5004   -5.9372    2.6475 O.co2     1 ATP        -0.8806
      3 O2G        -6.3641   -6.1042    5.0154 O.co2     1 ATP        -0.8806
      4 O3G        -6.4289   -8.1149    3.4423 O.3       1 ATP        -0.8165
      5 PB         -4.4154   -6.5644    1.3810 P.3       1 ATP         1.6877
      6 O1B        -4.3152   -8.0682    1.2543 O.co2     1 ATP        -0.8727
      7 O2B        -5.1829   -5.7425    0.3695 O.co2     1 ATP        -0.8727
      8 O3B        -4.9633   -6.2004    2.8753 O.3       1 ATP        -0.8330
      9 PA         -1.7128   -6.3370    2.5639 P.3       1 ATP         1.6036
     10 O1A        -1.2607   -7.7533    2.2812 O.co2     1 ATP        -0.9062
     11 O2A        -2.1423   -5.9253    3.9552 O.co2     1 ATP        -0.9062
     12 O3A        -2.9097   -5.9496    1.5213 O.3       1 ATP        -0.8166
     13 O5'        -0.5687   -5.2869    2.0510 O.3       1 ATP        -0.5510
     14 C5'        -0.7840   -3.8935    2.2172 C.3       1 ATP         0.2099
     15 C4'        -0.0724   -3.1466    1.1027 C.3       1 ATP         0.0598
     16 O4'        -0.8674   -3.1929   -0.0945 O.3       1 ATP        -0.3455
     17 C3'         0.1338   -1.6715    1.4027 C.3       1 ATP         0.0742
     18 O3'         1.2893   -1.4445    2.1808 O.3       1 ATP        -0.6025
     19 C2'         0.2158   -1.0724    0.0128 C.3       1 ATP         0.1145
     20 O2'         1.5141   -1.2448   -0.5513 O.3       1 ATP        -0.5835
     21 C1'        -0.7897   -1.9176   -0.7583 C.3       1 ATP         0.3776
     22 N9         -2.1040   -1.3333   -0.7704 N.pl3     1 ATP        -0.4429
     23 C8         -3.0590   -1.5123    0.1363 C.ar      1 ATP         0.2964
     24 N7         -4.1655   -0.8354   -0.1554 N.pl3     1 ATP        -0.4957
     25 C5         -3.8852   -0.1874   -1.3253 C.ar      1 ATP        -0.1346
     26 C6         -4.7113    0.7160   -2.1458 C.ar      1 ATP         0.7213
     27 N6         -5.9213    1.0209   -1.8021 N.2       1 ATP        -0.8215
     28 N1         -4.0411    1.1673   -3.2764 N.pl3     1 ATP        -0.8455
     29 C2         -2.7403    0.7865   -3.5638 C.ar      1 ATP         0.6477
     30 N3         -1.9921   -0.0108   -2.8519 N.2       1 ATP        -0.5707
     31 C4         -2.6302   -0.4747   -1.7239 C.ar      1 ATP         0.2637
     32 HOG3       -5.7801   -8.6225    3.9749 H         1 ATP         0.4378
     33 H5'1       -1.8598   -3.6968    2.1850 H         1 ATP         0.0340
     34 H5'2       -0.3933   -3.5903    3.1931 H         1 ATP         0.0340
     35 H4'         0.8874   -3.6466    0.8805 H         1 ATP         0.0910
     36 H3'        -0.7376   -1.2333    1.9867 H         1 ATP         0.0656
     37 HO3'        1.1626   -1.9325    3.0084 H         1 ATP         0.4386
     38 H2'        -0.0384   -0.0310    0.0096 H         1 ATP         0.0788
     39 HO2'        2.1463   -0.7958    0.0370 H         1 ATP         0.4363
     40 H1'        -0.4769   -2.1002   -1.8093 H         1 ATP         0.1225
     41 H8         -2.9569   -2.1323    1.0098 H         1 ATP         0.3824
     42 HN62       -6.3169    1.6552   -2.5012 H         1 ATP         0.4018
     43 H2         -2.3612    1.2343   -4.4957 H         1 ATP         0.0652
     44 H44        -4.5223    1.7976   -3.9117 H         1 ATP         0.4503
     45 H45        -5.0218   -0.8132    0.3804 H         1 ATP         0.5209
@<TRIPOS>BOND
     1    1    2 2
     2    1    3 1
     3    1    4 1
     4    1    8 1
     5    4   32 1
     6    5    6 2
     7    5    7 1
     8    5    8 1
     9    5   12 1
    10    9   10 2
    11    9   11 1
    12    9   12 1
    13    9   13 1
    14   13   14 1
    15   14   15 1
    16   14   33 1
    17   14   34 1
    18   15   16 1
    19   15   17 1
    20   15   35 1
    21   16   21 1
    22   17   18 1
    23   17   19 1
    24   17   36 1
    25   18   37 1
    26   19   20 1
    27   19   21 1
    28   19   38 1
    29   20   39 1
    30   21   22 1
    31   21   40 1
    32   22   23 ar
    33   22   31 ar
    34   23   24 ar
    35   23   41 1
    36   24   25 ar
    37   24   45 1
    38   25   26 ar
    39   25   31 ar
    40   26   27 2
    41   26   28 ar
    42   27   42 1
    43   28   29 ar
    44   28   44 1
    45   29   30 ar
    46   29   43 1
    47   30   31 ar
@<TRIPOS>SUBSTRUCTURE
     1 ATP         1 GROUP 0 A     ****
@<TRIPOS>MOLECULE
[[[3,4-dihydroxy-5-(6-imino-7,8-dihydro-1~{H}-purin-8-ylium-9-yl)tetrahydrofuran-2-yl]methoxy-oxido-phosphoryl]oxy-oxido-phosphoryl] hydrogen phosphate
   45    47     1     0     0
SMALL
USER_CHARGES

@<TRIPOS>ATOM
      1 PG         -0.6860   -1.0927   -7.4727 P.3       1 ATP         1.5631
      2 O1G        -2.1422   -0.6965   -7.3739 O.co2     1 ATP        -0.8806
      3 O2G        -0.2822   -2.5451   -7.5955 O.co2     1 ATP        -0.8806
      4 O3G        -0.0039   -0.2595   -8.7001 O.3       1 ATP        -0.8165
      5 PB          0.2043    1.1390   -5.7491 P.3       1 ATP         1.6877
      6 O1B         0.9135    1.9450   -6.8144 O.co2     1 ATP        -0.8727
      7 O2B        -1.1568    1.5491   -5.2328 O.co2     1 ATP        -0.8727
      8 O3B         0.1332   -0.4190   -6.2322 O.3       1 ATP        -0.8330
      9 PA          2.7407    0.3769   -4.4297 P.3       1 ATP         1.6036
     10 O1A         3.6422    1.3305   -5.1835 O.co2     1 ATP        -0.9062
     11 O2A         2.7080   -1.0952   -4.7784 O.co2     1 ATP        -0.9062
     12 O3A         1.2115    0.9503   -4.4784 O.3       1 ATP        -0.8166
     13 O5'         3.0213    0.5153   -2.8245 O.3       1 ATP        -0.5510
     14 C5'         2.2816   -0.2918   -1.9206 C.3       1 ATP         0.2099
     15 C4'         2.7248    0.0226   -0.4980 C.3       1 ATP         0.0598
     16 O4'         2.4697    1.4219   -0.2462 O.3       1 ATP        -0.3455
     17 C3'         1.9404   -0.7419    0.5596 C.3       1 ATP         0.0742
     18 O3'         2.7418   -0.8086    1.7389 O.3       1 ATP        -0.6025
     19 C2'         0.7477    0.1630    0.7858 C.3       1 ATP         0.1145
     20 O2'         0.1373   -0.0577    2.0407 O.3       1 ATP        -0.5835
     21 C1'         1.3733    1.5427    0.6747 C.3       1 ATP         0.3776
     22 N9          0.4520    2.5240    0.1767 N.pl3     1 ATP        -0.4429
     23 C8         -0.8620    2.5492    0.3743 C.ar      1 ATP         0.2964
     24 N7         -1.4419    3.5886   -0.2183 N.pl3     1 ATP        -0.4957
     25 C5         -0.4215    4.2614   -0.8294 C.ar      1 ATP        -0.1346
     26 C6         -0.4310    5.4918   -1.6405 C.ar      1 ATP         0.7213
     27 N6         -1.5302    6.1308   -1.8826 N.2       1 ATP        -0.8215
     28 N1          0.8382    5.8461   -2.0817 N.pl3     1 ATP        -0.8455
     29 C2          1.9625    5.0982   -1.7709 C.ar      1 ATP         0.6477
     30 N3          1.9930    4.0077   -1.0554 N.2       1 ATP        -0.5707
     31 C4          0.7483    3.6314   -0.6038 C.ar      1 ATP         0.2637
     32 HOG3        0.9464   -0.4071   -8.8933 H         1 ATP         0.4378
     33 H5'1        1.2163   -0.0770   -2.0471 H         1 ATP         0.0340
     34 H5'2        2.4655   -1.3443   -2.1563 H         1 ATP         0.0340
     35 H4'         3.8044   -0.1397   -0.4040 H         1 ATP         0.0910
     36 H3'         1.6764   -1.7639    0.2728 H         1 ATP         0.0656
     37 HO3'        3.5554   -1.2733    1.4914 H         1 ATP         0.4386
     38 H2'        -0.0011    0.0027    0.0003 H         1 ATP         0.0788
     39 HO2'       -0.1563   -0.9855    2.0596 H         1 ATP         0.4363
     40 H1'         1.7826    1.9024    1.6451 H         1 ATP         0.1225
     41 H8         -1.4030    1.8165    0.9473 H         1 ATP         0.3824
     42 HN62       -1.3197    6.9504   -2.4583 H         1 ATP         0.4018
     43 H2          2.8857    5.5186   -2.1994 H         1 ATP         0.0652
     44 H44         0.9433    6.6815   -2.6502 H         1 ATP         0.4503
     45 H45        -2.4254    3.8199   -0.2108 H         1 ATP         0.5209
@<TRIPOS>BOND
     1    1    2 2
     2    1    3 1
     3    1    4 1
     4    1    8 1
     5    4   32 1
     6    5    6 2
     7    5    7 1
     8    5    8 1
     9    5   12 1
    10    9   10 2
    11    9   11 1
    12    9   12 1
    13    9   13 1
    14   13   14 1
    15   14   15 1
    16   14   33 1
    17   14   34 1
    18   15   16 1
    19   15   17 1
    20   15   35 1
    21   16   21 1
    22   17   18 1
    23   17   19 1
    24   17   36 1
    25   18   37 1
    26   19   20 1
    27   19   21 1
    28   19   38 1
    29   20   39 1
    30   21   22 1
    31   21   40 1
    32   22   23 ar
    33   22   31 ar
    34   23   24 ar
    35   23   41 1
    36   24   25 ar
    37   24   45 1
    38   25   26 ar
    39   25   31 ar
    40   26   27 2
    41   26   28 ar
    42   27   42 1
    43   28   29 ar
    44   28   44 1
    45   29   30 ar
    46   29   43 1
    47   30   31 ar
@<TRIPOS>SUBSTRUCTURE
     1 ATP         1 GROUP 0 A     ****
@<TRIPOS>MOLECULE
[[[3,4-dihydroxy-5-(6-imino-7,8-dihydro-1~{H}-purin-8-ylium-9-yl)tetrahydrofuran-2-yl]methoxy-oxido-phosphoryl]oxy-oxido-phosphoryl] hydrogen phosphate
   45    47     1     0     0
SMALL
USER_CHARGES

@<TRIPOS>ATOM
      1 PG          8.0841   -2.9330   -2.1820 P.3       1 ATP         1.5631
      2 O1G         7.5433   -4.2397   -2.7183 O.co2     1 ATP        -0.8806
      3 O2G         8.8015   -2.8764   -0.8516 O.co2     1 ATP        -0.8806
      4 O3G         9.0467   -2.2644   -3.3188 O.3       1 ATP        -0.8165
      5 PB          6.9461   -0.2229   -1.8604 P.3       1 ATP         1.6877
      6 O1B         7.2782   -0.0380   -0.3965 O.co2     1 ATP        -0.8727
      7 O2B         7.7536    0.4633   -2.9396 O.co2     1 ATP        -0.8727
      8 O3B         6.8889   -1.8217   -2.1862 O.3       1 ATP        -0.8330
      9 PA          4.4374   -0.0466   -3.4193 P.3       1 ATP         1.6036
     10 O1A         4.3033   -1.5210   -3.7328 O.co2     1 ATP        -0.9062
     11 O2A         4.9277    0.9261   -4.4696 O.co2     1 ATP        -0.9062
     12 O3A         5.3672    0.1247   -2.0867 O.3       1 ATP        -0.8166
     13 O5'         3.0213    0.5153   -2.8245 O.3       1 ATP        -0.5510
     14 C5'         2.2816   -0.2918   -1.9206 C.3       1 ATP         0.2099
     15 C4'         2.7248    0.0226   -0.4980 C.3       1 ATP         0.0598
     16 O4'         2.4697    1.4219   -0.2462 O.3       1 ATP        -0.3455
     17 C3'         1.9404   -0.7419    0.5596 C.3       1 ATP         0.0742
     18 O3'         2.7418   -0.8086    1.7389 O.3       1 ATP        -0.6025
     19 C2'         0.7477    0.1630    0.7858 C.3       1 ATP         0.1145
     20 O2'         0.1373   -0.0577    2.0407 O.3       1 ATP        -0.5835
     21 C1'         1.3733    1.5427    0.6747 C.3       1 ATP         0.3776
     22 N9          0.4520    2.5240    0.1767 N.pl3     1 ATP        -0.4429
     23 C8          0.2216    2.8192   -1.0985 C.ar      1 ATP         0.2964
     24 N7         -0.6906    3.7763   -1.2384 N.pl3     1 ATP        -0.4957
     25 C5         -1.0575    4.1037    0.0366 C.ar      1 ATP        -0.1346
     26 C6         -2.0291    5.0943    0.5330 C.ar      1 ATP         0.7213
     27 N6         -2.7093    5.8371   -0.2800 N.2       1 ATP        -0.8215
     28 N1         -2.1051    5.1136    1.9204 N.pl3     1 ATP        -0.8455
     29 C2         -1.3354    4.2774    2.7129 C.ar      1 ATP         0.6477
     30 N3         -0.4707    3.3945    2.2944 N.2       1 ATP        -0.5707
     31 C4         -0.3734    3.3525    0.9220 C.ar      1 ATP         0.2637
     32 HOG3        9.4769   -1.4056   -3.1200 H         1 ATP         0.4378
     33 H5'1        1.2163   -0.0770   -2.0471 H         1 ATP         0.0340
     34 H5'2        2.4655   -1.3443   -2.1563 H         1 ATP         0.0340
     35 H4'         3.8044   -0.1397   -0.4040 H         1 ATP         0.0910
     36 H3'         1.6764   -1.7639    0.2728 H         1 ATP         0.0656
     37 HO3'        2.2232   -1.2979    2.3953 H         1 ATP         0.4386
     38 H2'        -0.0011    0.0027    0.0003 H         1 ATP         0.0788
     39 HO2'       -0.6141    0.5574    2.1082 H         1 ATP         0.4363
     40 H1'         1.7826    1.9024    1.6451 H         1 ATP         0.1225
     41 H8          0.7125    2.3429   -1.9292 H         1 ATP         0.3824
     42 HN62       -3.3217    6.4517    0.2629 H         1 ATP         0.4018
     43 H2         -1.5188    4.4223    3.7890 H         1 ATP         0.0652
     44 H44        -2.7470    5.7626    2.3665 H         1 ATP         0.4503
     45 H45        -1.0305    4.1680   -2.1054 H         1 ATP         0.5209
@<TRIPOS>BOND
     1    1    2 2
     2    1    3 1
     3    1    4 1
     4    1    8 1
     5    4   32 1
     6    5    6 2
     7    5    7 1
     8    5    8 1
     9    5   12 1
    10    9   10 2
    11    9   11 1
    12    9   12 1
    13    9   13 1
    14   13   14 1
    15   14   15 1
    16   14   33 1
    17   14   34 1
    18   15   16 1
    19   15   17 1
    20   15   35 1
    21   16   21 1
    22   17   18 1
    23   17   19 1
    24   17   36 1
    25   18   37 1
    26   19   20 1
    27   19   21 1
    28   19   38 1
    29   20   39 1
    30   21   22 1
    31   21   40 1
    32   22   23 ar
    33   22   31 ar
    34   23   24 ar
    35   23   41 1
    36   24   25 ar
    37   24   45 1
    38   25   26 ar
    39   25   31 ar
    40   26   27 2
    41   26   28 ar
    42   27   42 1
    43   28   29 ar
    44   28   44 1
    45   29   30 ar
    46   29   43 1
    47   30   31 ar
@<TRIPOS>SUBSTRUCTURE
     1 ATP         1 GROUP 0 A     ****
@<TRIPOS>MOLECULE
[[[3,4-dihydroxy-5-(6-imino-7,8-dihydro-1~{H}-purin-8-ylium-9-yl)tetrahydrofuran-2-yl]methoxy-oxido-phosphoryl]oxy-oxido-phosphoryl] hydrogen phosphate
   45    47     1     0     0
SMALL
USER_CHARGES

@<TRIPOS>ATOM
      1 PG         -4.9133   -7.0095    0.4786 P.3       1 ATP         1.5631
      2 O1G        -3.9438   -5.9879   -0.0725 O.co2     1 ATP        -0.8806
      3 O2G        -6.4067   -6.7796    0.4106 O.co2     1 ATP        -0.8806
      4 O3G        -4.5805   -8.4580   -0.1974 O.3       1 ATP        -0.8165
      5 PB         -4.5438   -6.4122    3.3509 P.3       1 ATP         1.6877
      6 O1B        -5.9307   -5.8237    3.4838 O.co2     1 ATP        -0.8727
      7 O2B        -3.8970   -7.1595    4.4958 O.co2     1 ATP        -0.8727
      8 O3B        -4.5011   -7.3559    2.0193 O.3       1 ATP        -0.8330
      9 PA         -3.0195   -3.8900    3.6158 P.3       1 ATP         1.6036
     10 O1A        -2.1890   -4.2938    4.8148 O.co2     1 ATP        -0.9062
     11 O2A        -4.2037   -2.9613    3.7725 O.co2     1 ATP        -0.9062
     12 O3A        -3.5243   -5.2409    2.8476 O.3       1 ATP        -0.8166
     13 O5'        -2.0415   -3.2792    2.4560 O.3       1 ATP        -0.5510
     14 C5'        -0.7840   -3.8935    2.2172 C.3       1 ATP         0.2099
     15 C4'        -0.0724   -3.1466    1.1027 C.3       1 ATP         0.0598
     16 O4'        -0.8674   -3.1929   -0.0945 O.3       1 ATP        -0.3455
     17 C3'         0.1338   -1.6715    1.4027 C.3       1 ATP         0.0742
     18 O3'         1.2893   -1.4445    2.1808 O.3       1 ATP        -0.6025
     19 C2'         0.2158   -1.0724    0.0128 C.3       1 ATP         0.1145
     20 O2'         1.5141   -1.2448   -0.5513 O.3       1 ATP        -0.5835
     21 C1'        -0.7897   -1.9176   -0.7583 C.3       1 ATP         0.3776
     22 N9         -2.1040   -1.3333   -0.7704 N.pl3     1 ATP        -0.4429
     23 C8         -3.2114   -1.8635   -0.2619 C.ar      1 ATP         0.2964
     24 N7         -4.2711   -1.0786   -0.4314 N.pl3     1 ATP        -0.4957
     25 C5         -3.7955    0.0193   -1.0917 C.ar      1 ATP        -0.1346
     26 C6         -4.4862    1.2344   -1.5586 C.ar      1 ATP         0.7213
     27 N6         -5.7554    1.4030   -1.3689 N.2       1 ATP        -0.8215
     28 N1         -3.6267    2.1218   -2.1949 N.pl3     1 ATP        -0.8455
     29 C2         -2.2761    1.8558   -2.3521 C.ar      1 ATP         0.6477
     30 N3         -1.6453    0.7881   -1.9466 N.2       1 ATP        -0.5707
     31 C4         -2.4722   -0.1108   -1.3117 C.ar      1 ATP         0.2637
     32 HOG3       -5.1275   -9.2304    0.0605 H         1 ATP         0.4378
     33 H5'1       -0.1949   -3.8603    3.1385 H         1 ATP         0.0340
     34 H5'2       -0.9496   -4.9375    1.9351 H         1 ATP         0.0340
     35 H4'         0.8874   -3.6466    0.8805 H         1 ATP         0.0910
     36 H3'        -0.7376   -1.2333    1.9867 H         1 ATP         0.0656
     37 HO3'        1.3408   -0.4870    2.3219 H         1 ATP         0.4386
     38 H2'        -0.0384   -0.0310    0.0096 H         1 ATP         0.0788
     39 HO2'        2.1463   -0.7958    0.0370 H         1 ATP         0.4363
     40 H1'        -0.4769   -2.1002   -1.8093 H         1 ATP         0.1225
     41 H8         -3.2547   -2.8183    0.2325 H         1 ATP         0.3824
     42 HN62       -6.0352    2.3041   -1.7656 H         1 ATP         0.4018
     43 H2         -1.7412    2.6624   -2.8773 H         1 ATP         0.0652
     44 H44        -4.0029    2.9939   -2.5557 H         1 ATP         0.4503
     45 H45        -5.2179   -1.2649   -0.1322 H         1 ATP         0.5209
@<TRIPOS>BOND
     1    1    2 2
     2    1    3 1
     3    1    4 1
     4    1    8 1
     5    4   32 1
     6    5    6 2
     7    5    7 1
     8    5    8 1
     9    5   12 1
    10    9   10 2
    11    9   11 1
    12    9   12 1
    13    9   13 1
    14   13   14 1
    15   14   15 1
    16   14   33 1
    17   14   34 1
    18   15   16 1
    19   15   17 1
    20   15   35 1
    21   16   21 1
    22   17   18 1
    23   17   19 1
    24   17   36 1
    25   18   37 1
    26   19   20 1
    27   19   21 1
    28   19   38 1
    29   20   39 1
    30   21   22 1
    31   21   40 1
    32   22   23 ar
    33   22   31 ar
    34   23   24 ar
    35   23   41 1
    36   24   25 ar
    37   24   45 1
    38   25   26 ar
    39   25   31 ar
    40   26   27 2
    41   26   28 ar
    42   27   42 1
    43   28   29 ar
    44   28   44 1
    45   29   30 ar
    46   29   43 1
    47   30   31 ar
@<TRIPOS>SUBSTRUCTURE
     1 ATP         1 GROUP 0 A     ****
@<TRIPOS>MOLECULE
[[[3,4-dihydroxy-5-(6-imino-7,8-dihydro-1~{H}-purin-8-ylium-9-yl)tetrahydrofuran-2-yl]methoxy-oxido-phosphoryl]oxy-oxido-phosphoryl] hydrogen phosphate
   45    47     1     0     0
SMALL
USER_CHARGES

@<TRIPOS>ATOM
      1 PG          0.0880   -9.6214    6.3773 P.3       1 ATP         1.5631
      2 O1G         0.4594  -10.7968    5.5010 O.co2     1 ATP        -0.8806
      3 O2G        -1.1123   -9.6850    7.2955 O.co2     1 ATP        -0.8806
      4 O3G         1.3948   -9.1998    7.2608 O.3       1 ATP        -0.8165
      5 PB         -0.2456   -6.7247    5.8859 P.3       1 ATP         1.6877
      6 O1B        -1.6288   -6.5782    6.4799 O.co2     1 ATP        -0.8727
      7 O2B         0.9817   -6.2518    6.6326 O.co2     1 ATP        -0.8727
      8 O3B        -0.0254   -8.2828    5.4505 O.3       1 ATP        -0.8330
      9 PA         -1.2302   -6.3291    3.1238 P.3       1 ATP         1.6036
     10 O1A        -2.6254   -5.8657    3.4829 O.co2     1 ATP        -0.9062
     11 O2A        -0.9870   -7.7372    2.6259 O.co2     1 ATP        -0.9062
     12 O3A        -0.2423   -6.0566    4.3965 O.3       1 ATP        -0.8166
     13 O5'        -0.5687   -5.2869    2.0510 O.3       1 ATP        -0.5510
     14 C5'        -0.7840   -3.8935    2.2172 C.3       1 ATP         0.2099
     15 C4'        -0.0724   -3.1466    1.1027 C.3       1 ATP         0.0598
     16 O4'        -0.8674   -3.1929   -0.0945 O.3       1 ATP        -0.3455
     17 C3'         0.1338   -1.6715    1.4027 C.3       1 ATP         0.0742
     18 O3'         1.2893   -1.4445    2.1808 O.3       1 ATP        -0.6025
     19 C2'         0.2158   -1.0724    0.0128 C.3       1 ATP         0.1145
     20 O2'         1.5141   -1.2448   -0.5513 O.3       1 ATP        -0.5835
     21 C1'        -0.7897   -1.9176   -0.7583 C.3       1 ATP         0.3776
     22 N9         -2.1040   -1.3333   -0.7704 N.pl3     1 ATP        -0.4429
     23 C8         -3.0590   -1.5123    0.1363 C.ar      1 ATP         0.2964
     24 N7         -4.1655   -0.8354   -0.1554 N.pl3     1 ATP        -0.4957
     25 C5         -3.8852   -0.1874   -1.3253 C.ar      1 ATP        -0.1346
     26 C6         -4.7113    0.7160   -2.1458 C.ar      1 ATP         0.7213
     27 N6         -5.9213    1.0209   -1.8021 N.2       1 ATP        -0.8215
     28 N1         -4.0411    1.1673   -3.2764 N.pl3     1 ATP        -0.8455
     29 C2         -2.7403    0.7865   -3.5638 C.ar      1 ATP         0.6477
     30 N3         -1.9921   -0.0108   -2.8519 N.2       1 ATP        -0.5707
     31 C4         -2.6302   -0.4747   -1.7239 C.ar      1 ATP         0.2637
     32 HOG3        1.3137   -8.4468    7.8842 H         1 ATP         0.4378
     33 H5'1       -1.8598   -3.6968    2.1850 H         1 ATP         0.0340
     34 H5'2       -0.3933   -3.5903    3.1931 H         1 ATP         0.0340
     35 H4'         0.8874   -3.6466    0.8805 H         1 ATP         0.0910
     36 H3'        -0.7376   -1.2333    1.9867 H         1 ATP         0.0656
     37 HO3'        1.3408   -0.4870    2.3219 H         1 ATP         0.4386
     38 H2'        -0.0384   -0.0310    0.0096 H         1 ATP         0.0788
     39 HO2'        2.1463   -0.7958    0.0370 H         1 ATP         0.4363
     40 H1'        -0.4769   -2.1002   -1.8093 H         1 ATP         0.1225
     41 H8         -2.9569   -2.1323    1.0098 H         1 ATP         0.3824
     42 HN62       -6.3169    1.6552   -2.5012 H         1 ATP         0.4018
     43 H2         -2.3612    1.2343   -4.4957 H         1 ATP         0.0652
     44 H44        -4.5223    1.7976   -3.9117 H         1 ATP         0.4503
     45 H45        -5.0218   -0.8132    0.3804 H         1 ATP         0.5209
@<TRIPOS>BOND
     1    1    2 2
     2    1    3 1
     3    1    4 1
     4    1    8 1
     5    4   32 1
     6    5    6 2
     7    5    7 1
     8    5    8 1
     9    5   12 1
    10    9   10 2
    11    9   11 1
    12    9   12 1
    13    9   13 1
    14   13   14 1
    15   14   15 1
    16   14   33 1
    17   14   34 1
    18   15   16 1
    19   15   17 1
    20   15   35 1
    21   16   21 1
    22   17   18 1
    23   17   19 1
    24   17   36 1
    25   18   37 1
    26   19   20 1
    27   19   21 1
    28   19   38 1
    29   20   39 1
    30   21   22 1
    31   21   40 1
    32   22   23 ar
    33   22   31 ar
    34   23   24 ar
    35   23   41 1
    36   24   25 ar
    37   24   45 1
    38   25   26 ar
    39   25   31 ar
    40   26   27 2
    41   26   28 ar
    42   27   42 1
    43   28   29 ar
    44   28   44 1
    45   29   30 ar
    46   29   43 1
    47   30   31 ar
@<TRIPOS>SUBSTRUCTURE
     1 ATP         1 GROUP 0 A     ****
@<TRIPOS>MOLECULE
[[[3,4-dihydroxy-5-(6-imino-7,8-dihydro-1~{H}-purin-8-ylium-9-yl)tetrahydrofuran-2-yl]methoxy-oxido-phosphoryl]oxy-oxido-phosphoryl] hydrogen phosphate
   45    47     1     0     0
SMALL
USER_CHARGES

@<TRIPOS>ATOM
      1 PG          1.6973   -6.0144    7.9988 P.3       1 ATP         1.5631
      2 O1G         2.7519   -4.9388    8.1336 O.co2     1 ATP        -0.8806
      3 O2G         2.0196   -7.4612    8.2999 O.co2     1 ATP        -0.8806
      4 O3G         0.3957   -5.5784    8.8829 O.3       1 ATP        -0.8165
      5 PB         -0.2456   -6.7247    5.8859 P.3       1 ATP         1.6877
      6 O1B         0.1182   -8.1875    5.7620 O.co2     1 ATP        -0.8727
      7 O2B        -1.4991   -6.2880    6.6109 O.co2     1 ATP        -0.8727
      8 O3B         1.0289   -5.9197    6.5128 O.3       1 ATP        -0.8330
      9 PA         -1.2302   -6.3291    3.1238 P.3       1 ATP         1.6036
     10 O1A        -2.6254   -5.8657    3.4829 O.co2     1 ATP        -0.9062
     11 O2A        -0.9870   -7.7372    2.6259 O.co2     1 ATP        -0.9062
     12 O3A        -0.2423   -6.0566    4.3965 O.3       1 ATP        -0.8166
     13 O5'        -0.5687   -5.2869    2.0510 O.3       1 ATP        -0.5510
     14 C5'        -0.7840   -3.8935    2.2172 C.3       1 ATP         0.2099
     15 C4'        -0.0724   -3.1466    1.1027 C.3       1 ATP         0.0598
     16 O4'        -0.8674   -3.1929   -0.0945 O.3       1 ATP        -0.3455
     17 C3'         0.1338   -1.6715    1.4027 C.3       1 ATP         0.0742
     18 O3'         1.2893   -1.4445    2.1808 O.3       1 ATP        -0.6025
     19 C2'         0.2158   -1.0724    0.0128 C.3       1 ATP         0.1145
     20 O2'         1.5141   -1.2448   -0.5513 O.3       1 ATP        -0.5835
     21 C1'        -0.7897   -1.9176   -0.7583 C.3       1 ATP         0.3776
     22 N9         -2.1040   -1.3333   -0.7704 N.pl3     1 ATP        -0.4429
     23 C8         -3.0590   -1.5123    0.1363 C.ar      1 ATP         0.2964
     24 N7         -4.1655   -0.8354   -0.1554 N.pl3     1 ATP        -0.4957
     25 C5         -3.8852   -0.1874   -1.3253 C.ar      1 ATP        -0.1346
     26 C6         -4.7113    0.7160   -2.1458 C.ar      1 ATP         0.7213
     27 N6         -5.9213    1.0209   -1.8021 N.2       1 ATP        -0.8215
     28 N1         -4.0411    1.1673   -3.2764 N.pl3     1 ATP        -0.8455
     29 C2         -2.7403    0.7865   -3.5638 C.ar      1 ATP         0.6477
     30 N3         -1.9921   -0.0108   -2.8519 N.2       1 ATP        -0.5707
     31 C4         -2.6302   -0.4747   -1.7239 C.ar      1 ATP         0.2637
     32 HOG3       -0.3805   -6.1779    8.8981 H         1 ATP         0.4378
     33 H5'1       -1.8598   -3.6968    2.1850 H         1 ATP         0.0340
     34 H5'2       -0.3933   -3.5903    3.1931 H         1 ATP         0.0340
     35 H4'         0.8874   -3.6466    0.8805 H         1 ATP         0.0910
     36 H3'        -0.7376   -1.2333    1.9867 H         1 ATP         0.0656
     37 HO3'        1.3408   -0.4870    2.3219 H         1 ATP         0.4386
     38 H2'        -0.0384   -0.0310    0.0096 H         1 ATP         0.0788
     39 HO2'        1.4998   -0.8412   -1.4369 H         1 ATP         0.4363
     40 H1'        -0.4769   -2.1002   -1.8093 H         1 ATP         0.1225
     41 H8         -2.9569   -2.1323    1.0098 H         1 ATP         0.3824
     42 HN62       -6.3169    1.6552   -2.5012 H         1 ATP         0.4018
     43 H2         -2.3612    1.2343   -4.4957 H         1 ATP         0.0652
     44 H44        -4.5223    1.7976   -3.9117 H         1 ATP         0.4503
     45 H45        -5.0218   -0.8132    0.3804 H         1 ATP         0.5209
@<TRIPOS>BOND
     1    1    2 2
     2    1    3 1
     3    1    4 1
     4    1    8 1
     5    4   32 1
     6    5    6 2
     7    5    7 1
     8    5    8 1
     9    5   12 1
    10    9   10 2
    11    9   11 1
    12    9   12 1
    13    9   13 1
    14   13   14 1
    15   14   15 1
    16   14   33 1
    17   14   34 1
    18   15   16 1
    19   15   17 1
    20   15   35 1
    21   16   21 1
    22   17   18 1
    23   17   19 1
    24   17   36 1
    25   18   37 1
    26   19   20 1
    27   19   21 1
    28   19   38 1
    29   20   39 1
    30   21   22 1
    31   21   40 1
    32   22   23 ar
    33   22   31 ar
    34   23   24 ar
    35   23   41 1
    36   24   25 ar
    37   24   45 1
    38   25   26 ar
    39   25   31 ar
    40   26   27 2
    41   26   28 ar
    42   27   42 1
    43   28   29 ar
    44   28   44 1
    45   29   30 ar
    46   29   43 1
    47   30   31 ar
@<TRIPOS>SUBSTRUCTURE
     1 ATP         1 GROUP 0 A     ****
@<TRIPOS>MOLECULE
[[[3,4-dihydroxy-5-(6-imino-7,8-dihydro-1~{H}-purin-8-ylium-9-yl)tetrahydrofuran-2-yl]methoxy-oxido-phosphoryl]oxy-oxido-phosphoryl] hydrogen phosphate
   45    47     1     0     0
SMALL
USER_CHARGES

@<TRIPOS>ATOM
      1 PG         -4.9698   -9.4104    0.8011 P.3       1 ATP         1.5631
      2 O1G        -4.1101  -10.6530    0.7350 O.co2     1 ATP        -0.8806
      3 O2G        -5.9414   -9.0775   -0.3092 O.co2     1 ATP        -0.8806
      4 O3G        -5.7830   -9.4171    2.2170 O.3       1 ATP        -0.8165
      5 PB         -4.4154   -6.5644    1.3810 P.3       1 ATP         1.6877
      6 O1B        -5.0657   -5.9778    0.1479 O.co2     1 ATP        -0.8727
      7 O2B        -5.0941   -6.4987    2.7310 O.co2     1 ATP        -0.8727
      8 O3B        -4.0130   -8.1163    1.0724 O.3       1 ATP        -0.8330
      9 PA         -1.7128   -6.3370    2.5639 P.3       1 ATP         1.6036
     10 O1A        -1.2607   -7.7533    2.2812 O.co2     1 ATP        -0.9062
     11 O2A        -2.1423   -5.9253    3.9552 O.co2     1 ATP        -0.9062
     12 O3A        -2.9097   -5.9496    1.5213 O.3       1 ATP        -0.8166
     13 O5'        -0.5687   -5.2869    2.0510 O.3       1 ATP        -0.5510
     14 C5'        -0.7840   -3.8935    2.2172 C.3       1 ATP         0.2099
     15 C4'        -0.0724   -3.1466    1.1027 C.3       1 ATP         0.0598
     16 O4'        -0.8674   -3.1929   -0.0945 O.3       1 ATP        -0.3455
     17 C3'         0.1338   -1.6715    1.4027 C.3       1 ATP         0.0742
     18 O3'         1.2893   -1.4445    2.1808 O.3       1 ATP        -0.6025
     19 C2'         0.2158   -1.0724    0.0128 C.3       1 ATP         0.1145
     20 O2'         1.5141   -1.2448   -0.5513 O.3       1 ATP        -0.5835
     21 C1'        -0.7897   -1.9176   -0.7583 C.3       1 ATP         0.3776
     22 N9         -2.1040   -1.3333   -0.7704 N.pl3     1 ATP        -0.4429
     23 C8         -3.0590   -1.5123    0.1363 C.ar      1 ATP         0.2964
     24 N7         -4.1655   -0.8354   -0.1554 N.pl3     1 ATP        -0.4957
     25 C5         -3.8852   -0.1874   -1.3253 C.ar      1 ATP        -0.1346
     26 C6         -4.7113    0.7160   -2.1458 C.ar      1 ATP         0.7213
     27 N6         -5.9213    1.0209   -1.8021 N.2       1 ATP        -0.8215
     28 N1         -4.0411    1.1673   -3.2764 N.pl3     1 ATP        -0.8455
     29 C2         -2.7403    0.7865   -3.5638 C.ar      1 ATP         0.6477
     30 N3         -1.9921   -0.0108   -2.8519 N.2       1 ATP        -0.5707
     31 C4         -2.6302   -0.4747   -1.7239 C.ar      1 ATP         0.2637
     32 HOG3       -6.3888   -8.6703    2.4110 H         1 ATP         0.4378
     33 H5'1       -1.8598   -3.6968    2.1850 H         1 ATP         0.0340
     34 H5'2       -0.3933   -3.5903    3.1931 H         1 ATP         0.0340
     35 H4'         0.8874   -3.6466    0.8805 H         1 ATP         0.0910
     36 H3'        -0.7376   -1.2333    1.9867 H         1 ATP         0.0656
     37 HO3'        1.1626   -1.9325    3.0084 H         1 ATP         0.4386
     38 H2'        -0.0384   -0.0310    0.0096 H         1 ATP         0.0788
     39 HO2'        2.1463   -0.7958    0.0370 H         1 ATP         0.4363
     40 H1'        -0.4769   -2.1002   -1.8093 H         1 ATP         0.1225
     41 H8         -2.9569   -2.1323    1.0098 H         1 ATP         0.3824
     42 HN62       -6.3169    1.6552   -2.5012 H         1 ATP         0.4018
     43 H2         -2.3612    1.2343   -4.4957 H         1 ATP         0.0652
     44 H44        -4.5223    1.7976   -3.9117 H         1 ATP         0.4503
     45 H45        -5.0218   -0.8132    0.3804 H         1 ATP         0.5209
@<TRIPOS>BOND
     1    1    2 2
     2    1    3 1
     3    1    4 1
     4    1    8 1
     5    4   32 1
     6    5    6 2
     7    5    7 1
     8    5    8 1
     9    5   12 1
    10    9   10 2
    11    9   11 1
    12    9   12 1
    13    9   13 1
    14   13   14 1
    15   14   15 1
    16   14   33 1
    17   14   34 1
    18   15   16 1
    19   15   17 1
    20   15   35 1
    21   16   21 1
    22   17   18 1
    23   17   19 1
    24   17   36 1
    25   18   37 1
    26   19   20 1
    27   19   21 1
    28   19   38 1
    29   20   39 1
    30   21   22 1
    31   21   40 1
    32   22   23 ar
    33   22   31 ar
    34   23   24 ar
    35   23   41 1
    36   24   25 ar
    37   24   45 1
    38   25   26 ar
    39   25   31 ar
    40   26   27 2
    41   26   28 ar
    42   27   42 1
    43   28   29 ar
    44   28   44 1
    45   29   30 ar
    46   29   43 1
    47   30   31 ar
@<TRIPOS>SUBSTRUCTURE
     1 ATP         1 GROUP 0 A     ****
@<TRIPOS>MOLECULE
[[[3,4-dihydroxy-5-(6-imino-7,8-dihydro-1~{H}-purin-8-ylium-9-yl)tetrahydrofuran-2-yl]methoxy-oxido-phosphoryl]oxy-oxido-phosphoryl] hydrogen phosphate
   45    47     1     0     0
SMALL
USER_CHARGES

@<TRIPOS>ATOM
      1 PG          3.8180   -6.0851    0.2674 P.3       1 ATP         1.5631
      2 O1G         2.6583   -5.2452   -0.2195 O.co2     1 ATP        -0.8806
      3 O2G         4.1232   -7.4271   -0.3599 O.co2     1 ATP        -0.8806
      4 O3G         5.1720   -5.1735    0.2257 O.3       1 ATP        -0.8165
      5 PB          2.5812   -7.0783    2.7628 P.3       1 ATP         1.6877
      6 O1B         2.4809   -8.4933    2.2383 O.co2     1 ATP        -0.8727
      7 O2B         2.8272   -6.8021    4.2294 O.co2     1 ATP        -0.8727
      8 O3B         3.6965   -6.2723    1.8841 O.3       1 ATP        -0.8330
      9 PA         -0.3072   -6.4376    2.7205 P.3       1 ATP         1.6036
     10 O1A        -0.4500   -6.1027    4.1894 O.co2     1 ATP        -0.9062
     11 O2A        -0.7938   -7.7640    2.1787 O.co2     1 ATP        -0.9062
     12 O3A         1.2573   -6.2493    2.2886 O.3       1 ATP        -0.8166
     13 O5'        -0.9724   -5.2440    1.8220 O.3       1 ATP        -0.5510
     14 C5'        -0.7840   -3.8935    2.2172 C.3       1 ATP         0.2099
     15 C4'        -0.0724   -3.1466    1.1027 C.3       1 ATP         0.0598
     16 O4'        -0.8674   -3.1929   -0.0945 O.3       1 ATP        -0.3455
     17 C3'         0.1338   -1.6715    1.4027 C.3       1 ATP         0.0742
     18 O3'         1.2893   -1.4445    2.1808 O.3       1 ATP        -0.6025
     19 C2'         0.2158   -1.0724    0.0128 C.3       1 ATP         0.1145
     20 O2'         1.5141   -1.2448   -0.5513 O.3       1 ATP        -0.5835
     21 C1'        -0.7897   -1.9176   -0.7583 C.3       1 ATP         0.3776
     22 N9         -2.1040   -1.3333   -0.7704 N.pl3     1 ATP        -0.4429
     23 C8         -3.0590   -1.5123    0.1363 C.ar      1 ATP         0.2964
     24 N7         -4.1655   -0.8354   -0.1554 N.pl3     1 ATP        -0.4957
     25 C5         -3.8852   -0.1874   -1.3253 C.ar      1 ATP        -0.1346
     26 C6         -4.7113    0.7160   -2.1458 C.ar      1 ATP         0.7213
     27 N6         -5.9213    1.0209   -1.8021 N.2       1 ATP        -0.8215
     28 N1         -4.0411    1.1673   -3.2764 N.pl3     1 ATP        -0.8455
     29 C2         -2.7403    0.7865   -3.5638 C.ar      1 ATP         0.6477
     30 N3         -1.9921   -0.0108   -2.8519 N.2       1 ATP        -0.5707
     31 C4         -2.6302   -0.4747   -1.7239 C.ar      1 ATP         0.2637
     32 HOG3        6.0172   -5.5794    0.5140 H         1 ATP         0.4378
     33 H5'1       -1.7618   -3.4448    2.4164 H         1 ATP         0.0340
     34 H5'2       -0.1874   -3.8744    3.1341 H         1 ATP         0.0340
     35 H4'         0.8874   -3.6466    0.8805 H         1 ATP         0.0910
     36 H3'        -0.7376   -1.2333    1.9867 H         1 ATP         0.0656
     37 HO3'        1.3408   -0.4870    2.3219 H         1 ATP         0.4386
     38 H2'        -0.0384   -0.0310    0.0096 H         1 ATP         0.0788
     39 HO2'        2.1463   -0.7958    0.0370 H         1 ATP         0.4363
     40 H1'        -0.4769   -2.1002   -1.8093 H         1 ATP         0.1225
     41 H8         -2.9569   -2.1323    1.0098 H         1 ATP         0.3824
     42 HN62       -6.3169    1.6552   -2.5012 H         1 ATP         0.4018
     43 H2         -2.3612    1.2343   -4.4957 H         1 ATP         0.0652
     44 H44        -4.5223    1.7976   -3.9117 H         1 ATP         0.4503
     45 H45        -5.0218   -0.8132    0.3804 H         1 ATP         0.5209
@<TRIPOS>BOND
     1    1    2 2
     2    1    3 1
     3    1    4 1
     4    1    8 1
     5    4   32 1
     6    5    6 2
     7    5    7 1
     8    5    8 1
     9    5   12 1
    10    9   10 2
    11    9   11 1
    12    9   12 1
    13    9   13 1
    14   13   14 1
    15   14   15 1
    16   14   33 1
    17   14   34 1
    18   15   16 1
    19   15   17 1
    20   15   35 1
    21   16   21 1
    22   17   18 1
    23   17   19 1
    24   17   36 1
    25   18   37 1
    26   19   20 1
    27   19   21 1
    28   19   38 1
    29   20   39 1
    30   21   22 1
    31   21   40 1
    32   22   23 ar
    33   22   31 ar
    34   23   24 ar
    35   23   41 1
    36   24   25 ar
    37   24   45 1
    38   25   26 ar
    39   25   31 ar
    40   26   27 2
    41   26   28 ar
    42   27   42 1
    43   28   29 ar
    44   28   44 1
    45   29   30 ar
    46   29   43 1
    47   30   31 ar
@<TRIPOS>SUBSTRUCTURE
     1 ATP         1 GROUP 0 A     ****
@<TRIPOS>MOLECULE
[[[3,4-dihydroxy-5-(6-imino-7,8-dihydro-1~{H}-purin-8-ylium-9-yl)tetrahydrofuran-2-yl]methoxy-oxido-phosphoryl]oxy-oxido-phosphoryl] hydrogen phosphate
   45    47     1     0     0
SMALL
USER_CHARGES

@<TRIPOS>ATOM
      1 PG         -2.2794   -3.7183   -4.7790 P.3       1 ATP         1.5631
      2 O1G        -2.0602   -5.0586   -5.4446 O.co2     1 ATP        -0.8806
      3 O2G        -2.7171   -2.5138   -5.5823 O.co2     1 ATP        -0.8806
      4 O3G        -3.3207   -3.9198   -3.5376 O.3       1 ATP        -0.8165
      5 PB         -0.1474   -4.1805   -2.7828 P.3       1 ATP         1.6877
      6 O1B        -1.0368   -4.3188   -1.5674 O.co2     1 ATP        -0.8727
      7 O2B         0.4801   -5.3917   -3.4361 O.co2     1 ATP        -0.8727
      8 O3B        -0.9468   -3.3266   -3.9219 O.3       1 ATP        -0.8330
      9 PA          2.1633   -2.4499   -3.4314 P.3       1 ATP         1.6036
     10 O1A         1.4760   -1.5972   -4.4759 O.co2     1 ATP        -0.9062
     11 O2A         3.1220   -3.5478   -3.8377 O.co2     1 ATP        -0.9062
     12 O3A         1.0274   -3.0968   -2.4510 O.3       1 ATP        -0.8166
     13 O5'         2.9216   -1.4836   -2.3516 O.3       1 ATP        -0.5510
     14 C5'         2.2816   -0.2918   -1.9206 C.3       1 ATP         0.2099
     15 C4'         2.7248    0.0226   -0.4980 C.3       1 ATP         0.0598
     16 O4'         2.4697    1.4219   -0.2462 O.3       1 ATP        -0.3455
     17 C3'         1.9404   -0.7419    0.5596 C.3       1 ATP         0.0742
     18 O3'         2.7418   -0.8086    1.7389 O.3       1 ATP        -0.6025
     19 C2'         0.7477    0.1630    0.7858 C.3       1 ATP         0.1145
     20 O2'         0.1373   -0.0577    2.0407 O.3       1 ATP        -0.5835
     21 C1'         1.3733    1.5427    0.6747 C.3       1 ATP         0.3776
     22 N9          0.4520    2.5240    0.1767 N.pl3     1 ATP        -0.4429
     23 C8         -0.2004    2.4829   -0.9804 C.ar      1 ATP         0.2964
     24 N7         -0.9830    3.5431   -1.1568 N.pl3     1 ATP        -0.4957
     25 C5         -0.8095    4.3012   -0.0331 C.ar      1 ATP        -0.1346
     26 C6         -1.4065    5.5904    0.3585 C.ar      1 ATP         0.7213
     27 N6         -2.2501    6.2030   -0.4084 N.2       1 ATP        -0.8215
     28 N1         -0.9585    6.0272    1.5994 N.pl3     1 ATP        -0.8455
     29 C2         -0.0508    5.3009    2.3532 C.ar      1 ATP         0.6477
     30 N3          0.4890    4.1592    2.0257 N.2       1 ATP        -0.5707
     31 C4          0.0637    3.7006    0.7995 C.ar      1 ATP         0.2637
     32 HOG3       -3.0710   -4.5328   -2.8136 H         1 ATP         0.4378
     33 H5'1        2.5589    0.5217   -2.5976 H         1 ATP         0.0340
     34 H5'2        1.1982   -0.4388   -1.9617 H         1 ATP         0.0340
     35 H4'         3.8044   -0.1397   -0.4040 H         1 ATP         0.0910
     36 H3'         1.6764   -1.7639    0.2728 H         1 ATP         0.0656
     37 HO3'        2.2232   -1.2979    2.3953 H         1 ATP         0.4386
     38 H2'        -0.0011    0.0027    0.0003 H         1 ATP         0.0788
     39 HO2'       -0.6141    0.5574    2.1082 H         1 ATP         0.4363
     40 H1'         1.7826    1.9024    1.6451 H         1 ATP         0.1225
     41 H8         -0.1116    1.6863   -1.6984 H         1 ATP         0.3824
     42 HN62       -2.5420    7.0730    0.0447 H         1 ATP         0.4018
     43 H2          0.1969    5.7893    3.3086 H         1 ATP         0.0652
     44 H44        -1.3097    6.9080    1.9642 H         1 ATP         0.4503
     45 H45        -1.5735    3.7351   -1.9538 H         1 ATP         0.5209
@<TRIPOS>BOND
     1    1    2 2
     2    1    3 1
     3    1    4 1
     4    1    8 1
     5    4   32 1
     6    5    6 2
     7    5    7 1
     8    5    8 1
     9    5   12 1
    10    9   10 2
    11    9   11 1
    12    9   12 1
    13    9   13 1
    14   13   14 1
    15   14   15 1
    16   14   33 1
    17   14   34 1
    18   15   16 1
    19   15   17 1
    20   15   35 1
    21   16   21 1
    22   17   18 1
    23   17   19 1
    24   17   36 1
    25   18   37 1
    26   19   20 1
    27   19   21 1
    28   19   38 1
    29   20   39 1
    30   21   22 1
    31   21   40 1
    32   22   23 ar
    33   22   31 ar
    34   23   24 ar
    35   23   41 1
    36   24   25 ar
    37   24   45 1
    38   25   26 ar
    39   25   31 ar
    40   26   27 2
    41   26   28 ar
    42   27   42 1
    43   28   29 ar
    44   28   44 1
    45   29   30 ar
    46   29   43 1
    47   30   31 ar
@<TRIPOS>SUBSTRUCTURE
     1 ATP         1 GROUP 0 A     ****
@<TRIPOS>MOLECULE
[[[3,4-dihydroxy-5-(6-imino-7,8-dihydro-1~{H}-purin-8-ylium-9-yl)tetrahydrofuran-2-yl]methoxy-oxido-phosphoryl]oxy-oxido-phosphoryl] hydrogen phosphate
   45    47     1     0     0
SMALL
USER_CHARGES

@<TRIPOS>ATOM
      1 PG          4.6412    1.1678   -5.9054 P.3       1 ATP         1.5631
      2 O1G         5.3363    2.0181   -4.8655 O.co2     1 ATP        -0.8806
      3 O2G         3.1370    1.2029   -6.0592 O.co2     1 ATP        -0.8806
      4 O3G         5.3182    1.4709   -7.3600 O.3       1 ATP        -0.8165
      5 PB          4.8431   -1.4299   -4.5074 P.3       1 ATP         1.6877
      6 O1B         5.3599   -2.7929   -4.9108 O.co2     1 ATP        -0.8727
      7 O2B         5.2704   -0.7830   -3.2088 O.co2     1 ATP        -0.8727
      8 O3B         5.1189   -0.3828   -5.7294 O.3       1 ATP        -0.8330
      9 PA          2.1372   -2.2718   -3.6563 P.3       1 ATP         1.6036
     10 O1A         2.4859   -3.7437   -3.7017 O.co2     1 ATP        -0.9062
     11 O2A         0.7459   -1.7951   -4.0125 O.co2     1 ATP        -0.9062
     12 O3A         3.2120   -1.4489   -4.5713 O.3       1 ATP        -0.8166
     13 O5'         2.5245   -1.6648   -2.1878 O.3       1 ATP        -0.5510
     14 C5'         2.2816   -0.2918   -1.9206 C.3       1 ATP         0.2099
     15 C4'         2.7248    0.0226   -0.4980 C.3       1 ATP         0.0598
     16 O4'         2.4697    1.4219   -0.2462 O.3       1 ATP        -0.3455
     17 C3'         1.9404   -0.7419    0.5596 C.3       1 ATP         0.0742
     18 O3'         2.7418   -0.8086    1.7389 O.3       1 ATP        -0.6025
     19 C2'         0.7477    0.1630    0.7858 C.3       1 ATP         0.1145
     20 O2'         0.1373   -0.0577    2.0407 O.3       1 ATP        -0.5835
     21 C1'         1.3733    1.5427    0.6747 C.3       1 ATP         0.3776
     22 N9          0.4520    2.5240    0.1767 N.pl3     1 ATP        -0.4429
     23 C8         -0.6821    2.9098    0.7521 C.ar      1 ATP         0.2964
     24 N7         -1.3175    3.8384    0.0437 N.pl3     1 ATP        -0.4957
     25 C5         -0.5274    4.0494   -1.0512 C.ar      1 ATP        -0.1346
     26 C6         -0.6966    4.9597   -2.1977 C.ar      1 ATP         0.7213
     27 N6         -1.7259    5.7385   -2.2937 N.2       1 ATP        -0.8215
     28 N1          0.3493    4.8663   -3.1079 N.pl3     1 ATP        -0.8455
     29 C2          1.4148    4.0005   -2.9208 C.ar      1 ATP         0.6477
     30 N3          1.5838    3.1876   -1.9144 N.2       1 ATP        -0.5707
     31 C4          0.5619    3.2578   -0.9949 C.ar      1 ATP         0.2637
     32 HOG3        4.9739    0.9924   -8.1440 H         1 ATP         0.4378
     33 H5'1        2.8432    0.3119   -2.6398 H         1 ATP         0.0340
     34 H5'2        1.2128   -0.0927   -2.0428 H         1 ATP         0.0340
     35 H4'         3.8044   -0.1397   -0.4040 H         1 ATP         0.0910
     36 H3'         1.6764   -1.7639    0.2728 H         1 ATP         0.0656
     37 HO3'        2.2232   -1.2979    2.3953 H         1 ATP         0.4386
     38 H2'        -0.0011    0.0027    0.0003 H         1 ATP         0.0788
     39 HO2'       -0.1563   -0.9855    2.0596 H         1 ATP         0.4363
     40 H1'         1.7826    1.9024    1.6451 H         1 ATP         0.1225
     41 H8         -1.0516    2.5207    1.6849 H         1 ATP         0.3824
     42 HN62       -1.6520    6.2842   -3.1564 H         1 ATP         0.4018
     43 H2          2.1542    4.0525   -3.7351 H         1 ATP         0.0652
     44 H44         0.3306    5.4533   -3.9370 H         1 ATP         0.4503
     45 H45        -2.1941    4.2838    0.2756 H         1 ATP         0.5209
@<TRIPOS>BOND
     1    1    2 2
     2    1    3 1
     3    1    4 1
     4    1    8 1
     5    4   32 1
     6    5    6 2
     7    5    7 1
     8    5    8 1
     9    5   12 1
    10    9   10 2
    11    9   11 1
    12    9   12 1
    13    9   13 1
    14   13   14 1
    15   14   15 1
    16   14   33 1
    17   14   34 1
    18   15   16 1
    19   15   17 1
    20   15   35 1
    21   16   21 1
    22   17   18 1
    23   17   19 1
    24   17   36 1
    25   18   37 1
    26   19   20 1
    27   19   21 1
    28   19   38 1
    29   20   39 1
    30   21   22 1
    31   21   40 1
    32   22   23 ar
    33   22   31 ar
    34   23   24 ar
    35   23   41 1
    36   24   25 ar
    37   24   45 1
    38   25   26 ar
    39   25   31 ar
    40   26   27 2
    41   26   28 ar
    42   27   42 1
    43   28   29 ar
    44   28   44 1
    45   29   30 ar
    46   29   43 1
    47   30   31 ar
@<TRIPOS>SUBSTRUCTURE
     1 ATP         1 GROUP 0 A     ****
@<TRIPOS>MOLECULE
[[[3,4-dihydroxy-5-(6-imino-7,8-dihydro-1~{H}-purin-8-ylium-9-yl)tetrahydrofuran-2-yl]methoxy-oxido-phosphoryl]oxy-oxido-phosphoryl] hydrogen phosphate
   45    47     1     0     0
SMALL
USER_CHARGES

@<TRIPOS>ATOM
      1 PG         -2.7311   -9.1458    6.3369 P.3       1 ATP         1.5631
      2 O1G        -4.1446   -9.5501    5.9819 O.co2     1 ATP        -0.8806
      3 O2G        -2.3511   -8.8201    7.7642 O.co2     1 ATP        -0.8806
      4 O3G        -1.7084  -10.2883    5.7759 O.3       1 ATP        -0.8165
      5 PB         -2.8289   -6.3768    5.3040 P.3       1 ATP         1.6877
      6 O1B        -4.2558   -6.3996    4.8030 O.co2     1 ATP        -0.8727
      7 O2B        -2.4612   -5.6699    6.5895 O.co2     1 ATP        -0.8727
      8 O3B        -2.2739   -7.9107    5.3729 O.3       1 ATP        -0.8330
      9 PA         -1.7128   -6.3370    2.5639 P.3       1 ATP         1.6036
     10 O1A        -3.0101   -6.0661    1.8332 O.co2     1 ATP        -0.9062
     11 O2A        -1.1083   -7.7241    2.5787 O.co2     1 ATP        -0.9062
     12 O3A        -1.8634   -5.8259    4.1085 O.3       1 ATP        -0.8166
     13 O5'        -0.5687   -5.2869    2.0510 O.3       1 ATP        -0.5510
     14 C5'        -0.7840   -3.8935    2.2172 C.3       1 ATP         0.2099
     15 C4'        -0.0724   -3.1466    1.1027 C.3       1 ATP         0.0598
     16 O4'        -0.8674   -3.1929   -0.0945 O.3       1 ATP        -0.3455
     17 C3'         0.1338   -1.6715    1.4027 C.3       1 ATP         0.0742
     18 O3'         1.2893   -1.4445    2.1808 O.3       1 ATP        -0.6025
     19 C2'         0.2158   -1.0724    0.0128 C.3       1 ATP         0.1145
     20 O2'         1.5141   -1.2448   -0.5513 O.3       1 ATP        -0.5835
     21 C1'        -0.7897   -1.9176   -0.7583 C.3       1 ATP         0.3776
     22 N9         -2.1040   -1.3333   -0.7704 N.pl3     1 ATP        -0.4429
     23 C8         -3.0590   -1.5123    0.1363 C.ar      1 ATP         0.2964
     24 N7         -4.1655   -0.8354   -0.1554 N.pl3     1 ATP        -0.4957
     25 C5         -3.8852   -0.1874   -1.3253 C.ar      1 ATP        -0.1346
     26 C6         -4.7113    0.7160   -2.1458 C.ar      1 ATP         0.7213
     27 N6         -5.9213    1.0209   -1.8021 N.2       1 ATP        -0.8215
     28 N1         -4.0411    1.1673   -3.2764 N.pl3     1 ATP        -0.8455
     29 C2         -2.7403    0.7865   -3.5638 C.ar      1 ATP         0.6477
     30 N3         -1.9921   -0.0108   -2.8519 N.2       1 ATP        -0.5707
     31 C4         -2.6302   -0.4747   -1.7239 C.ar      1 ATP         0.2637
     32 HOG3       -0.7467  -10.1695    5.9284 H         1 ATP         0.4378
     33 H5'1       -1.8598   -3.6968    2.1850 H         1 ATP         0.0340
     34 H5'2       -0.3933   -3.5903    3.1931 H         1 ATP         0.0340
     35 H4'         0.8874   -3.6466    0.8805 H         1 ATP         0.0910
     36 H3'        -0.7376   -1.2333    1.9867 H         1 ATP         0.0656
     37 HO3'        1.3408   -0.4870    2.3219 H         1 ATP         0.4386
     38 H2'        -0.0384   -0.0310    0.0096 H         1 ATP         0.0788
     39 HO2'        2.1463   -0.7958    0.0370 H         1 ATP         0.4363
     40 H1'        -0.4769   -2.1002   -1.8093 H         1 ATP         0.1225
     41 H8         -2.9569   -2.1323    1.0098 H         1 ATP         0.3824
     42 HN62       -6.3169    1.6552   -2.5012 H         1 ATP         0.4018
     43 H2         -2.3612    1.2343   -4.4957 H         1 ATP         0.0652
     44 H44        -4.5223    1.7976   -3.9117 H         1 ATP         0.4503
     45 H45        -5.0218   -0.8132    0.3804 H         1 ATP         0.5209
@<TRIPOS>BOND
     1    1    2 2
     2    1    3 1
     3    1    4 1
     4    1    8 1
     5    4   32 1
     6    5    6 2
     7    5    7 1
     8    5    8 1
     9    5   12 1
    10    9   10 2
    11    9   11 1
    12    9   12 1
    13    9   13 1
    14   13   14 1
    15   14   15 1
    16   14   33 1
    17   14   34 1
    18   15   16 1
    19   15   17 1
    20   15   35 1
    21   16   21 1
    22   17   18 1
    23   17   19 1
    24   17   36 1
    25   18   37 1
    26   19   20 1
    27   19   21 1
    28   19   38 1
    29   20   39 1
    30   21   22 1
    31   21   40 1
    32   22   23 ar
    33   22   31 ar
    34   23   24 ar
    35   23   41 1
    36   24   25 ar
    37   24   45 1
    38   25   26 ar
    39   25   31 ar
    40   26   27 2
    41   26   28 ar
    42   27   42 1
    43   28   29 ar
    44   28   44 1
    45   29   30 ar
    46   29   43 1
    47   30   31 ar
@<TRIPOS>SUBSTRUCTURE
     1 ATP         1 GROUP 0 A     ****
@<TRIPOS>MOLECULE
[[[3,4-dihydroxy-5-(6-imino-7,8-dihydro-1~{H}-purin-8-ylium-9-yl)tetrahydrofuran-2-yl]methoxy-oxido-phosphoryl]oxy-oxido-phosphoryl] hydrogen phosphate
   45    47     1     0     0
SMALL
USER_CHARGES

@<TRIPOS>ATOM
      1 PG         -0.2532   -1.2176   -7.9869 P.3       1 ATP         1.5631
      2 O1G        -0.7300   -2.6342   -7.7553 O.co2     1 ATP        -0.8806
      3 O2G         0.4569   -0.8359   -9.2666 O.co2     1 ATP        -0.8806
      4 O3G        -1.5152   -0.2040   -7.7721 O.3       1 ATP        -0.8165
      5 PB          1.2948    0.7130   -6.3683 P.3       1 ATP         1.6877
      6 O1B         2.3498    1.0408   -7.4013 O.co2     1 ATP        -0.8727
      7 O2B         0.1662    1.6744   -6.0690 O.co2     1 ATP        -0.8727
      8 O3B         0.6580   -0.7495   -6.7164 O.3       1 ATP        -0.8330
      9 PA          2.9232    1.2546   -3.9579 P.3       1 ATP         1.6036
     10 O1A         2.0227    2.3093   -3.3521 O.co2     1 ATP        -0.9062
     11 O2A         4.2011    1.6439   -4.6686 O.co2     1 ATP        -0.9062
     12 O3A         2.0371    0.3242   -4.9674 O.3       1 ATP        -0.8166
     13 O5'         3.2903    0.1346   -2.8241 O.3       1 ATP        -0.5510
     14 C5'         2.2816   -0.2918   -1.9206 C.3       1 ATP         0.2099
     15 C4'         2.7248    0.0226   -0.4980 C.3       1 ATP         0.0598
     16 O4'         2.4697    1.4219   -0.2462 O.3       1 ATP        -0.3455
     17 C3'         1.9404   -0.7419    0.5596 C.3       1 ATP         0.0742
     18 O3'         2.7418   -0.8086    1.7389 O.3       1 ATP        -0.6025
     19 C2'         0.7477    0.1630    0.7858 C.3       1 ATP         0.1145
     20 O2'         0.1373   -0.0577    2.0407 O.3       1 ATP        -0.5835
     21 C1'         1.3733    1.5427    0.6747 C.3       1 ATP         0.3776
     22 N9          0.4520    2.5240    0.1767 N.pl3     1 ATP        -0.4429
     23 C8         -0.2004    2.4829   -0.9804 C.ar      1 ATP         0.2964
     24 N7         -0.9830    3.5431   -1.1568 N.pl3     1 ATP        -0.4957
     25 C5         -0.8095    4.3012   -0.0331 C.ar      1 ATP        -0.1346
     26 C6         -1.4065    5.5904    0.3585 C.ar      1 ATP         0.7213
     27 N6         -2.2501    6.2030   -0.4084 N.2       1 ATP        -0.8215
     28 N1         -0.9585    6.0272    1.5994 N.pl3     1 ATP        -0.8455
     29 C2         -0.0508    5.3009    2.3532 C.ar      1 ATP         0.6477
     30 N3          0.4890    4.1592    2.0257 N.2       1 ATP        -0.5707
     31 C4          0.0637    3.7006    0.7995 C.ar      1 ATP         0.2637
     32 HOG3       -1.3658    0.7585   -7.8880 H         1 ATP         0.4378
     33 H5'1        1.3514    0.2330   -2.1577 H         1 ATP         0.0340
     34 H5'2        2.1280   -1.3678   -2.0460 H         1 ATP         0.0340
     35 H4'         3.8044   -0.1397   -0.4040 H         1 ATP         0.0910
     36 H3'         1.6764   -1.7639    0.2728 H         1 ATP         0.0656
     37 HO3'        2.2232   -1.2979    2.3953 H         1 ATP         0.4386
     38 H2'        -0.0011    0.0027    0.0003 H         1 ATP         0.0788
     39 HO2'        0.8082    0.1199    2.7232 H         1 ATP         0.4363
     40 H1'         1.7826    1.9024    1.6451 H         1 ATP         0.1225
     41 H8         -0.1116    1.6863   -1.6984 H         1 ATP         0.3824
     42 HN62       -2.5420    7.0730    0.0447 H         1 ATP         0.4018
     43 H2          0.1969    5.7893    3.3086 H         1 ATP         0.0652
     44 H44        -1.3097    6.9080    1.9642 H         1 ATP         0.4503
     45 H45        -1.5735    3.7351   -1.9538 H         1 ATP         0.5209
@<TRIPOS>BOND
     1    1    2 2
     2    1    3 1
     3    1    4 1
     4    1    8 1
     5    4   32 1
     6    5    6 2
     7    5    7 1
     8    5    8 1
     9    5   12 1
    10    9   10 2
    11    9   11 1
    12    9   12 1
    13    9   13 1
    14   13   14 1
    15   14   15 1
    16   14   33 1
    17   14   34 1
    18   15   16 1
    19   15   17 1
    20   15   35 1
    21   16   21 1
    22   17   18 1
    23   17   19 1
    24   17   36 1
    25   18   37 1
    26   19   20 1
    27   19   21 1
    28   19   38 1
    29   20   39 1
    30   21   22 1
    31   21   40 1
    32   22   23 ar
    33   22   31 ar
    34   23   24 ar
    35   23   41 1
    36   24   25 ar
    37   24   45 1
    38   25   26 ar
    39   25   31 ar
    40   26   27 2
    41   26   28 ar
    42   27   42 1
    43   28   29 ar
    44   28   44 1
    45   29   30 ar
    46   29   43 1
    47   30   31 ar
@<TRIPOS>SUBSTRUCTURE
     1 ATP         1 GROUP 0 A     ****
@<TRIPOS>MOLECULE
[[[3,4-dihydroxy-5-(6-imino-7,8-dihydro-1~{H}-purin-8-ylium-9-yl)tetrahydrofuran-2-yl]methoxy-oxido-phosphoryl]oxy-oxido-phosphoryl] hydrogen phosphate
   45    47     1     0     0
SMALL
USER_CHARGES

@<TRIPOS>ATOM
      1 PG          0.8185   -7.3828    7.3133 P.3       1 ATP         1.5631
      2 O1G        -0.2653   -6.7632    8.1671 O.co2     1 ATP        -0.8806
      3 O2G         2.2783   -7.2296    7.6783 O.co2     1 ATP        -0.8806
      4 O3G         0.4928   -8.9727    7.1347 O.3       1 ATP        -0.8165
      5 PB          1.3844   -7.3936    4.4110 P.3       1 ATP         1.6877
      6 O1B         2.8216   -6.9284    4.4848 O.co2     1 ATP        -0.8727
      7 O2B         1.0427   -8.8428    4.1453 O.co2     1 ATP        -0.8727
      8 O3B         0.6084   -6.9126    5.7645 O.3       1 ATP        -0.8330
      9 PA         -1.0040   -6.4123    2.9660 P.3       1 ATP         1.6036
     10 O1A        -1.7672   -5.9146    4.1744 O.co2     1 ATP        -0.9062
     11 O2A        -1.3786   -7.7174    2.2982 O.co2     1 ATP        -0.9062
     12 O3A         0.5873   -6.4616    3.3335 O.3       1 ATP        -0.8166
     13 O5'        -0.9724   -5.2440    1.8220 O.3       1 ATP        -0.5510
     14 C5'        -0.7840   -3.8935    2.2172 C.3       1 ATP         0.2099
     15 C4'        -0.0724   -3.1466    1.1027 C.3       1 ATP         0.0598
     16 O4'        -0.8674   -3.1929   -0.0945 O.3       1 ATP        -0.3455
     17 C3'         0.1338   -1.6715    1.4027 C.3       1 ATP         0.0742
     18 O3'         1.2893   -1.4445    2.1808 O.3       1 ATP        -0.6025
     19 C2'         0.2158   -1.0724    0.0128 C.3       1 ATP         0.1145
     20 O2'         1.5141   -1.2448   -0.5513 O.3       1 ATP        -0.5835
     21 C1'        -0.7897   -1.9176   -0.7583 C.3       1 ATP         0.3776
     22 N9         -2.1040   -1.3333   -0.7704 N.pl3     1 ATP        -0.4429
     23 C8         -3.0590   -1.5123    0.1363 C.ar      1 ATP         0.2964
     24 N7         -4.1655   -0.8354   -0.1554 N.pl3     1 ATP        -0.4957
     25 C5         -3.8852   -0.1874   -1.3253 C.ar      1 ATP        -0.1346
     26 C6         -4.7113    0.7160   -2.1458 C.ar      1 ATP         0.7213
     27 N6         -5.9213    1.0209   -1.8021 N.2       1 ATP        -0.8215
     28 N1         -4.0411    1.1673   -3.2764 N.pl3     1 ATP        -0.8455
     29 C2         -2.7403    0.7865   -3.5638 C.ar      1 ATP         0.6477
     30 N3         -1.9921   -0.0108   -2.8519 N.2       1 ATP        -0.5707
     31 C4         -2.6302   -0.4747   -1.7239 C.ar      1 ATP         0.2637
     32 HOG3        1.1093   -9.5186    6.6016 H         1 ATP         0.4378
     33 H5'1       -1.7618   -3.4448    2.4164 H         1 ATP         0.0340
     34 H5'2       -0.1874   -3.8744    3.1341 H         1 ATP         0.0340
     35 H4'         0.8874   -3.6466    0.8805 H         1 ATP         0.0910
     36 H3'        -0.7376   -1.2333    1.9867 H         1 ATP         0.0656
     37 HO3'        1.1626   -1.9325    3.0084 H         1 ATP         0.4386
     38 H2'        -0.0384   -0.0310    0.0096 H         1 ATP         0.0788
     39 HO2'        2.1463   -0.7958    0.0370 H         1 ATP         0.4363
     40 H1'        -0.4769   -2.1002   -1.8093 H         1 ATP         0.1225
     41 H8         -2.9569   -2.1323    1.0098 H         1 ATP         0.3824
     42 HN62       -6.3169    1.6552   -2.5012 H         1 ATP         0.4018
     43 H2         -2.3612    1.2343   -4.4957 H         1 ATP         0.0652
     44 H44        -4.5223    1.7976   -3.9117 H         1 ATP         0.4503
     45 H45        -5.0218   -0.8132    0.3804 H         1 ATP         0.5209
@<TRIPOS>BOND
     1    1    2 2
     2    1    3 1
     3    1    4 1
     4    1    8 1
     5    4   32 1
     6    5    6 2
     7    5    7 1
     8    5    8 1
     9    5   12 1
    10    9   10 2
    11    9   11 1
    12    9   12 1
    13    9   13 1
    14   13   14 1
    15   14   15 1
    16   14   33 1
    17   14   34 1
    18   15   16 1
    19   15   17 1
    20   15   35 1
    21   16   21 1
    22   17   18 1
    23   17   19 1
    24   17   36 1
    25   18   37 1
    26   19   20 1
    27   19   21 1
    28   19   38 1
    29   20   39 1
    30   21   22 1
    31   21   40 1
    32   22   23 ar
    33   22   31 ar
    34   23   24 ar
    35   23   41 1
    36   24   25 ar
    37   24   45 1
    38   25   26 ar
    39   25   31 ar
    40   26   27 2
    41   26   28 ar
    42   27   42 1
    43   28   29 ar
    44   28   44 1
    45   29   30 ar
    46   29   43 1
    47   30   31 ar
@<TRIPOS>SUBSTRUCTURE
     1 ATP         1 GROUP 0 A     ****
@<TRIPOS>MOLECULE
[[[3,4-dihydroxy-5-(6-imino-7,8-dihydro-1~{H}-purin-8-ylium-9-yl)tetrahydrofuran-2-yl]methoxy-oxido-phosphoryl]oxy-oxido-phosphoryl] hydrogen phosphate
   45    47     1     0     0
SMALL
USER_CHARGES

@<TRIPOS>ATOM
      1 PG          1.0668   -2.9356   -7.0697 P.3       1 ATP         1.5631
      2 O1G         1.8423   -3.8860   -6.1850 O.co2     1 ATP        -0.8806
      3 O2G         1.5687   -2.5740   -8.4499 O.co2     1 ATP        -0.8806
      4 O3G        -0.4654   -3.4839   -7.2024 O.3       1 ATP        -0.8165
      5 PB          1.7993   -0.4183   -5.7020 P.3       1 ATP         1.6877
      6 O1B         2.6474    0.0529   -6.8623 O.co2     1 ATP        -0.8727
      7 O2B         1.0322    0.5624   -4.8434 O.co2     1 ATP        -0.8727
      8 O3B         0.7664   -1.5628   -6.2396 O.3       1 ATP        -0.8330
      9 PA          4.0010   -0.9663   -3.8028 P.3       1 ATP         1.6036
     10 O1A         5.0351   -0.2791   -4.6680 O.co2     1 ATP        -0.9062
     11 O2A         4.3698   -2.1728   -2.9673 O.co2     1 ATP        -0.9062
     12 O3A         2.7156   -1.3587   -4.7320 O.3       1 ATP        -0.8166
     13 O5'         3.2903    0.1346   -2.8241 O.3       1 ATP        -0.5510
     14 C5'         2.2816   -0.2918   -1.9206 C.3       1 ATP         0.2099
     15 C4'         2.7248    0.0226   -0.4980 C.3       1 ATP         0.0598
     16 O4'         2.4697    1.4219   -0.2462 O.3       1 ATP        -0.3455
     17 C3'         1.9404   -0.7419    0.5596 C.3       1 ATP         0.0742
     18 O3'         2.7418   -0.8086    1.7389 O.3       1 ATP        -0.6025
     19 C2'         0.7477    0.1630    0.7858 C.3       1 ATP         0.1145
     20 O2'         0.1373   -0.0577    2.0407 O.3       1 ATP        -0.5835
     21 C1'         1.3733    1.5427    0.6747 C.3       1 ATP         0.3776
     22 N9          0.4520    2.5240    0.1767 N.pl3     1 ATP        -0.4429
     23 C8         -0.2004    2.4829   -0.9804 C.ar      1 ATP         0.2964
     24 N7         -0.9830    3.5431   -1.1568 N.pl3     1 ATP        -0.4957
     25 C5         -0.8095    4.3012   -0.0331 C.ar      1 ATP        -0.1346
     26 C6         -1.4065    5.5904    0.3585 C.ar      1 ATP         0.7213
     27 N6         -2.2501    6.2030   -0.4084 N.2       1 ATP        -0.8215
     28 N1         -0.9585    6.0272    1.5994 N.pl3     1 ATP        -0.8455
     29 C2         -0.0508    5.3009    2.3532 C.ar      1 ATP         0.6477
     30 N3          0.4890    4.1592    2.0257 N.2       1 ATP        -0.5707
     31 C4          0.0637    3.7006    0.7995 C.ar      1 ATP         0.2637
     32 HOG3       -1.0988   -2.9719   -7.7491 H         1 ATP         0.4378
     33 H5'1        1.3514    0.2330   -2.1577 H         1 ATP         0.0340
     34 H5'2        2.1280   -1.3678   -2.0460 H         1 ATP         0.0340
     35 H4'         3.8044   -0.1397   -0.4040 H         1 ATP         0.0910
     36 H3'         1.6764   -1.7639    0.2728 H         1 ATP         0.0656
     37 HO3'        3.5554   -1.2733    1.4914 H         1 ATP         0.4386
     38 H2'        -0.0011    0.0027    0.0003 H         1 ATP         0.0788
     39 HO2'       -0.1563   -0.9855    2.0596 H         1 ATP         0.4363
     40 H1'         1.7826    1.9024    1.6451 H         1 ATP         0.1225
     41 H8         -0.1116    1.6863   -1.6984 H         1 ATP         0.3824
     42 HN62       -2.5420    7.0730    0.0447 H         1 ATP         0.4018
     43 H2          0.1969    5.7893    3.3086 H         1 ATP         0.0652
     44 H44        -1.3097    6.9080    1.9642 H         1 ATP         0.4503
     45 H45        -1.5735    3.7351   -1.9538 H         1 ATP         0.5209
@<TRIPOS>BOND
     1    1    2 2
     2    1    3 1
     3    1    4 1
     4    1    8 1
     5    4   32 1
     6    5    6 2
     7    5    7 1
     8    5    8 1
     9    5   12 1
    10    9   10 2
    11    9   11 1
    12    9   12 1
    13    9   13 1
    14   13   14 1
    15   14   15 1
    16   14   33 1
    17   14   34 1
    18   15   16 1
    19   15   17 1
    20   15   35 1
    21   16   21 1
    22   17   18 1
    23   17   19 1
    24   17   36 1
    25   18   37 1
    26   19   20 1
    27   19   21 1
    28   19   38 1
    29   20   39 1
    30   21   22 1
    31   21   40 1
    32   22   23 ar
    33   22   31 ar
    34   23   24 ar
    35   23   41 1
    36   24   25 ar
    37   24   45 1
    38   25   26 ar
    39   25   31 ar
    40   26   27 2
    41   26   28 ar
    42   27   42 1
    43   28   29 ar
    44   28   44 1
    45   29   30 ar
    46   29   43 1
    47   30   31 ar
@<TRIPOS>SUBSTRUCTURE
     1 ATP         1 GROUP 0 A     ****
@<TRIPOS>MOLECULE
[[[3,4-dihydroxy-5-(6-imino-7,8-dihydro-1~{H}-purin-8-ylium-9-yl)tetrahydrofuran-2-yl]methoxy-oxido-phosphoryl]oxy-oxido-phosphoryl] hydrogen phosphate
   45    47     1     0     0
SMALL
USER_CHARGES

@<TRIPOS>ATOM
      1 PG          2.5955   -1.0820   -8.8219 P.3       1 ATP         1.5631
      2 O1G         1.8416    0.0516   -9.4806 O.co2     1 ATP        -0.8806
      3 O2G         2.2908   -2.5226   -9.1678 O.co2     1 ATP        -0.8806
      4 O3G         4.1956   -0.8275   -9.0243 O.3       1 ATP        -0.8165
      5 PB          1.2375   -1.0019   -6.1965 P.3       1 ATP         1.6877
      6 O1B         0.2975    0.1457   -6.4915 O.co2     1 ATP        -0.8727
      7 O2B         0.7466   -2.4324   -6.1806 O.co2     1 ATP        -0.8727
      8 O3B         2.5199   -0.8997   -7.2018 O.3       1 ATP        -0.8330
      9 PA          2.8621    0.6170   -4.3270 P.3       1 ATP         1.6036
     10 O1A         1.9204    1.7976   -4.2287 O.co2     1 ATP        -0.9062
     11 O2A         4.1143    0.6947   -5.1729 O.co2     1 ATP        -0.9062
     12 O3A         2.0098   -0.6976   -4.7908 O.3       1 ATP        -0.8166
     13 O5'         3.2903    0.1346   -2.8241 O.3       1 ATP        -0.5510
     14 C5'         2.2816   -0.2918   -1.9206 C.3       1 ATP         0.2099
     15 C4'         2.7248    0.0226   -0.4980 C.3       1 ATP         0.0598
     16 O4'         2.4697    1.4219   -0.2462 O.3       1 ATP        -0.3455
     17 C3'         1.9404   -0.7419    0.5596 C.3       1 ATP         0.0742
     18 O3'         2.7418   -0.8086    1.7389 O.3       1 ATP        -0.6025
     19 C2'         0.7477    0.1630    0.7858 C.3       1 ATP         0.1145
     20 O2'         0.1373   -0.0577    2.0407 O.3       1 ATP        -0.5835
     21 C1'         1.3733    1.5427    0.6747 C.3       1 ATP         0.3776
     22 N9          0.4520    2.5240    0.1767 N.pl3     1 ATP        -0.4429
     23 C8         -0.8620    2.5492    0.3743 C.ar      1 ATP         0.2964
     24 N7         -1.4419    3.5886   -0.2183 N.pl3     1 ATP        -0.4957
     25 C5         -0.4215    4.2614   -0.8294 C.ar      1 ATP        -0.1346
     26 C6         -0.4310    5.4918   -1.6405 C.ar      1 ATP         0.7213
     27 N6         -1.5302    6.1308   -1.8826 N.2       1 ATP        -0.8215
     28 N1          0.8382    5.8461   -2.0817 N.pl3     1 ATP        -0.8455
     29 C2          1.9625    5.0982   -1.7709 C.ar      1 ATP         0.6477
     30 N3          1.9930    4.0077   -1.0554 N.2       1 ATP        -0.5707
     31 C4          0.7483    3.6314   -0.6038 C.ar      1 ATP         0.2637
     32 HOG3        4.8234   -1.4818   -8.6501 H         1 ATP         0.4378
     33 H5'1        1.3514    0.2330   -2.1577 H         1 ATP         0.0340
     34 H5'2        2.1280   -1.3678   -2.0460 H         1 ATP         0.0340
     35 H4'         3.8044   -0.1397   -0.4040 H         1 ATP         0.0910
     36 H3'         1.6764   -1.7639    0.2728 H         1 ATP         0.0656
     37 HO3'        2.2232   -1.2979    2.3953 H         1 ATP         0.4386
     38 H2'        -0.0011    0.0027    0.0003 H         1 ATP         0.0788
     39 HO2'       -0.1563   -0.9855    2.0596 H         1 ATP         0.4363
     40 H1'         1.7826    1.9024    1.6451 H         1 ATP         0.1225
     41 H8         -1.4030    1.8165    0.9473 H         1 ATP         0.3824
     42 HN62       -1.3197    6.9504   -2.4583 H         1 ATP         0.4018
     43 H2          2.8857    5.5186   -2.1994 H         1 ATP         0.0652
     44 H44         0.9433    6.6815   -2.6502 H         1 ATP         0.4503
     45 H45        -2.4254    3.8199   -0.2108 H         1 ATP         0.5209
@<TRIPOS>BOND
     1    1    2 2
     2    1    3 1
     3    1    4 1
     4    1    8 1
     5    4   32 1
     6    5    6 2
     7    5    7 1
     8    5    8 1
     9    5   12 1
    10    9   10 2
    11    9   11 1
    12    9   12 1
    13    9   13 1
    14   13   14 1
    15   14   15 1
    16   14   33 1
    17   14   34 1
    18   15   16 1
    19   15   17 1
    20   15   35 1
    21   16   21 1
    22   17   18 1
    23   17   19 1
    24   17   36 1
    25   18   37 1
    26   19   20 1
    27   19   21 1
    28   19   38 1
    29   20   39 1
    30   21   22 1
    31   21   40 1
    32   22   23 ar
    33   22   31 ar
    34   23   24 ar
    35   23   41 1
    36   24   25 ar
    37   24   45 1
    38   25   26 ar
    39   25   31 ar
    40   26   27 2
    41   26   28 ar
    42   27   42 1
    43   28   29 ar
    44   28   44 1
    45   29   30 ar
    46   29   43 1
    47   30   31 ar
@<TRIPOS>SUBSTRUCTURE
     1 ATP         1 GROUP 0 A     ****
@<TRIPOS>MOLECULE
[[[3,4-dihydroxy-5-(6-imino-7,8-dihydro-1~{H}-purin-8-ylium-9-yl)tetrahydrofuran-2-yl]methoxy-oxido-phosphoryl]oxy-oxido-phosphoryl] hydrogen phosphate
   45    47     1     0     0
SMALL
USER_CHARGES

@<TRIPOS>ATOM
      1 PG         -2.9676   -4.4708    6.4841 P.3       1 ATP         1.5631
      2 O1G        -3.0667   -3.9059    5.0846 O.co2     1 ATP        -0.8806
      3 O2G        -2.2057   -3.7382    7.5659 O.co2     1 ATP        -0.8806
      4 O3G        -4.4766   -4.7754    7.0284 O.3       1 ATP        -0.8165
      5 PB         -0.9632   -6.5736    5.9326 P.3       1 ATP         1.6877
      6 O1B         0.1103   -5.8635    6.7268 O.co2     1 ATP        -0.8727
      7 O2B        -1.0259   -8.0837    5.8758 O.co2     1 ATP        -0.8727
      8 O3B        -2.4213   -6.0064    6.3996 O.3       1 ATP        -0.8330
      9 PA          0.1785   -6.1253    3.2400 P.3       1 ATP         1.6036
     10 O1A         0.2930   -7.5794    2.8365 O.co2     1 ATP        -0.9062
     11 O2A         1.4000   -5.3442    3.6730 O.co2     1 ATP        -0.9062
     12 O3A        -0.9569   -5.9919    4.4074 O.3       1 ATP        -0.8166
     13 O5'        -0.5687   -5.2869    2.0510 O.3       1 ATP        -0.5510
     14 C5'        -0.7840   -3.8935    2.2172 C.3       1 ATP         0.2099
     15 C4'        -0.0724   -3.1466    1.1027 C.3       1 ATP         0.0598
     16 O4'        -0.8674   -3.1929   -0.0945 O.3       1 ATP        -0.3455
     17 C3'         0.1338   -1.6715    1.4027 C.3       1 ATP         0.0742
     18 O3'         1.2893   -1.4445    2.1808 O.3       1 ATP        -0.6025
     19 C2'         0.2158   -1.0724    0.0128 C.3       1 ATP         0.1145
     20 O2'         1.5141   -1.2448   -0.5513 O.3       1 ATP        -0.5835
     21 C1'        -0.7897   -1.9176   -0.7583 C.3       1 ATP         0.3776
     22 N9         -2.1040   -1.3333   -0.7704 N.pl3     1 ATP        -0.4429
     23 C8         -3.0590   -1.5123    0.1363 C.ar      1 ATP         0.2964
     24 N7         -4.1655   -0.8354   -0.1554 N.pl3     1 ATP        -0.4957
     25 C5         -3.8852   -0.1874   -1.3253 C.ar      1 ATP        -0.1346
     26 C6         -4.7113    0.7160   -2.1458 C.ar      1 ATP         0.7213
     27 N6         -5.9213    1.0209   -1.8021 N.2       1 ATP        -0.8215
     28 N1         -4.0411    1.1673   -3.2764 N.pl3     1 ATP        -0.8455
     29 C2         -2.7403    0.7865   -3.5638 C.ar      1 ATP         0.6477
     30 N3         -1.9921   -0.0108   -2.8519 N.2       1 ATP        -0.5707
     31 C4         -2.6302   -0.4747   -1.7239 C.ar      1 ATP         0.2637
     32 HOG3       -4.5814   -5.1484    7.9296 H         1 ATP         0.4378
     33 H5'1       -1.8598   -3.6968    2.1850 H         1 ATP         0.0340
     34 H5'2       -0.3933   -3.5903    3.1931 H         1 ATP         0.0340
     35 H4'         0.8874   -3.6466    0.8805 H         1 ATP         0.0910
     36 H3'        -0.7376   -1.2333    1.9867 H         1 ATP         0.0656
     37 HO3'        1.3408   -0.4870    2.3219 H         1 ATP         0.4386
     38 H2'        -0.0384   -0.0310    0.0096 H         1 ATP         0.0788
     39 HO2'        2.1463   -0.7958    0.0370 H         1 ATP         0.4363
     40 H1'        -0.4769   -2.1002   -1.8093 H         1 ATP         0.1225
     41 H8         -2.9569   -2.1323    1.0098 H         1 ATP         0.3824
     42 HN62       -6.3169    1.6552   -2.5012 H         1 ATP         0.4018
     43 H2         -2.3612    1.2343   -4.4957 H         1 ATP         0.0652
     44 H44        -4.5223    1.7976   -3.9117 H         1 ATP         0.4503
     45 H45        -5.0218   -0.8132    0.3804 H         1 ATP         0.5209
@<TRIPOS>BOND
     1    1    2 2
     2    1    3 1
     3    1    4 1
     4    1    8 1
     5    4   32 1
     6    5    6 2
     7    5    7 1
     8    5    8 1
     9    5   12 1
    10    9   10 2
    11    9   11 1
    12    9   12 1
    13    9   13 1
    14   13   14 1
    15   14   15 1
    16   14   33 1
    17   14   34 1
    18   15   16 1
    19   15   17 1
    20   15   35 1
    21   16   21 1
    22   17   18 1
    23   17   19 1
    24   17   36 1
    25   18   37 1
    26   19   20 1
    27   19   21 1
    28   19   38 1
    29   20   39 1
    30   21   22 1
    31   21   40 1
    32   22   23 ar
    33   22   31 ar
    34   23   24 ar
    35   23   41 1
    36   24   25 ar
    37   24   45 1
    38   25   26 ar
    39   25   31 ar
    40   26   27 2
    41   26   28 ar
    42   27   42 1
    43   28   29 ar
    44   28   44 1
    45   29   30 ar
    46   29   43 1
    47   30   31 ar
@<TRIPOS>SUBSTRUCTURE
     1 ATP         1 GROUP 0 A     ****
@<TRIPOS>MOLECULE
[[[3,4-dihydroxy-5-(6-imino-7,8-dihydro-1~{H}-purin-8-ylium-9-yl)tetrahydrofuran-2-yl]methoxy-oxido-phosphoryl]oxy-oxido-phosphoryl] hydrogen phosphate
   45    47     1     0     0
SMALL
USER_CHARGES

@<TRIPOS>ATOM
      1 PG         -2.9798   -2.3975   -4.8527 P.3       1 ATP         1.5631
      2 O1G        -4.1740   -1.9922   -4.0178 O.co2     1 ATP        -0.8806
      3 O2G        -2.9855   -3.6872   -5.6429 O.co2     1 ATP        -0.8806
      4 O3G        -2.6149   -1.1703   -5.8660 O.3       1 ATP        -0.8165
      5 PB         -1.2231   -3.2846   -2.6458 P.3       1 ATP         1.6877
      6 O1B        -2.1740   -2.9988   -1.5049 O.co2     1 ATP        -0.8727
      7 O2B        -0.9862   -4.6967   -3.1330 O.co2     1 ATP        -0.8727
      8 O3B        -1.6407   -2.3541   -3.9207 O.3       1 ATP        -0.8330
      9 PA          1.5544   -2.4558   -3.2404 P.3       1 ATP         1.6036
     10 O1A         1.2372   -1.5514   -4.4116 O.co2     1 ATP        -0.9062
     11 O2A         2.1275   -3.8383   -3.4637 O.co2     1 ATP        -0.9062
     12 O3A         0.2190   -2.5976   -2.3096 O.3       1 ATP        -0.8166
     13 O5'         2.5245   -1.6648   -2.1878 O.3       1 ATP        -0.5510
     14 C5'         2.2816   -0.2918   -1.9206 C.3       1 ATP         0.2099
     15 C4'         2.7248    0.0226   -0.4980 C.3       1 ATP         0.0598
     16 O4'         2.4697    1.4219   -0.2462 O.3       1 ATP        -0.3455
     17 C3'         1.9404   -0.7419    0.5596 C.3       1 ATP         0.0742
     18 O3'         2.7418   -0.8086    1.7389 O.3       1 ATP        -0.6025
     19 C2'         0.7477    0.1630    0.7858 C.3       1 ATP         0.1145
     20 O2'         0.1373   -0.0577    2.0407 O.3       1 ATP        -0.5835
     21 C1'         1.3733    1.5427    0.6747 C.3       1 ATP         0.3776
     22 N9          0.4520    2.5240    0.1767 N.pl3     1 ATP        -0.4429
     23 C8         -0.8620    2.5492    0.3743 C.ar      1 ATP         0.2964
     24 N7         -1.4419    3.5886   -0.2183 N.pl3     1 ATP        -0.4957
     25 C5         -0.4215    4.2614   -0.8294 C.ar      1 ATP        -0.1346
     26 C6         -0.4310    5.4918   -1.6405 C.ar      1 ATP         0.7213
     27 N6         -1.5302    6.1308   -1.8826 N.2       1 ATP        -0.8215
     28 N1          0.8382    5.8461   -2.0817 N.pl3     1 ATP        -0.8455
     29 C2          1.9625    5.0982   -1.7709 C.ar      1 ATP         0.6477
     30 N3          1.9930    4.0077   -1.0554 N.2       1 ATP        -0.5707
     31 C4          0.7483    3.6314   -0.6038 C.ar      1 ATP         0.2637
     32 HOG3       -1.8568   -1.2804   -6.4787 H         1 ATP         0.4378
     33 H5'1        2.8432    0.3119   -2.6398 H         1 ATP         0.0340
     34 H5'2        1.2128   -0.0927   -2.0428 H         1 ATP         0.0340
     35 H4'         3.8044   -0.1397   -0.4040 H         1 ATP         0.0910
     36 H3'         1.6764   -1.7639    0.2728 H         1 ATP         0.0656
     37 HO3'        2.2232   -1.2979    2.3953 H         1 ATP         0.4386
     38 H2'        -0.0011    0.0027    0.0003 H         1 ATP         0.0788
     39 HO2'       -0.1563   -0.9855    2.0596 H         1 ATP         0.4363
     40 H1'         1.7826    1.9024    1.6451 H         1 ATP         0.1225
     41 H8         -1.4030    1.8165    0.9473 H         1 ATP         0.3824
     42 HN62       -1.3197    6.9504   -2.4583 H         1 ATP         0.4018
     43 H2          2.8857    5.5186   -2.1994 H         1 ATP         0.0652
     44 H44         0.9433    6.6815   -2.6502 H         1 ATP         0.4503
     45 H45        -2.4254    3.8199   -0.2108 H         1 ATP         0.5209
@<TRIPOS>BOND
     1    1    2 2
     2    1    3 1
     3    1    4 1
     4    1    8 1
     5    4   32 1
     6    5    6 2
     7    5    7 1
     8    5    8 1
     9    5   12 1
    10    9   10 2
    11    9   11 1
    12    9   12 1
    13    9   13 1
    14   13   14 1
    15   14   15 1
    16   14   33 1
    17   14   34 1
    18   15   16 1
    19   15   17 1
    20   15   35 1
    21   16   21 1
    22   17   18 1
    23   17   19 1
    24   17   36 1
    25   18   37 1
    26   19   20 1
    27   19   21 1
    28   19   38 1
    29   20   39 1
    30   21   22 1
    31   21   40 1
    32   22   23 ar
    33   22   31 ar
    34   23   24 ar
    35   23   41 1
    36   24   25 ar
    37   24   45 1
    38   25   26 ar
    39   25   31 ar
    40   26   27 2
    41   26   28 ar
    42   27   42 1
    43   28   29 ar
    44   28   44 1
    45   29   30 ar
    46   29   43 1
    47   30   31 ar
@<TRIPOS>SUBSTRUCTURE
     1 ATP         1 GROUP 0 A     ****
@<TRIPOS>MOLECULE
[[[3,4-dihydroxy-5-(6-imino-7,8-dihydro-1~{H}-purin-8-ylium-9-yl)tetrahydrofuran-2-yl]methoxy-oxido-phosphoryl]oxy-oxido-phosphoryl] hydrogen phosphate
   45    47     1     0     0
SMALL
USER_CHARGES

@<TRIPOS>ATOM
      1 PG          9.1311    1.0167   -3.4201 P.3       1 ATP         1.5631
      2 O1G         9.1942    2.1562   -4.4125 O.co2     1 ATP        -0.8806
      3 O2G         9.7770   -0.3165   -3.7254 O.co2     1 ATP        -0.8806
      4 O3G         9.6945    1.5487   -1.9829 O.3       1 ATP        -0.8165
      5 PB          6.9461   -0.2229   -1.8604 P.3       1 ATP         1.6877
      6 O1B         7.1913   -1.6565   -2.2754 O.co2     1 ATP        -0.8727
      7 O2B         7.3629    0.2800   -0.4962 O.co2     1 ATP        -0.8727
      8 O3B         7.5748    0.7659   -2.9973 O.3       1 ATP        -0.8330
      9 PA          4.4374   -0.0466   -3.4193 P.3       1 ATP         1.6036
     10 O1A         4.3033   -1.5210   -3.7328 O.co2     1 ATP        -0.9062
     11 O2A         4.9277    0.9261   -4.4696 O.co2     1 ATP        -0.9062
     12 O3A         5.3672    0.1247   -2.0867 O.3       1 ATP        -0.8166
     13 O5'         3.0213    0.5153   -2.8245 O.3       1 ATP        -0.5510
     14 C5'         2.2816   -0.2918   -1.9206 C.3       1 ATP         0.2099
     15 C4'         2.7248    0.0226   -0.4980 C.3       1 ATP         0.0598
     16 O4'         2.4697    1.4219   -0.2462 O.3       1 ATP        -0.3455
     17 C3'         1.9404   -0.7419    0.5596 C.3       1 ATP         0.0742
     18 O3'         2.7418   -0.8086    1.7389 O.3       1 ATP        -0.6025
     19 C2'         0.7477    0.1630    0.7858 C.3       1 ATP         0.1145
     20 O2'         0.1373   -0.0577    2.0407 O.3       1 ATP        -0.5835
     21 C1'         1.3733    1.5427    0.6747 C.3       1 ATP         0.3776
     22 N9          0.4520    2.5240    0.1767 N.pl3     1 ATP        -0.4429
     23 C8          0.2216    2.8192   -1.0985 C.ar      1 ATP         0.2964
     24 N7         -0.6906    3.7763   -1.2384 N.pl3     1 ATP        -0.4957
     25 C5         -1.0575    4.1037    0.0366 C.ar      1 ATP        -0.1346
     26 C6         -2.0291    5.0943    0.5330 C.ar      1 ATP         0.7213
     27 N6         -2.7093    5.8371   -0.2800 N.2       1 ATP        -0.8215
     28 N1         -2.1051    5.1136    1.9204 N.pl3     1 ATP        -0.8455
     29 C2         -1.3354    4.2774    2.7129 C.ar      1 ATP         0.6477
     30 N3         -0.4707    3.3945    2.2944 N.2       1 ATP        -0.5707
     31 C4         -0.3734    3.3525    0.9220 C.ar      1 ATP         0.2637
     32 HOG3        9.7180    0.9211   -1.2293 H         1 ATP         0.4378
     33 H5'1        1.2163   -0.0770   -2.0471 H         1 ATP         0.0340
     34 H5'2        2.4655   -1.3443   -2.1563 H         1 ATP         0.0340
     35 H4'         3.8044   -0.1397   -0.4040 H         1 ATP         0.0910
     36 H3'         1.6764   -1.7639    0.2728 H         1 ATP         0.0656
     37 HO3'        2.2232   -1.2979    2.3953 H         1 ATP         0.4386
     38 H2'        -0.0011    0.0027    0.0003 H         1 ATP         0.0788
     39 HO2'       -0.6141    0.5574    2.1082 H         1 ATP         0.4363
     40 H1'         1.7826    1.9024    1.6451 H         1 ATP         0.1225
     41 H8          0.7125    2.3429   -1.9292 H         1 ATP         0.3824
     42 HN62       -3.3217    6.4517    0.2629 H         1 ATP         0.4018
     43 H2         -1.5188    4.4223    3.7890 H         1 ATP         0.0652
     44 H44        -2.7470    5.7626    2.3665 H         1 ATP         0.4503
     45 H45        -1.0305    4.1680   -2.1054 H         1 ATP         0.5209
@<TRIPOS>BOND
     1    1    2 2
     2    1    3 1
     3    1    4 1
     4    1    8 1
     5    4   32 1
     6    5    6 2
     7    5    7 1
     8    5    8 1
     9    5   12 1
    10    9   10 2
    11    9   11 1
    12    9   12 1
    13    9   13 1
    14   13   14 1
    15   14   15 1
    16   14   33 1
    17   14   34 1
    18   15   16 1
    19   15   17 1
    20   15   35 1
    21   16   21 1
    22   17   18 1
    23   17   19 1
    24   17   36 1
    25   18   37 1
    26   19   20 1
    27   19   21 1
    28   19   38 1
    29   20   39 1
    30   21   22 1
    31   21   40 1
    32   22   23 ar
    33   22   31 ar
    34   23   24 ar
    35   23   41 1
    36   24   25 ar
    37   24   45 1
    38   25   26 ar
    39   25   31 ar
    40   26   27 2
    41   26   28 ar
    42   27   42 1
    43   28   29 ar
    44   28   44 1
    45   29   30 ar
    46   29   43 1
    47   30   31 ar
@<TRIPOS>SUBSTRUCTURE
     1 ATP         1 GROUP 0 A     ****
@<TRIPOS>MOLECULE
[[[3,4-dihydroxy-5-(6-imino-7,8-dihydro-1~{H}-purin-8-ylium-9-yl)tetrahydrofuran-2-yl]methoxy-oxido-phosphoryl]oxy-oxido-phosphoryl] hydrogen phosphate
   45    47     1     0     0
SMALL
USER_CHARGES

@<TRIPOS>ATOM
      1 PG         -1.2522   -1.1256    8.7743 P.3       1 ATP         1.5631
      2 O1G        -2.3209   -1.9153    9.4965 O.co2     1 ATP        -0.8806
      3 O2G        -1.2824    0.3865    8.7552 O.co2     1 ATP        -0.8806
      4 O3G         0.2084   -1.6080    9.3220 O.3       1 ATP        -0.8165
      5 PB         -2.2053   -1.5829    6.0128 P.3       1 ATP         1.6877
      6 O1B        -3.4047   -2.4390    6.3535 O.co2     1 ATP        -0.8727
      7 O2B        -2.3658   -0.1331    5.6132 O.co2     1 ATP        -0.8727
      8 O3B        -1.1332   -1.6717    7.2409 O.3       1 ATP        -0.8330
      9 PA         -0.7215   -3.8652    4.8532 P.3       1 ATP         1.6036
     10 O1A        -1.8735   -4.8461    4.8225 O.co2     1 ATP        -0.9062
     11 O2A         0.3496   -3.9631    5.9175 O.co2     1 ATP        -0.9062
     12 O3A        -1.3248   -2.3468    4.8700 O.3       1 ATP        -0.8166
     13 O5'         0.0118   -3.8395    3.3916 O.3       1 ATP        -0.5510
     14 C5'        -0.7840   -3.8935    2.2172 C.3       1 ATP         0.2099
     15 C4'        -0.0724   -3.1466    1.1027 C.3       1 ATP         0.0598
     16 O4'        -0.8674   -3.1929   -0.0945 O.3       1 ATP        -0.3455
     17 C3'         0.1338   -1.6715    1.4027 C.3       1 ATP         0.0742
     18 O3'         1.2893   -1.4445    2.1808 O.3       1 ATP        -0.6025
     19 C2'         0.2158   -1.0724    0.0128 C.3       1 ATP         0.1145
     20 O2'         1.5141   -1.2448   -0.5513 O.3       1 ATP        -0.5835
     21 C1'        -0.7897   -1.9176   -0.7583 C.3       1 ATP         0.3776
     22 N9         -2.1040   -1.3333   -0.7704 N.pl3     1 ATP        -0.4429
     23 C8         -3.0590   -1.5123    0.1363 C.ar      1 ATP         0.2964
     24 N7         -4.1655   -0.8354   -0.1554 N.pl3     1 ATP        -0.4957
     25 C5         -3.8852   -0.1874   -1.3253 C.ar      1 ATP        -0.1346
     26 C6         -4.7113    0.7160   -2.1458 C.ar      1 ATP         0.7213
     27 N6         -5.9213    1.0209   -1.8021 N.2       1 ATP        -0.8215
     28 N1         -4.0411    1.1673   -3.2764 N.pl3     1 ATP        -0.8455
     29 C2         -2.7403    0.7865   -3.5638 C.ar      1 ATP         0.6477
     30 N3         -1.9921   -0.0108   -2.8519 N.2       1 ATP        -0.5707
     31 C4         -2.6302   -0.4747   -1.7239 C.ar      1 ATP         0.2637
     32 HOG3        1.0104   -1.1855    8.9472 H         1 ATP         0.4378
     33 H5'1       -0.9348   -4.9415    1.9415 H         1 ATP         0.0340
     34 H5'2       -1.7548   -3.4350    2.4278 H         1 ATP         0.0340
     35 H4'         0.8874   -3.6466    0.8805 H         1 ATP         0.0910
     36 H3'        -0.7376   -1.2333    1.9867 H         1 ATP         0.0656
     37 HO3'        1.1626   -1.9325    3.0084 H         1 ATP         0.4386
     38 H2'        -0.0384   -0.0310    0.0096 H         1 ATP         0.0788
     39 HO2'        1.6843   -2.2021   -0.5965 H         1 ATP         0.4363
     40 H1'        -0.4769   -2.1002   -1.8093 H         1 ATP         0.1225
     41 H8         -2.9569   -2.1323    1.0098 H         1 ATP         0.3824
     42 HN62       -6.3169    1.6552   -2.5012 H         1 ATP         0.4018
     43 H2         -2.3612    1.2343   -4.4957 H         1 ATP         0.0652
     44 H44        -4.5223    1.7976   -3.9117 H         1 ATP         0.4503
     45 H45        -5.0218   -0.8132    0.3804 H         1 ATP         0.5209
@<TRIPOS>BOND
     1    1    2 2
     2    1    3 1
     3    1    4 1
     4    1    8 1
     5    4   32 1
     6    5    6 2
     7    5    7 1
     8    5    8 1
     9    5   12 1
    10    9   10 2
    11    9   11 1
    12    9   12 1
    13    9   13 1
    14   13   14 1
    15   14   15 1
    16   14   33 1
    17   14   34 1
    18   15   16 1
    19   15   17 1
    20   15   35 1
    21   16   21 1
    22   17   18 1
    23   17   19 1
    24   17   36 1
    25   18   37 1
    26   19   20 1
    27   19   21 1
    28   19   38 1
    29   20   39 1
    30   21   22 1
    31   21   40 1
    32   22   23 ar
    33   22   31 ar
    34   23   24 ar
    35   23   41 1
    36   24   25 ar
    37   24   45 1
    38   25   26 ar
    39   25   31 ar
    40   26   27 2
    41   26   28 ar
    42   27   42 1
    43   28   29 ar
    44   28   44 1
    45   29   30 ar
    46   29   43 1
    47   30   31 ar
@<TRIPOS>SUBSTRUCTURE
     1 ATP         1 GROUP 0 A     ****
@<TRIPOS>MOLECULE
[[[3,4-dihydroxy-5-(6-imino-7,8-dihydro-1~{H}-purin-8-ylium-9-yl)tetrahydrofuran-2-yl]methoxy-oxido-phosphoryl]oxy-oxido-phosphoryl] hydrogen phosphate
   45    47     1     0     0
SMALL
USER_CHARGES

@<TRIPOS>ATOM
      1 PG         -5.5157   -5.8948    5.8938 P.3       1 ATP         1.5631
      2 O1G        -5.5894   -5.5708    7.3693 O.co2     1 ATP        -0.8806
      3 O2G        -5.8503   -7.2792    5.3844 O.co2     1 ATP        -0.8806
      4 O3G        -6.4226   -4.8092    5.0784 O.3       1 ATP        -0.8165
      5 PB         -2.5735   -6.0812    5.6651 P.3       1 ATP         1.6877
      6 O1B        -2.2403   -5.7795    7.1092 O.co2     1 ATP        -0.8727
      7 O2B        -2.5033   -7.4914    5.1231 O.co2     1 ATP        -0.8727
      8 O3B        -4.0468   -5.4637    5.3280 O.3       1 ATP        -0.8330
      9 PA         -0.0649   -5.0721    4.4638 P.3       1 ATP         1.6036
     10 O1A         0.3525   -6.3584    3.7844 O.co2     1 ATP        -0.9062
     11 O2A         0.6002   -4.6240    5.7470 O.co2     1 ATP        -0.9062
     12 O3A        -1.6802   -5.1068    4.7074 O.3       1 ATP        -0.8166
     13 O5'         0.0118   -3.8395    3.3916 O.3       1 ATP        -0.5510
     14 C5'        -0.7840   -3.8935    2.2172 C.3       1 ATP         0.2099
     15 C4'        -0.0724   -3.1466    1.1027 C.3       1 ATP         0.0598
     16 O4'        -0.8674   -3.1929   -0.0945 O.3       1 ATP        -0.3455
     17 C3'         0.1338   -1.6715    1.4027 C.3       1 ATP         0.0742
     18 O3'         1.2893   -1.4445    2.1808 O.3       1 ATP        -0.6025
     19 C2'         0.2158   -1.0724    0.0128 C.3       1 ATP         0.1145
     20 O2'         1.5141   -1.2448   -0.5513 O.3       1 ATP        -0.5835
     21 C1'        -0.7897   -1.9176   -0.7583 C.3       1 ATP         0.3776
     22 N9         -2.1040   -1.3333   -0.7704 N.pl3     1 ATP        -0.4429
     23 C8         -3.0590   -1.5123    0.1363 C.ar      1 ATP         0.2964
     24 N7         -4.1655   -0.8354   -0.1554 N.pl3     1 ATP        -0.4957
     25 C5         -3.8852   -0.1874   -1.3253 C.ar      1 ATP        -0.1346
     26 C6         -4.7113    0.7160   -2.1458 C.ar      1 ATP         0.7213
     27 N6         -5.9213    1.0209   -1.8021 N.2       1 ATP        -0.8215
     28 N1         -4.0411    1.1673   -3.2764 N.pl3     1 ATP        -0.8455
     29 C2         -2.7403    0.7865   -3.5638 C.ar      1 ATP         0.6477
     30 N3         -1.9921   -0.0108   -2.8519 N.2       1 ATP        -0.5707
     31 C4         -2.6302   -0.4747   -1.7239 C.ar      1 ATP         0.2637
     32 HOG3       -6.4771   -4.8859    4.1020 H         1 ATP         0.4378
     33 H5'1       -0.9348   -4.9415    1.9415 H         1 ATP         0.0340
     34 H5'2       -1.7548   -3.4350    2.4278 H         1 ATP         0.0340
     35 H4'         0.8874   -3.6466    0.8805 H         1 ATP         0.0910
     36 H3'        -0.7376   -1.2333    1.9867 H         1 ATP         0.0656
     37 HO3'        1.1626   -1.9325    3.0084 H         1 ATP         0.4386
     38 H2'        -0.0384   -0.0310    0.0096 H         1 ATP         0.0788
     39 HO2'        2.1463   -0.7958    0.0370 H         1 ATP         0.4363
     40 H1'        -0.4769   -2.1002   -1.8093 H         1 ATP         0.1225
     41 H8         -2.9569   -2.1323    1.0098 H         1 ATP         0.3824
     42 HN62       -6.3169    1.6552   -2.5012 H         1 ATP         0.4018
     43 H2         -2.3612    1.2343   -4.4957 H         1 ATP         0.0652
     44 H44        -4.5223    1.7976   -3.9117 H         1 ATP         0.4503
     45 H45        -5.0218   -0.8132    0.3804 H         1 ATP         0.5209
@<TRIPOS>BOND
     1    1    2 2
     2    1    3 1
     3    1    4 1
     4    1    8 1
     5    4   32 1
     6    5    6 2
     7    5    7 1
     8    5    8 1
     9    5   12 1
    10    9   10 2
    11    9   11 1
    12    9   12 1
    13    9   13 1
    14   13   14 1
    15   14   15 1
    16   14   33 1
    17   14   34 1
    18   15   16 1
    19   15   17 1
    20   15   35 1
    21   16   21 1
    22   17   18 1
    23   17   19 1
    24   17   36 1
    25   18   37 1
    26   19   20 1
    27   19   21 1
    28   19   38 1
    29   20   39 1
    30   21   22 1
    31   21   40 1
    32   22   23 ar
    33   22   31 ar
    34   23   24 ar
    35   23   41 1
    36   24   25 ar
    37   24   45 1
    38   25   26 ar
    39   25   31 ar
    40   26   27 2
    41   26   28 ar
    42   27   42 1
    43   28   29 ar
    44   28   44 1
    45   29   30 ar
    46   29   43 1
    47   30   31 ar
@<TRIPOS>SUBSTRUCTURE
     1 ATP         1 GROUP 0 A     ****
@<TRIPOS>MOLECULE
[[[3,4-dihydroxy-5-(6-imino-7,8-dihydro-1~{H}-purin-8-ylium-9-yl)tetrahydrofuran-2-yl]methoxy-oxido-phosphoryl]oxy-oxido-phosphoryl] hydrogen phosphate
   45    47     1     0     0
SMALL
USER_CHARGES

@<TRIPOS>ATOM
      1 PG          0.4651   -8.3563    7.5544 P.3       1 ATP         1.5631
      2 O1G        -0.8497   -8.6079    8.2583 O.co2     1 ATP        -0.8806
      3 O2G         1.6756   -7.8695    8.3195 O.co2     1 ATP        -0.8806
      4 O3G         0.8794   -9.7045    6.7318 O.3       1 ATP        -0.8165
      5 PB         -0.8551   -7.4957    5.0524 P.3       1 ATP         1.6877
      6 O1B        -0.4619   -8.6814    4.1997 O.co2     1 ATP        -0.8727
      7 O2B        -2.2571   -7.3571    5.6026 O.co2     1 ATP        -0.8727
      8 O3B         0.2066   -7.3628    6.2855 O.3       1 ATP        -0.8330
      9 PA         -0.5250   -4.5707    4.7525 P.3       1 ATP         1.6036
     10 O1A         0.4868   -4.3780    5.8613 O.co2     1 ATP        -0.9062
     11 O2A        -1.9752   -4.1885    4.9536 O.co2     1 ATP        -0.9062
     12 O3A        -0.4680   -6.1256    4.2538 O.3       1 ATP        -0.8166
     13 O5'         0.0118   -3.8395    3.3916 O.3       1 ATP        -0.5510
     14 C5'        -0.7840   -3.8935    2.2172 C.3       1 ATP         0.2099
     15 C4'        -0.0724   -3.1466    1.1027 C.3       1 ATP         0.0598
     16 O4'        -0.8674   -3.1929   -0.0945 O.3       1 ATP        -0.3455
     17 C3'         0.1338   -1.6715    1.4027 C.3       1 ATP         0.0742
     18 O3'         1.2893   -1.4445    2.1808 O.3       1 ATP        -0.6025
     19 C2'         0.2158   -1.0724    0.0128 C.3       1 ATP         0.1145
     20 O2'         1.5141   -1.2448   -0.5513 O.3       1 ATP        -0.5835
     21 C1'        -0.7897   -1.9176   -0.7583 C.3       1 ATP         0.3776
     22 N9         -2.1040   -1.3333   -0.7704 N.pl3     1 ATP        -0.4429
     23 C8         -3.0590   -1.5123    0.1363 C.ar      1 ATP         0.2964
     24 N7         -4.1655   -0.8354   -0.1554 N.pl3     1 ATP        -0.4957
     25 C5         -3.8852   -0.1874   -1.3253 C.ar      1 ATP        -0.1346
     26 C6         -4.7113    0.7160   -2.1458 C.ar      1 ATP         0.7213
     27 N6         -5.9213    1.0209   -1.8021 N.2       1 ATP        -0.8215
     28 N1         -4.0411    1.1673   -3.2764 N.pl3     1 ATP        -0.8455
     29 C2         -2.7403    0.7865   -3.5638 C.ar      1 ATP         0.6477
     30 N3         -1.9921   -0.0108   -2.8519 N.2       1 ATP        -0.5707
     31 C4         -2.6302   -0.4747   -1.7239 C.ar      1 ATP         0.2637
     32 HOG3        1.7155   -9.6999    6.2187 H         1 ATP         0.4378
     33 H5'1       -0.9348   -4.9415    1.9415 H         1 ATP         0.0340
     34 H5'2       -1.7548   -3.4350    2.4278 H         1 ATP         0.0340
     35 H4'         0.8874   -3.6466    0.8805 H         1 ATP         0.0910
     36 H3'        -0.7376   -1.2333    1.9867 H         1 ATP         0.0656
     37 HO3'        1.1626   -1.9325    3.0084 H         1 ATP         0.4386
     38 H2'        -0.0384   -0.0310    0.0096 H         1 ATP         0.0788
     39 HO2'        2.1463   -0.7958    0.0370 H         1 ATP         0.4363
     40 H1'        -0.4769   -2.1002   -1.8093 H         1 ATP         0.1225
     41 H8         -2.9569   -2.1323    1.0098 H         1 ATP         0.3824
     42 HN62       -6.3169    1.6552   -2.5012 H         1 ATP         0.4018
     43 H2         -2.3612    1.2343   -4.4957 H         1 ATP         0.0652
     44 H44        -4.5223    1.7976   -3.9117 H         1 ATP         0.4503
     45 H45        -5.0218   -0.8132    0.3804 H         1 ATP         0.5209
@<TRIPOS>BOND
     1    1    2 2
     2    1    3 1
     3    1    4 1
     4    1    8 1
     5    4   32 1
     6    5    6 2
     7    5    7 1
     8    5    8 1
     9    5   12 1
    10    9   10 2
    11    9   11 1
    12    9   12 1
    13    9   13 1
    14   13   14 1
    15   14   15 1
    16   14   33 1
    17   14   34 1
    18   15   16 1
    19   15   17 1
    20   15   35 1
    21   16   21 1
    22   17   18 1
    23   17   19 1
    24   17   36 1
    25   18   37 1
    26   19   20 1
    27   19   21 1
    28   19   38 1
    29   20   39 1
    30   21   22 1
    31   21   40 1
    32   22   23 ar
    33   22   31 ar
    34   23   24 ar
    35   23   41 1
    36   24   25 ar
    37   24   45 1
    38   25   26 ar
    39   25   31 ar
    40   26   27 2
    41   26   28 ar
    42   27   42 1
    43   28   29 ar
    44   28   44 1
    45   29   30 ar
    46   29   43 1
    47   30   31 ar
@<TRIPOS>SUBSTRUCTURE
     1 ATP         1 GROUP 0 A     ****
@<TRIPOS>MOLECULE
[[[3,4-dihydroxy-5-(6-imino-7,8-dihydro-1~{H}-purin-8-ylium-9-yl)tetrahydrofuran-2-yl]methoxy-oxido-phosphoryl]oxy-oxido-phosphoryl] hydrogen phosphate
   45    47     1     0     0
SMALL
USER_CHARGES

@<TRIPOS>ATOM
      1 PG          8.4384    1.7715   -2.4425 P.3       1 ATP         1.5631
      2 O1G         9.6009    0.8918   -2.8452 O.co2     1 ATP        -0.8806
      3 O2G         8.4507    2.5234   -1.1302 O.co2     1 ATP        -0.8806
      4 O3G         8.1517    2.8358   -3.6471 O.3       1 ATP        -0.8165
      5 PB          6.4546    0.0417   -3.7901 P.3       1 ATP         1.6877
      6 O1B         6.0836    0.9930   -4.9059 O.co2     1 ATP        -0.8727
      7 O2B         7.3593   -1.1442   -4.0402 O.co2     1 ATP        -0.8727
      8 O3B         7.0579    0.9067   -2.5438 O.3       1 ATP        -0.8330
      9 PA          3.8940   -1.4358   -3.6657 P.3       1 ATP         1.6036
     10 O1A         4.4570   -2.8160   -3.9271 O.co2     1 ATP        -0.9062
     11 O2A         3.1753   -0.6739   -4.7578 O.co2     1 ATP        -0.9062
     12 O3A         5.0851   -0.4858   -3.0752 O.3       1 ATP        -0.8166
     13 O5'         2.9216   -1.4836   -2.3516 O.3       1 ATP        -0.5510
     14 C5'         2.2816   -0.2918   -1.9206 C.3       1 ATP         0.2099
     15 C4'         2.7248    0.0226   -0.4980 C.3       1 ATP         0.0598
     16 O4'         2.4697    1.4219   -0.2462 O.3       1 ATP        -0.3455
     17 C3'         1.9404   -0.7419    0.5596 C.3       1 ATP         0.0742
     18 O3'         2.7418   -0.8086    1.7389 O.3       1 ATP        -0.6025
     19 C2'         0.7477    0.1630    0.7858 C.3       1 ATP         0.1145
     20 O2'         0.1373   -0.0577    2.0407 O.3       1 ATP        -0.5835
     21 C1'         1.3733    1.5427    0.6747 C.3       1 ATP         0.3776
     22 N9          0.4520    2.5240    0.1767 N.pl3     1 ATP        -0.4429
     23 C8          0.2216    2.8192   -1.0985 C.ar      1 ATP         0.2964
     24 N7         -0.6906    3.7763   -1.2384 N.pl3     1 ATP        -0.4957
     25 C5         -1.0575    4.1037    0.0366 C.ar      1 ATP        -0.1346
     26 C6         -2.0291    5.0943    0.5330 C.ar      1 ATP         0.7213
     27 N6         -2.7093    5.8371   -0.2800 N.2       1 ATP        -0.8215
     28 N1         -2.1051    5.1136    1.9204 N.pl3     1 ATP        -0.8455
     29 C2         -1.3354    4.2774    2.7129 C.ar      1 ATP         0.6477
     30 N3         -0.4707    3.3945    2.2944 N.2       1 ATP        -0.5707
     31 C4         -0.3734    3.3525    0.9220 C.ar      1 ATP         0.2637
     32 HOG3        7.4211    3.4809   -3.5361 H         1 ATP         0.4378
     33 H5'1        2.5589    0.5217   -2.5976 H         1 ATP         0.0340
     34 H5'2        1.1982   -0.4388   -1.9617 H         1 ATP         0.0340
     35 H4'         3.8044   -0.1397   -0.4040 H         1 ATP         0.0910
     36 H3'         1.6764   -1.7639    0.2728 H         1 ATP         0.0656
     37 HO3'        3.5554   -1.2733    1.4914 H         1 ATP         0.4386
     38 H2'        -0.0011    0.0027    0.0003 H         1 ATP         0.0788
     39 HO2'        0.8082    0.1199    2.7232 H         1 ATP         0.4363
     40 H1'         1.7826    1.9024    1.6451 H         1 ATP         0.1225
     41 H8          0.7125    2.3429   -1.9292 H         1 ATP         0.3824
     42 HN62       -3.3217    6.4517    0.2629 H         1 ATP         0.4018
     43 H2         -1.5188    4.4223    3.7890 H         1 ATP         0.0652
     44 H44        -2.7470    5.7626    2.3665 H         1 ATP         0.4503
     45 H45        -1.0305    4.1680   -2.1054 H         1 ATP         0.5209
@<TRIPOS>BOND
     1    1    2 2
     2    1    3 1
     3    1    4 1
     4    1    8 1
     5    4   32 1
     6    5    6 2
     7    5    7 1
     8    5    8 1
     9    5   12 1
    10    9   10 2
    11    9   11 1
    12    9   12 1
    13    9   13 1
    14   13   14 1
    15   14   15 1
    16   14   33 1
    17   14   34 1
    18   15   16 1
    19   15   17 1
    20   15   35 1
    21   16   21 1
    22   17   18 1
    23   17   19 1
    24   17   36 1
    25   18   37 1
    26   19   20 1
    27   19   21 1
    28   19   38 1
    29   20   39 1
    30   21   22 1
    31   21   40 1
    32   22   23 ar
    33   22   31 ar
    34   23   24 ar
    35   23   41 1
    36   24   25 ar
    37   24   45 1
    38   25   26 ar
    39   25   31 ar
    40   26   27 2
    41   26   28 ar
    42   27   42 1
    43   28   29 ar
    44   28   44 1
    45   29   30 ar
    46   29   43 1
    47   30   31 ar
@<TRIPOS>SUBSTRUCTURE
     1 ATP         1 GROUP 0 A     ****
@<TRIPOS>MOLECULE
[[[3,4-dihydroxy-5-(6-imino-7,8-dihydro-1~{H}-purin-8-ylium-9-yl)tetrahydrofuran-2-yl]methoxy-oxido-phosphoryl]oxy-oxido-phosphoryl] hydrogen phosphate
   45    47     1     0     0
SMALL
USER_CHARGES

@<TRIPOS>ATOM
      1 PG         -0.2662    1.6627   -6.1541 P.3       1 ATP         1.5631
      2 O1G         0.2035    2.4048   -7.3854 O.co2     1 ATP        -0.8806
      3 O2G         0.1743    2.0923   -4.7724 O.co2     1 ATP        -0.8806
      4 O3G        -1.8974    1.5944   -6.1804 O.3       1 ATP        -0.8165
      5 PB          1.4827   -0.7072   -6.4161 P.3       1 ATP         1.6877
      6 O1B         1.2241   -2.1973   -6.4227 O.co2     1 ATP        -0.8727
      7 O2B         2.3331   -0.0549   -7.4833 O.co2     1 ATP        -0.8727
      8 O3B         0.0502    0.0723   -6.3395 O.3       1 ATP        -0.8330
      9 PA          3.4844   -0.6652   -4.2374 P.3       1 ATP         1.6036
     10 O1A         4.6107   -0.0317   -5.0250 O.co2     1 ATP        -0.9062
     11 O2A         3.4852   -2.1497   -3.9439 O.co2     1 ATP        -0.9062
     12 O3A         2.0649   -0.2836   -4.9510 O.3       1 ATP        -0.8166
     13 O5'         3.2903    0.1346   -2.8241 O.3       1 ATP        -0.5510
     14 C5'         2.2816   -0.2918   -1.9206 C.3       1 ATP         0.2099
     15 C4'         2.7248    0.0226   -0.4980 C.3       1 ATP         0.0598
     16 O4'         2.4697    1.4219   -0.2462 O.3       1 ATP        -0.3455
     17 C3'         1.9404   -0.7419    0.5596 C.3       1 ATP         0.0742
     18 O3'         2.7418   -0.8086    1.7389 O.3       1 ATP        -0.6025
     19 C2'         0.7477    0.1630    0.7858 C.3       1 ATP         0.1145
     20 O2'         0.1373   -0.0577    2.0407 O.3       1 ATP        -0.5835
     21 C1'         1.3733    1.5427    0.6747 C.3       1 ATP         0.3776
     22 N9          0.4520    2.5240    0.1767 N.pl3     1 ATP        -0.4429
     23 C8         -0.8620    2.5492    0.3743 C.ar      1 ATP         0.2964
     24 N7         -1.4419    3.5886   -0.2183 N.pl3     1 ATP        -0.4957
     25 C5         -0.4215    4.2614   -0.8294 C.ar      1 ATP        -0.1346
     26 C6         -0.4310    5.4918   -1.6405 C.ar      1 ATP         0.7213
     27 N6         -1.5302    6.1308   -1.8826 N.2       1 ATP        -0.8215
     28 N1          0.8382    5.8461   -2.0817 N.pl3     1 ATP        -0.8455
     29 C2          1.9625    5.0982   -1.7709 C.ar      1 ATP         0.6477
     30 N3          1.9930    4.0077   -1.0554 N.2       1 ATP        -0.5707
     31 C4          0.7483    3.6314   -0.6038 C.ar      1 ATP         0.2637
     32 HOG3       -2.3576    1.1405   -5.4425 H         1 ATP         0.4378
     33 H5'1        1.3514    0.2330   -2.1577 H         1 ATP         0.0340
     34 H5'2        2.1280   -1.3678   -2.0460 H         1 ATP         0.0340
     35 H4'         3.8044   -0.1397   -0.4040 H         1 ATP         0.0910
     36 H3'         1.6764   -1.7639    0.2728 H         1 ATP         0.0656
     37 HO3'        2.2232   -1.2979    2.3953 H         1 ATP         0.4386
     38 H2'        -0.0011    0.0027    0.0003 H         1 ATP         0.0788
     39 HO2'       -0.1563   -0.9855    2.0596 H         1 ATP         0.4363
     40 H1'         1.7826    1.9024    1.6451 H         1 ATP         0.1225
     41 H8         -1.4030    1.8165    0.9473 H         1 ATP         0.3824
     42 HN62       -1.3197    6.9504   -2.4583 H         1 ATP         0.4018
     43 H2          2.8857    5.5186   -2.1994 H         1 ATP         0.0652
     44 H44         0.9433    6.6815   -2.6502 H         1 ATP         0.4503
     45 H45        -2.4254    3.8199   -0.2108 H         1 ATP         0.5209
@<TRIPOS>BOND
     1    1    2 2
     2    1    3 1
     3    1    4 1
     4    1    8 1
     5    4   32 1
     6    5    6 2
     7    5    7 1
     8    5    8 1
     9    5   12 1
    10    9   10 2
    11    9   11 1
    12    9   12 1
    13    9   13 1
    14   13   14 1
    15   14   15 1
    16   14   33 1
    17   14   34 1
    18   15   16 1
    19   15   17 1
    20   15   35 1
    21   16   21 1
    22   17   18 1
    23   17   19 1
    24   17   36 1
    25   18   37 1
    26   19   20 1
    27   19   21 1
    28   19   38 1
    29   20   39 1
    30   21   22 1
    31   21   40 1
    32   22   23 ar
    33   22   31 ar
    34   23   24 ar
    35   23   41 1
    36   24   25 ar
    37   24   45 1
    38   25   26 ar
    39   25   31 ar
    40   26   27 2
    41   26   28 ar
    42   27   42 1
    43   28   29 ar
    44   28   44 1
    45   29   30 ar
    46   29   43 1
    47   30   31 ar
@<TRIPOS>SUBSTRUCTURE
     1 ATP         1 GROUP 0 A     ****
@<TRIPOS>MOLECULE
[[[3,4-dihydroxy-5-(6-imino-7,8-dihydro-1~{H}-purin-8-ylium-9-yl)tetrahydrofuran-2-yl]methoxy-oxido-phosphoryl]oxy-oxido-phosphoryl] hydrogen phosphate
   45    47     1     0     0
SMALL
USER_CHARGES

@<TRIPOS>ATOM
      1 PG         -2.5322   -6.5434    7.7520 P.3       1 ATP         1.5631
      2 O1G        -3.9563   -6.0517    7.6195 O.co2     1 ATP        -0.8806
      3 O2G        -1.6596   -6.0966    8.9038 O.co2     1 ATP        -0.8806
      4 O3G        -2.5412   -8.1757    7.7114 O.3       1 ATP        -0.8165
      5 PB         -0.2456   -6.7247    5.8859 P.3       1 ATP         1.6877
      6 O1B         0.7707   -6.0037    6.7430 O.co2     1 ATP        -0.8727
      7 O2B        -0.2224   -8.2302    5.7426 O.co2     1 ATP        -0.8727
      8 O3B        -1.7420   -6.2663    6.3512 O.3       1 ATP        -0.8330
      9 PA         -1.2302   -6.3291    3.1238 P.3       1 ATP         1.6036
     10 O1A        -2.6254   -5.8657    3.4829 O.co2     1 ATP        -0.9062
     11 O2A        -0.9870   -7.7372    2.6259 O.co2     1 ATP        -0.9062
     12 O3A        -0.2423   -6.0566    4.3965 O.3       1 ATP        -0.8166
     13 O5'        -0.5687   -5.2869    2.0510 O.3       1 ATP        -0.5510
     14 C5'        -0.7840   -3.8935    2.2172 C.3       1 ATP         0.2099
     15 C4'        -0.0724   -3.1466    1.1027 C.3       1 ATP         0.0598
     16 O4'        -0.8674   -3.1929   -0.0945 O.3       1 ATP        -0.3455
     17 C3'         0.1338   -1.6715    1.4027 C.3       1 ATP         0.0742
     18 O3'         1.2893   -1.4445    2.1808 O.3       1 ATP        -0.6025
     19 C2'         0.2158   -1.0724    0.0128 C.3       1 ATP         0.1145
     20 O2'         1.5141   -1.2448   -0.5513 O.3       1 ATP        -0.5835
     21 C1'        -0.7897   -1.9176   -0.7583 C.3       1 ATP         0.3776
     22 N9         -2.1040   -1.3333   -0.7704 N.pl3     1 ATP        -0.4429
     23 C8         -3.0590   -1.5123    0.1363 C.ar      1 ATP         0.2964
     24 N7         -4.1655   -0.8354   -0.1554 N.pl3     1 ATP        -0.4957
     25 C5         -3.8852   -0.1874   -1.3253 C.ar      1 ATP        -0.1346
     26 C6         -4.7113    0.7160   -2.1458 C.ar      1 ATP         0.7213
     27 N6         -5.9213    1.0209   -1.8021 N.2       1 ATP        -0.8215
     28 N1         -4.0411    1.1673   -3.2764 N.pl3     1 ATP        -0.8455
     29 C2         -2.7403    0.7865   -3.5638 C.ar      1 ATP         0.6477
     30 N3         -1.9921   -0.0108   -2.8519 N.2       1 ATP        -0.5707
     31 C4         -2.6302   -0.4747   -1.7239 C.ar      1 ATP         0.2637
     32 HOG3       -1.6855   -8.6493    7.7867 H         1 ATP         0.4378
     33 H5'1       -1.8598   -3.6968    2.1850 H         1 ATP         0.0340
     34 H5'2       -0.3933   -3.5903    3.1931 H         1 ATP         0.0340
     35 H4'         0.8874   -3.6466    0.8805 H         1 ATP         0.0910
     36 H3'        -0.7376   -1.2333    1.9867 H         1 ATP         0.0656
     37 HO3'        1.3408   -0.4870    2.3219 H         1 ATP         0.4386
     38 H2'        -0.0384   -0.0310    0.0096 H         1 ATP         0.0788
     39 HO2'        1.4998   -0.8412   -1.4369 H         1 ATP         0.4363
     40 H1'        -0.4769   -2.1002   -1.8093 H         1 ATP         0.1225
     41 H8         -2.9569   -2.1323    1.0098 H         1 ATP         0.3824
     42 HN62       -6.3169    1.6552   -2.5012 H         1 ATP         0.4018
     43 H2         -2.3612    1.2343   -4.4957 H         1 ATP         0.0652
     44 H44        -4.5223    1.7976   -3.9117 H         1 ATP         0.4503
     45 H45        -5.0218   -0.8132    0.3804 H         1 ATP         0.5209
@<TRIPOS>BOND
     1    1    2 2
     2    1    3 1
     3    1    4 1
     4    1    8 1
     5    4   32 1
     6    5    6 2
     7    5    7 1
     8    5    8 1
     9    5   12 1
    10    9   10 2
    11    9   11 1
    12    9   12 1
    13    9   13 1
    14   13   14 1
    15   14   15 1
    16   14   33 1
    17   14   34 1
    18   15   16 1
    19   15   17 1
    20   15   35 1
    21   16   21 1
    22   17   18 1
    23   17   19 1
    24   17   36 1
    25   18   37 1
    26   19   20 1
    27   19   21 1
    28   19   38 1
    29   20   39 1
    30   21   22 1
    31   21   40 1
    32   22   23 ar
    33   22   31 ar
    34   23   24 ar
    35   23   41 1
    36   24   25 ar
    37   24   45 1
    38   25   26 ar
    39   25   31 ar
    40   26   27 2
    41   26   28 ar
    42   27   42 1
    43   28   29 ar
    44   28   44 1
    45   29   30 ar
    46   29   43 1
    47   30   31 ar
@<TRIPOS>SUBSTRUCTURE
     1 ATP         1 GROUP 0 A     ****
@<TRIPOS>MOLECULE
[[[3,4-dihydroxy-5-(6-imino-7,8-dihydro-1~{H}-purin-8-ylium-9-yl)tetrahydrofuran-2-yl]methoxy-oxido-phosphoryl]oxy-oxido-phosphoryl] hydrogen phosphate
   45    47     1     0     0
SMALL
USER_CHARGES

@<TRIPOS>ATOM
      1 PG         -0.4525   -1.6908    7.0413 P.3       1 ATP         1.5631
      2 O1G        -1.3697   -0.7731    7.8185 O.co2     1 ATP        -0.8806
      3 O2G        -0.0831   -1.3874    5.6063 O.co2     1 ATP        -0.8806
      4 O3G         0.9221   -1.8972    7.8979 O.3       1 ATP        -0.8165
      5 PB         -2.3976   -3.8533    6.5084 P.3       1 ATP         1.6877
      6 O1B        -2.3786   -5.3494    6.7289 O.co2     1 ATP        -0.8727
      7 O2B        -3.5710   -3.0104    6.9558 O.co2     1 ATP        -0.8727
      8 O3B        -1.0284   -3.2155    7.1282 O.3       1 ATP        -0.8330
      9 PA         -3.0195   -3.8900    3.6158 P.3       1 ATP         1.6036
     10 O1A        -4.2922   -3.0740    3.6837 O.co2     1 ATP        -0.9062
     11 O2A        -3.0722   -5.3927    3.4462 O.co2     1 ATP        -0.9062
     12 O3A        -2.1088   -3.5532    4.9300 O.3       1 ATP        -0.8166
     13 O5'        -2.0415   -3.2792    2.4560 O.3       1 ATP        -0.5510
     14 C5'        -0.7840   -3.8935    2.2172 C.3       1 ATP         0.2099
     15 C4'        -0.0724   -3.1466    1.1027 C.3       1 ATP         0.0598
     16 O4'        -0.8674   -3.1929   -0.0945 O.3       1 ATP        -0.3455
     17 C3'         0.1338   -1.6715    1.4027 C.3       1 ATP         0.0742
     18 O3'         1.2893   -1.4445    2.1808 O.3       1 ATP        -0.6025
     19 C2'         0.2158   -1.0724    0.0128 C.3       1 ATP         0.1145
     20 O2'         1.5141   -1.2448   -0.5513 O.3       1 ATP        -0.5835
     21 C1'        -0.7897   -1.9176   -0.7583 C.3       1 ATP         0.3776
     22 N9         -2.1040   -1.3333   -0.7704 N.pl3     1 ATP        -0.4429
     23 C8         -3.2114   -1.8635   -0.2619 C.ar      1 ATP         0.2964
     24 N7         -4.2711   -1.0786   -0.4314 N.pl3     1 ATP        -0.4957
     25 C5         -3.7955    0.0193   -1.0917 C.ar      1 ATP        -0.1346
     26 C6         -4.4862    1.2344   -1.5586 C.ar      1 ATP         0.7213
     27 N6         -5.7554    1.4030   -1.3689 N.2       1 ATP        -0.8215
     28 N1         -3.6267    2.1218   -2.1949 N.pl3     1 ATP        -0.8455
     29 C2         -2.2761    1.8558   -2.3521 C.ar      1 ATP         0.6477
     30 N3         -1.6453    0.7881   -1.9466 N.2       1 ATP        -0.5707
     31 C4         -2.4722   -0.1108   -1.3117 C.ar      1 ATP         0.2637
     32 HOG3        1.6236   -2.4717    7.5237 H         1 ATP         0.4378
     33 H5'1       -0.1949   -3.8603    3.1385 H         1 ATP         0.0340
     34 H5'2       -0.9496   -4.9375    1.9351 H         1 ATP         0.0340
     35 H4'         0.8874   -3.6466    0.8805 H         1 ATP         0.0910
     36 H3'        -0.7376   -1.2333    1.9867 H         1 ATP         0.0656
     37 HO3'        1.3408   -0.4870    2.3219 H         1 ATP         0.4386
     38 H2'        -0.0384   -0.0310    0.0096 H         1 ATP         0.0788
     39 HO2'        2.1463   -0.7958    0.0370 H         1 ATP         0.4363
     40 H1'        -0.4769   -2.1002   -1.8093 H         1 ATP         0.1225
     41 H8         -3.2547   -2.8183    0.2325 H         1 ATP         0.3824
     42 HN62       -6.0352    2.3041   -1.7656 H         1 ATP         0.4018
     43 H2         -1.7412    2.6624   -2.8773 H         1 ATP         0.0652
     44 H44        -4.0029    2.9939   -2.5557 H         1 ATP         0.4503
     45 H45        -5.2179   -1.2649   -0.1322 H         1 ATP         0.5209
@<TRIPOS>BOND
     1    1    2 2
     2    1    3 1
     3    1    4 1
     4    1    8 1
     5    4   32 1
     6    5    6 2
     7    5    7 1
     8    5    8 1
     9    5   12 1
    10    9   10 2
    11    9   11 1
    12    9   12 1
    13    9   13 1
    14   13   14 1
    15   14   15 1
    16   14   33 1
    17   14   34 1
    18   15   16 1
    19   15   17 1
    20   15   35 1
    21   16   21 1
    22   17   18 1
    23   17   19 1
    24   17   36 1
    25   18   37 1
    26   19   20 1
    27   19   21 1
    28   19   38 1
    29   20   39 1
    30   21   22 1
    31   21   40 1
    32   22   23 ar
    33   22   31 ar
    34   23   24 ar
    35   23   41 1
    36   24   25 ar
    37   24   45 1
    38   25   26 ar
    39   25   31 ar
    40   26   27 2
    41   26   28 ar
    42   27   42 1
    43   28   29 ar
    44   28   44 1
    45   29   30 ar
    46   29   43 1
    47   30   31 ar
@<TRIPOS>SUBSTRUCTURE
     1 ATP         1 GROUP 0 A     ****
@<TRIPOS>MOLECULE
[[[3,4-dihydroxy-5-(6-imino-7,8-dihydro-1~{H}-purin-8-ylium-9-yl)tetrahydrofuran-2-yl]methoxy-oxido-phosphoryl]oxy-oxido-phosphoryl] hydrogen phosphate
   45    47     1     0     0
SMALL
USER_CHARGES

@<TRIPOS>ATOM
      1 PG         -3.4715   -3.3838   -0.7279 P.3       1 ATP         1.5631
      2 O1G        -4.4660   -2.8615   -1.7406 O.co2     1 ATP        -0.8806
      3 O2G        -3.6094   -3.0494    0.7408 O.co2     1 ATP        -0.8806
      4 O3G        -3.3765   -5.0063   -0.8835 O.3       1 ATP        -0.8165
      5 PB         -1.2231   -3.2846   -2.6458 P.3       1 ATP         1.6877
      6 O1B        -1.0254   -4.7760   -2.8008 O.co2     1 ATP        -0.8727
      7 O2B        -1.9104   -2.4698   -3.7188 O.co2     1 ATP        -0.8727
      8 O3B        -1.9629   -3.0003   -1.2183 O.3       1 ATP        -0.8330
      9 PA          1.5544   -2.4558   -3.2404 P.3       1 ATP         1.6036
     10 O1A         1.2372   -1.5514   -4.4116 O.co2     1 ATP        -0.9062
     11 O2A         2.1275   -3.8383   -3.4637 O.co2     1 ATP        -0.9062
     12 O3A         0.2190   -2.5976   -2.3096 O.3       1 ATP        -0.8166
     13 O5'         2.5245   -1.6648   -2.1878 O.3       1 ATP        -0.5510
     14 C5'         2.2816   -0.2918   -1.9206 C.3       1 ATP         0.2099
     15 C4'         2.7248    0.0226   -0.4980 C.3       1 ATP         0.0598
     16 O4'         2.4697    1.4219   -0.2462 O.3       1 ATP        -0.3455
     17 C3'         1.9404   -0.7419    0.5596 C.3       1 ATP         0.0742
     18 O3'         2.7418   -0.8086    1.7389 O.3       1 ATP        -0.6025
     19 C2'         0.7477    0.1630    0.7858 C.3       1 ATP         0.1145
     20 O2'         0.1373   -0.0577    2.0407 O.3       1 ATP        -0.5835
     21 C1'         1.3733    1.5427    0.6747 C.3       1 ATP         0.3776
     22 N9          0.4520    2.5240    0.1767 N.pl3     1 ATP        -0.4429
     23 C8         -0.8620    2.5492    0.3743 C.ar      1 ATP         0.2964
     24 N7         -1.4419    3.5886   -0.2183 N.pl3     1 ATP        -0.4957
     25 C5         -0.4215    4.2614   -0.8294 C.ar      1 ATP        -0.1346
     26 C6         -0.4310    5.4918   -1.6405 C.ar      1 ATP         0.7213
     27 N6         -1.5302    6.1308   -1.8826 N.2       1 ATP        -0.8215
     28 N1          0.8382    5.8461   -2.0817 N.pl3     1 ATP        -0.8455
     29 C2          1.9625    5.0982   -1.7709 C.ar      1 ATP         0.6477
     30 N3          1.9930    4.0077   -1.0554 N.2       1 ATP        -0.5707
     31 C4          0.7483    3.6314   -0.6038 C.ar      1 ATP         0.2637
     32 HOG3       -2.7679   -5.4973   -0.2912 H         1 ATP         0.4378
     33 H5'1        2.8432    0.3119   -2.6398 H         1 ATP         0.0340
     34 H5'2        1.2128   -0.0927   -2.0428 H         1 ATP         0.0340
     35 H4'         3.8044   -0.1397   -0.4040 H         1 ATP         0.0910
     36 H3'         1.6764   -1.7639    0.2728 H         1 ATP         0.0656
     37 HO3'        2.2232   -1.2979    2.3953 H         1 ATP         0.4386
     38 H2'        -0.0011    0.0027    0.0003 H         1 ATP         0.0788
     39 HO2'       -0.1563   -0.9855    2.0596 H         1 ATP         0.4363
     40 H1'         1.7826    1.9024    1.6451 H         1 ATP         0.1225
     41 H8         -1.4030    1.8165    0.9473 H         1 ATP         0.3824
     42 HN62       -1.3197    6.9504   -2.4583 H         1 ATP         0.4018
     43 H2          2.8857    5.5186   -2.1994 H         1 ATP         0.0652
     44 H44         0.9433    6.6815   -2.6502 H         1 ATP         0.4503
     45 H45        -2.4254    3.8199   -0.2108 H         1 ATP         0.5209
@<TRIPOS>BOND
     1    1    2 2
     2    1    3 1
     3    1    4 1
     4    1    8 1
     5    4   32 1
     6    5    6 2
     7    5    7 1
     8    5    8 1
     9    5   12 1
    10    9   10 2
    11    9   11 1
    12    9   12 1
    13    9   13 1
    14   13   14 1
    15   14   15 1
    16   14   33 1
    17   14   34 1
    18   15   16 1
    19   15   17 1
    20   15   35 1
    21   16   21 1
    22   17   18 1
    23   17   19 1
    24   17   36 1
    25   18   37 1
    26   19   20 1
    27   19   21 1
    28   19   38 1
    29   20   39 1
    30   21   22 1
    31   21   40 1
    32   22   23 ar
    33   22   31 ar
    34   23   24 ar
    35   23   41 1
    36   24   25 ar
    37   24   45 1
    38   25   26 ar
    39   25   31 ar
    40   26   27 2
    41   26   28 ar
    42   27   42 1
    43   28   29 ar
    44   28   44 1
    45   29   30 ar
    46   29   43 1
    47   30   31 ar
@<TRIPOS>SUBSTRUCTURE
     1 ATP         1 GROUP 0 A     ****
@<TRIPOS>MOLECULE
[[[3,4-dihydroxy-5-(6-imino-7,8-dihydro-1~{H}-purin-8-ylium-9-yl)tetrahydrofuran-2-yl]methoxy-oxido-phosphoryl]oxy-oxido-phosphoryl] hydrogen phosphate
   45    47     1     0     0
SMALL
USER_CHARGES

@<TRIPOS>ATOM
      1 PG          3.1668   -5.3063   -5.7082 P.3       1 ATP         1.5631
      2 O1G         4.3186   -5.3833   -6.6854 O.co2     1 ATP        -0.8806
      3 O2G         1.7940   -5.8189   -6.0828 O.co2     1 ATP        -0.8806
      4 O3G         3.6230   -6.0188   -4.3117 O.3       1 ATP        -0.8165
      5 PB          2.6034   -2.4155   -5.9711 P.3       1 ATP         1.6877
      6 O1B         3.6800   -2.0922   -6.9830 O.co2     1 ATP        -0.8727
      7 O2B         1.1521   -2.5303   -6.3811 O.co2     1 ATP        -0.8727
      8 O3B         3.0296   -3.7720   -5.1688 O.3       1 ATP        -0.8330
      9 PA          4.0010   -0.9663   -3.8028 P.3       1 ATP         1.6036
     10 O1A         5.0351   -0.2791   -4.6680 O.co2     1 ATP        -0.9062
     11 O2A         4.3698   -2.1728   -2.9673 O.co2     1 ATP        -0.9062
     12 O3A         2.7156   -1.3587   -4.7320 O.3       1 ATP        -0.8166
     13 O5'         3.2903    0.1346   -2.8241 O.3       1 ATP        -0.5510
     14 C5'         2.2816   -0.2918   -1.9206 C.3       1 ATP         0.2099
     15 C4'         2.7248    0.0226   -0.4980 C.3       1 ATP         0.0598
     16 O4'         2.4697    1.4219   -0.2462 O.3       1 ATP        -0.3455
     17 C3'         1.9404   -0.7419    0.5596 C.3       1 ATP         0.0742
     18 O3'         2.7418   -0.8086    1.7389 O.3       1 ATP        -0.6025
     19 C2'         0.7477    0.1630    0.7858 C.3       1 ATP         0.1145
     20 O2'         0.1373   -0.0577    2.0407 O.3       1 ATP        -0.5835
     21 C1'         1.3733    1.5427    0.6747 C.3       1 ATP         0.3776
     22 N9          0.4520    2.5240    0.1767 N.pl3     1 ATP        -0.4429
     23 C8          0.5691    3.2215   -0.9485 C.ar      1 ATP         0.2964
     24 N7         -0.4499    4.0551   -1.1342 N.pl3     1 ATP        -0.4957
     25 C5         -1.2618    3.8674   -0.0512 C.ar      1 ATP        -0.1346
     26 C6         -2.5420    4.5007    0.3120 C.ar      1 ATP         0.7213
     27 N6         -3.0874    5.3993   -0.4432 N.2       1 ATP        -0.8215
     28 N1         -3.0494    4.0205    1.5133 N.pl3     1 ATP        -0.8455
     29 C2         -2.3933    3.0527    2.2567 C.ar      1 ATP         0.6477
     30 N3         -1.2611    2.4796    1.9536 N.2       1 ATP        -0.5707
     31 C4         -0.7334    2.9358    0.7669 C.ar      1 ATP         0.2637
     32 HOG3        2.9798   -6.0501   -3.5717 H         1 ATP         0.4378
     33 H5'1        1.3514    0.2330   -2.1577 H         1 ATP         0.0340
     34 H5'2        2.1280   -1.3678   -2.0460 H         1 ATP         0.0340
     35 H4'         3.8044   -0.1397   -0.4040 H         1 ATP         0.0910
     36 H3'         1.6764   -1.7639    0.2728 H         1 ATP         0.0656
     37 HO3'        3.5554   -1.2733    1.4914 H         1 ATP         0.4386
     38 H2'        -0.0011    0.0027    0.0003 H         1 ATP         0.0788
     39 HO2'       -0.1563   -0.9855    2.0596 H         1 ATP         0.4363
     40 H1'         1.7826    1.9024    1.6451 H         1 ATP         0.1225
     41 H8          1.3912    3.1285   -1.6365 H         1 ATP         0.3824
     42 HN62       -3.9637    5.7083   -0.0142 H         1 ATP         0.4018
     43 H2         -2.9317    2.7866    3.1796 H         1 ATP         0.0652
     44 H44        -3.9307    4.3923    1.8558 H         1 ATP         0.4503
     45 H45        -0.5835    4.6857   -1.9122 H         1 ATP         0.5209
@<TRIPOS>BOND
     1    1    2 2
     2    1    3 1
     3    1    4 1
     4    1    8 1
     5    4   32 1
     6    5    6 2
     7    5    7 1
     8    5    8 1
     9    5   12 1
    10    9   10 2
    11    9   11 1
    12    9   12 1
    13    9   13 1
    14   13   14 1
    15   14   15 1
    16   14   33 1
    17   14   34 1
    18   15   16 1
    19   15   17 1
    20   15   35 1
    21   16   21 1
    22   17   18 1
    23   17   19 1
    24   17   36 1
    25   18   37 1
    26   19   20 1
    27   19   21 1
    28   19   38 1
    29   20   39 1
    30   21   22 1
    31   21   40 1
    32   22   23 ar
    33   22   31 ar
    34   23   24 ar
    35   23   41 1
    36   24   25 ar
    37   24   45 1
    38   25   26 ar
    39   25   31 ar
    40   26   27 2
    41   26   28 ar
    42   27   42 1
    43   28   29 ar
    44   28   44 1
    45   29   30 ar
    46   29   43 1
    47   30   31 ar
@<TRIPOS>SUBSTRUCTURE
     1 ATP         1 GROUP 0 A     ****
@<TRIPOS>MOLECULE
[[[3,4-dihydroxy-5-(6-imino-7,8-dihydro-1~{H}-purin-8-ylium-9-yl)tetrahydrofuran-2-yl]methoxy-oxido-phosphoryl]oxy-oxido-phosphoryl] hydrogen phosphate
   45    47     1     0     0
SMALL
USER_CHARGES

@<TRIPOS>ATOM
      1 PG          5.0159   -4.5154   -6.2527 P.3       1 ATP         1.5631
      2 O1G         3.8772   -5.1671   -7.0052 O.co2     1 ATP        -0.8806
      3 O2G         5.8667   -5.3116   -5.2883 O.co2     1 ATP        -0.8806
      4 O3G         6.0003   -3.7858   -7.3318 O.3       1 ATP        -0.8165
      5 PB          3.6265   -1.9107   -6.0843 P.3       1 ATP         1.6877
      6 O1B         4.5269   -1.1415   -7.0250 O.co2     1 ATP        -0.8727
      7 O2B         2.2583   -2.3844   -6.5218 O.co2     1 ATP        -0.8727
      8 O3B         4.4564   -3.1851   -5.4905 O.3       1 ATP        -0.8330
      9 PA          2.7407    0.3769   -4.4297 P.3       1 ATP         1.6036
     10 O1A         1.2546    0.2227   -4.6707 O.co2     1 ATP        -0.9062
     11 O2A         3.5325    1.4517   -5.1421 O.co2     1 ATP        -0.9062
     12 O3A         3.4685   -1.0610   -4.6995 O.3       1 ATP        -0.8166
     13 O5'         3.0213    0.5153   -2.8245 O.3       1 ATP        -0.5510
     14 C5'         2.2816   -0.2918   -1.9206 C.3       1 ATP         0.2099
     15 C4'         2.7248    0.0226   -0.4980 C.3       1 ATP         0.0598
     16 O4'         2.4697    1.4219   -0.2462 O.3       1 ATP        -0.3455
     17 C3'         1.9404   -0.7419    0.5596 C.3       1 ATP         0.0742
     18 O3'         2.7418   -0.8086    1.7389 O.3       1 ATP        -0.6025
     19 C2'         0.7477    0.1630    0.7858 C.3       1 ATP         0.1145
     20 O2'         0.1373   -0.0577    2.0407 O.3       1 ATP        -0.5835
     21 C1'         1.3733    1.5427    0.6747 C.3       1 ATP         0.3776
     22 N9          0.4520    2.5240    0.1767 N.pl3     1 ATP        -0.4429
     23 C8         -0.6821    2.9098    0.7521 C.ar      1 ATP         0.2964
     24 N7         -1.3175    3.8384    0.0437 N.pl3     1 ATP        -0.4957
     25 C5         -0.5274    4.0494   -1.0512 C.ar      1 ATP        -0.1346
     26 C6         -0.6966    4.9597   -2.1977 C.ar      1 ATP         0.7213
     27 N6         -1.7259    5.7385   -2.2937 N.2       1 ATP        -0.8215
     28 N1          0.3493    4.8663   -3.1079 N.pl3     1 ATP        -0.8455
     29 C2          1.4148    4.0005   -2.9208 C.ar      1 ATP         0.6477
     30 N3          1.5838    3.1876   -1.9144 N.2       1 ATP        -0.5707
     31 C4          0.5619    3.2578   -0.9949 C.ar      1 ATP         0.2637
     32 HOG3        6.7926   -3.3143   -6.9967 H         1 ATP         0.4378
     33 H5'1        1.2163   -0.0770   -2.0471 H         1 ATP         0.0340
     34 H5'2        2.4655   -1.3443   -2.1563 H         1 ATP         0.0340
     35 H4'         3.8044   -0.1397   -0.4040 H         1 ATP         0.0910
     36 H3'         1.6764   -1.7639    0.2728 H         1 ATP         0.0656
     37 HO3'        3.5554   -1.2733    1.4914 H         1 ATP         0.4386
     38 H2'        -0.0011    0.0027    0.0003 H         1 ATP         0.0788
     39 HO2'        0.8082    0.1199    2.7232 H         1 ATP         0.4363
     40 H1'         1.7826    1.9024    1.6451 H         1 ATP         0.1225
     41 H8         -1.0516    2.5207    1.6849 H         1 ATP         0.3824
     42 HN62       -1.6520    6.2842   -3.1564 H         1 ATP         0.4018
     43 H2          2.1542    4.0525   -3.7351 H         1 ATP         0.0652
     44 H44         0.3306    5.4533   -3.9370 H         1 ATP         0.4503
     45 H45        -2.1941    4.2838    0.2756 H         1 ATP         0.5209
@<TRIPOS>BOND
     1    1    2 2
     2    1    3 1
     3    1    4 1
     4    1    8 1
     5    4   32 1
     6    5    6 2
     7    5    7 1
     8    5    8 1
     9    5   12 1
    10    9   10 2
    11    9   11 1
    12    9   12 1
    13    9   13 1
    14   13   14 1
    15   14   15 1
    16   14   33 1
    17   14   34 1
    18   15   16 1
    19   15   17 1
    20   15   35 1
    21   16   21 1
    22   17   18 1
    23   17   19 1
    24   17   36 1
    25   18   37 1
    26   19   20 1
    27   19   21 1
    28   19   38 1
    29   20   39 1
    30   21   22 1
    31   21   40 1
    32   22   23 ar
    33   22   31 ar
    34   23   24 ar
    35   23   41 1
    36   24   25 ar
    37   24   45 1
    38   25   26 ar
    39   25   31 ar
    40   26   27 2
    41   26   28 ar
    42   27   42 1
    43   28   29 ar
    44   28   44 1
    45   29   30 ar
    46   29   43 1
    47   30   31 ar
@<TRIPOS>SUBSTRUCTURE
     1 ATP         1 GROUP 0 A     ****
@<TRIPOS>MOLECULE
[[[3,4-dihydroxy-5-(6-imino-7,8-dihydro-1~{H}-purin-8-ylium-9-yl)tetrahydrofuran-2-yl]methoxy-oxido-phosphoryl]oxy-oxido-phosphoryl] hydrogen phosphate
   45    47     1     0     0
SMALL
USER_CHARGES

@<TRIPOS>ATOM
      1 PG         -1.5464   -6.1343   -3.3657 P.3       1 ATP         1.5631
      2 O1G        -2.1256   -5.9349   -4.7485 O.co2     1 ATP        -0.8806
      3 O2G        -2.4272   -6.5414   -2.2054 O.co2     1 ATP        -0.8806
      4 O3G        -0.3057   -7.1905   -3.4703 O.3       1 ATP        -0.8165
      5 PB         -1.2231   -3.2846   -2.6458 P.3       1 ATP         1.6877
      6 O1B        -1.7550   -2.6910   -3.9312 O.co2     1 ATP        -0.8727
      7 O2B        -2.0589   -3.2999   -1.3853 O.co2     1 ATP        -0.8727
      8 O3B        -0.7016   -4.8022   -2.9465 O.3       1 ATP        -0.8330
      9 PA          1.5544   -2.4558   -3.2404 P.3       1 ATP         1.6036
     10 O1A         1.2372   -1.5514   -4.4116 O.co2     1 ATP        -0.9062
     11 O2A         2.1275   -3.8383   -3.4637 O.co2     1 ATP        -0.9062
     12 O3A         0.2190   -2.5976   -2.3096 O.3       1 ATP        -0.8166
     13 O5'         2.5245   -1.6648   -2.1878 O.3       1 ATP        -0.5510
     14 C5'         2.2816   -0.2918   -1.9206 C.3       1 ATP         0.2099
     15 C4'         2.7248    0.0226   -0.4980 C.3       1 ATP         0.0598
     16 O4'         2.4697    1.4219   -0.2462 O.3       1 ATP        -0.3455
     17 C3'         1.9404   -0.7419    0.5596 C.3       1 ATP         0.0742
     18 O3'         2.7418   -0.8086    1.7389 O.3       1 ATP        -0.6025
     19 C2'         0.7477    0.1630    0.7858 C.3       1 ATP         0.1145
     20 O2'         0.1373   -0.0577    2.0407 O.3       1 ATP        -0.5835
     21 C1'         1.3733    1.5427    0.6747 C.3       1 ATP         0.3776
     22 N9          0.4520    2.5240    0.1767 N.pl3     1 ATP        -0.4429
     23 C8         -0.8620    2.5492    0.3743 C.ar      1 ATP         0.2964
     24 N7         -1.4419    3.5886   -0.2183 N.pl3     1 ATP        -0.4957
     25 C5         -0.4215    4.2614   -0.8294 C.ar      1 ATP        -0.1346
     26 C6         -0.4310    5.4918   -1.6405 C.ar      1 ATP         0.7213
     27 N6         -1.5302    6.1308   -1.8826 N.2       1 ATP        -0.8215
     28 N1          0.8382    5.8461   -2.0817 N.pl3     1 ATP        -0.8455
     29 C2          1.9625    5.0982   -1.7709 C.ar      1 ATP         0.6477
     30 N3          1.9930    4.0077   -1.0554 N.2       1 ATP        -0.5707
     31 C4          0.7483    3.6314   -0.6038 C.ar      1 ATP         0.2637
     32 HOG3        0.1778   -7.4255   -2.6498 H         1 ATP         0.4378
     33 H5'1        2.8432    0.3119   -2.6398 H         1 ATP         0.0340
     34 H5'2        1.2128   -0.0927   -2.0428 H         1 ATP         0.0340
     35 H4'         3.8044   -0.1397   -0.4040 H         1 ATP         0.0910
     36 H3'         1.6764   -1.7639    0.2728 H         1 ATP         0.0656
     37 HO3'        2.2232   -1.2979    2.3953 H         1 ATP         0.4386
     38 H2'        -0.0011    0.0027    0.0003 H         1 ATP         0.0788
     39 HO2'       -0.1563   -0.9855    2.0596 H         1 ATP         0.4363
     40 H1'         1.7826    1.9024    1.6451 H         1 ATP         0.1225
     41 H8         -1.4030    1.8165    0.9473 H         1 ATP         0.3824
     42 HN62       -1.3197    6.9504   -2.4583 H         1 ATP         0.4018
     43 H2          2.8857    5.5186   -2.1994 H         1 ATP         0.0652
     44 H44         0.9433    6.6815   -2.6502 H         1 ATP         0.4503
     45 H45        -2.4254    3.8199   -0.2108 H         1 ATP         0.5209
@<TRIPOS>BOND
     1    1    2 2
     2    1    3 1
     3    1    4 1
     4    1    8 1
     5    4   32 1
     6    5    6 2
     7    5    7 1
     8    5    8 1
     9    5   12 1
    10    9   10 2
    11    9   11 1
    12    9   12 1
    13    9   13 1
    14   13   14 1
    15   14   15 1
    16   14   33 1
    17   14   34 1
    18   15   16 1
    19   15   17 1
    20   15   35 1
    21   16   21 1
    22   17   18 1
    23   17   19 1
    24   17   36 1
    25   18   37 1
    26   19   20 1
    27   19   21 1
    28   19   38 1
    29   20   39 1
    30   21   22 1
    31   21   40 1
    32   22   23 ar
    33   22   31 ar
    34   23   24 ar
    35   23   41 1
    36   24   25 ar
    37   24   45 1
    38   25   26 ar
    39   25   31 ar
    40   26   27 2
    41   26   28 ar
    42   27   42 1
    43   28   29 ar
    44   28   44 1
    45   29   30 ar
    46   29   43 1
    47   30   31 ar
@<TRIPOS>SUBSTRUCTURE
     1 ATP         1 GROUP 0 A     ****
@<TRIPOS>MOLECULE
[[[3,4-dihydroxy-5-(6-imino-7,8-dihydro-1~{H}-purin-8-ylium-9-yl)tetrahydrofuran-2-yl]methoxy-oxido-phosphoryl]oxy-oxido-phosphoryl] hydrogen phosphate
   45    47     1     0     0
SMALL
USER_CHARGES

@<TRIPOS>ATOM
      1 PG          8.3236   -2.8921   -4.6791 P.3       1 ATP         1.5631
      2 O1G         9.2566   -3.4169   -3.6107 O.co2     1 ATP        -0.8806
      3 O2G         8.8099   -1.9101   -5.7217 O.co2     1 ATP        -0.8806
      4 O3G         7.6421   -4.1642   -5.4430 O.3       1 ATP        -0.8165
      5 PB          5.9691   -2.9796   -2.8925 P.3       1 ATP         1.6877
      6 O1B         5.2389   -4.1130   -3.5778 O.co2     1 ATP        -0.8727
      7 O2B         6.7112   -3.1982   -1.5929 O.co2     1 ATP        -0.8727
      8 O3B         6.9860   -2.2873   -3.9659 O.3       1 ATP        -0.8330
      9 PA          4.0010   -0.9663   -3.8028 P.3       1 ATP         1.6036
     10 O1A         2.9573   -1.9364   -4.3125 O.co2     1 ATP        -0.9062
     11 O2A         4.9066   -0.2285   -4.7646 O.co2     1 ATP        -0.9062
     12 O3A         4.9353   -1.7307   -2.7016 O.3       1 ATP        -0.8166
     13 O5'         3.2903    0.1346   -2.8241 O.3       1 ATP        -0.5510
     14 C5'         2.2816   -0.2918   -1.9206 C.3       1 ATP         0.2099
     15 C4'         2.7248    0.0226   -0.4980 C.3       1 ATP         0.0598
     16 O4'         2.4697    1.4219   -0.2462 O.3       1 ATP        -0.3455
     17 C3'         1.9404   -0.7419    0.5596 C.3       1 ATP         0.0742
     18 O3'         2.7418   -0.8086    1.7389 O.3       1 ATP        -0.6025
     19 C2'         0.7477    0.1630    0.7858 C.3       1 ATP         0.1145
     20 O2'         0.1373   -0.0577    2.0407 O.3       1 ATP        -0.5835
     21 C1'         1.3733    1.5427    0.6747 C.3       1 ATP         0.3776
     22 N9          0.4520    2.5240    0.1767 N.pl3     1 ATP        -0.4429
     23 C8          0.2216    2.8192   -1.0985 C.ar      1 ATP         0.2964
     24 N7         -0.6906    3.7763   -1.2384 N.pl3     1 ATP        -0.4957
     25 C5         -1.0575    4.1037    0.0366 C.ar      1 ATP        -0.1346
     26 C6         -2.0291    5.0943    0.5330 C.ar      1 ATP         0.7213
     27 N6         -2.7093    5.8371   -0.2800 N.2       1 ATP        -0.8215
     28 N1         -2.1051    5.1136    1.9204 N.pl3     1 ATP        -0.8455
     29 C2         -1.3354    4.2774    2.7129 C.ar      1 ATP         0.6477
     30 N3         -0.4707    3.3945    2.2944 N.2       1 ATP        -0.5707
     31 C4         -0.3734    3.3525    0.9220 C.ar      1 ATP         0.2637
     32 HOG3        7.1060   -4.7934   -4.9148 H         1 ATP         0.4378
     33 H5'1        1.3514    0.2330   -2.1577 H         1 ATP         0.0340
     34 H5'2        2.1280   -1.3678   -2.0460 H         1 ATP         0.0340
     35 H4'         3.8044   -0.1397   -0.4040 H         1 ATP         0.0910
     36 H3'         1.6764   -1.7639    0.2728 H         1 ATP         0.0656
     37 HO3'        2.2232   -1.2979    2.3953 H         1 ATP         0.4386
     38 H2'        -0.0011    0.0027    0.0003 H         1 ATP         0.0788
     39 HO2'       -0.1563   -0.9855    2.0596 H         1 ATP         0.4363
     40 H1'         1.7826    1.9024    1.6451 H         1 ATP         0.1225
     41 H8          0.7125    2.3429   -1.9292 H         1 ATP         0.3824
     42 HN62       -3.3217    6.4517    0.2629 H         1 ATP         0.4018
     43 H2         -1.5188    4.4223    3.7890 H         1 ATP         0.0652
     44 H44        -2.7470    5.7626    2.3665 H         1 ATP         0.4503
     45 H45        -1.0305    4.1680   -2.1054 H         1 ATP         0.5209
@<TRIPOS>BOND
     1    1    2 2
     2    1    3 1
     3    1    4 1
     4    1    8 1
     5    4   32 1
     6    5    6 2
     7    5    7 1
     8    5    8 1
     9    5   12 1
    10    9   10 2
    11    9   11 1
    12    9   12 1
    13    9   13 1
    14   13   14 1
    15   14   15 1
    16   14   33 1
    17   14   34 1
    18   15   16 1
    19   15   17 1
    20   15   35 1
    21   16   21 1
    22   17   18 1
    23   17   19 1
    24   17   36 1
    25   18   37 1
    26   19   20 1
    27   19   21 1
    28   19   38 1
    29   20   39 1
    30   21   22 1
    31   21   40 1
    32   22   23 ar
    33   22   31 ar
    34   23   24 ar
    35   23   41 1
    36   24   25 ar
    37   24   45 1
    38   25   26 ar
    39   25   31 ar
    40   26   27 2
    41   26   28 ar
    42   27   42 1
    43   28   29 ar
    44   28   44 1
    45   29   30 ar
    46   29   43 1
    47   30   31 ar
@<TRIPOS>SUBSTRUCTURE
     1 ATP         1 GROUP 0 A     ****
@<TRIPOS>MOLECULE
[[[3,4-dihydroxy-5-(6-imino-7,8-dihydro-1~{H}-purin-8-ylium-9-yl)tetrahydrofuran-2-yl]methoxy-oxido-phosphoryl]oxy-oxido-phosphoryl] hydrogen phosphate
   45    47     1     0     0
SMALL
USER_CHARGES

@<TRIPOS>ATOM
      1 PG         -7.1392   -4.6292    3.4444 P.3       1 ATP         1.5631
      2 O1G        -7.9180   -5.8975    3.1754 O.co2     1 ATP        -0.8806
      3 O2G        -7.5589   -3.3136    2.8274 O.co2     1 ATP        -0.8806
      4 O3G        -7.0171   -4.4284    5.0602 O.3       1 ATP        -0.8165
      5 PB         -4.5615   -6.0640    3.6453 P.3       1 ATP         1.6877
      6 O1B        -4.3386   -5.8699    5.1286 O.co2     1 ATP        -0.8727
      7 O2B        -5.0269   -7.3917    3.0902 O.co2     1 ATP        -0.8727
      8 O3B        -5.5637   -4.8921    3.1089 O.3       1 ATP        -0.8330
      9 PA         -1.7207   -6.2770    2.8455 P.3       1 ATP         1.6036
     10 O1A        -1.8040   -7.6470    2.2080 O.co2     1 ATP        -0.9062
     11 O2A        -1.1163   -6.0995    4.2214 O.co2     1 ATP        -0.9062
     12 O3A        -3.2113   -5.6078    2.8492 O.3       1 ATP        -0.8166
     13 O5'        -0.9724   -5.2440    1.8220 O.3       1 ATP        -0.5510
     14 C5'        -0.7840   -3.8935    2.2172 C.3       1 ATP         0.2099
     15 C4'        -0.0724   -3.1466    1.1027 C.3       1 ATP         0.0598
     16 O4'        -0.8674   -3.1929   -0.0945 O.3       1 ATP        -0.3455
     17 C3'         0.1338   -1.6715    1.4027 C.3       1 ATP         0.0742
     18 O3'         1.2893   -1.4445    2.1808 O.3       1 ATP        -0.6025
     19 C2'         0.2158   -1.0724    0.0128 C.3       1 ATP         0.1145
     20 O2'         1.5141   -1.2448   -0.5513 O.3       1 ATP        -0.5835
     21 C1'        -0.7897   -1.9176   -0.7583 C.3       1 ATP         0.3776
     22 N9         -2.1040   -1.3333   -0.7704 N.pl3     1 ATP        -0.4429
     23 C8         -3.0590   -1.5123    0.1363 C.ar      1 ATP         0.2964
     24 N7         -4.1655   -0.8354   -0.1554 N.pl3     1 ATP        -0.4957
     25 C5         -3.8852   -0.1874   -1.3253 C.ar      1 ATP        -0.1346
     26 C6         -4.7113    0.7160   -2.1458 C.ar      1 ATP         0.7213
     27 N6         -5.9213    1.0209   -1.8021 N.2       1 ATP        -0.8215
     28 N1         -4.0411    1.1673   -3.2764 N.pl3     1 ATP        -0.8455
     29 C2         -2.7403    0.7865   -3.5638 C.ar      1 ATP         0.6477
     30 N3         -1.9921   -0.0108   -2.8519 N.2       1 ATP        -0.5707
     31 C4         -2.6302   -0.4747   -1.7239 C.ar      1 ATP         0.2637
     32 HOG3       -6.5690   -5.1257    5.5848 H         1 ATP         0.4378
     33 H5'1       -1.7618   -3.4448    2.4164 H         1 ATP         0.0340
     34 H5'2       -0.1874   -3.8744    3.1341 H         1 ATP         0.0340
     35 H4'         0.8874   -3.6466    0.8805 H         1 ATP         0.0910
     36 H3'        -0.7376   -1.2333    1.9867 H         1 ATP         0.0656
     37 HO3'        1.3408   -0.4870    2.3219 H         1 ATP         0.4386
     38 H2'        -0.0384   -0.0310    0.0096 H         1 ATP         0.0788
     39 HO2'        2.1463   -0.7958    0.0370 H         1 ATP         0.4363
     40 H1'        -0.4769   -2.1002   -1.8093 H         1 ATP         0.1225
     41 H8         -2.9569   -2.1323    1.0098 H         1 ATP         0.3824
     42 HN62       -6.3169    1.6552   -2.5012 H         1 ATP         0.4018
     43 H2         -2.3612    1.2343   -4.4957 H         1 ATP         0.0652
     44 H44        -4.5223    1.7976   -3.9117 H         1 ATP         0.4503
     45 H45        -5.0218   -0.8132    0.3804 H         1 ATP         0.5209
@<TRIPOS>BOND
     1    1    2 2
     2    1    3 1
     3    1    4 1
     4    1    8 1
     5    4   32 1
     6    5    6 2
     7    5    7 1
     8    5    8 1
     9    5   12 1
    10    9   10 2
    11    9   11 1
    12    9   12 1
    13    9   13 1
    14   13   14 1
    15   14   15 1
    16   14   33 1
    17   14   34 1
    18   15   16 1
    19   15   17 1
    20   15   35 1
    21   16   21 1
    22   17   18 1
    23   17   19 1
    24   17   36 1
    25   18   37 1
    26   19   20 1
    27   19   21 1
    28   19   38 1
    29   20   39 1
    30   21   22 1
    31   21   40 1
    32   22   23 ar
    33   22   31 ar
    34   23   24 ar
    35   23   41 1
    36   24   25 ar
    37   24   45 1
    38   25   26 ar
    39   25   31 ar
    40   26   27 2
    41   26   28 ar
    42   27   42 1
    43   28   29 ar
    44   28   44 1
    45   29   30 ar
    46   29   43 1
    47   30   31 ar
@<TRIPOS>SUBSTRUCTURE
     1 ATP         1 GROUP 0 A     ****
@<TRIPOS>MOLECULE
[[[3,4-dihydroxy-5-(6-imino-7,8-dihydro-1~{H}-purin-8-ylium-9-yl)tetrahydrofuran-2-yl]methoxy-oxido-phosphoryl]oxy-oxido-phosphoryl] hydrogen phosphate
   45    47     1     0     0
SMALL
USER_CHARGES

@<TRIPOS>ATOM
      1 PG         -3.2913   -4.9752    6.3909 P.3       1 ATP         1.5631
      2 O1G        -4.0714   -4.1440    5.3969 O.co2     1 ATP        -0.8806
      3 O2G        -2.0150   -4.4508    7.0105 O.co2     1 ATP        -0.8806
      4 O3G        -4.3006   -5.4314    7.5906 O.3       1 ATP        -0.8165
      5 PB         -2.0631   -6.8586    4.4705 P.3       1 ATP         1.6877
      6 O1B        -0.6783   -6.2884    4.6821 O.co2     1 ATP        -0.8727
      7 O2B        -2.2687   -8.3276    4.1754 O.co2     1 ATP        -0.8727
      8 O3B        -2.9997   -6.4441    5.7420 O.3       1 ATP        -0.8330
      9 PA         -2.4917   -5.8416    1.7251 P.3       1 ATP         1.6036
     10 O1A        -3.4086   -4.7948    1.1303 O.co2     1 ATP        -0.9062
     11 O2A        -2.4158   -7.2311    1.1308 O.co2     1 ATP        -0.9062
     12 O3A        -2.8196   -5.9822    3.3196 O.3       1 ATP        -0.8166
     13 O5'        -0.9724   -5.2440    1.8220 O.3       1 ATP        -0.5510
     14 C5'        -0.7840   -3.8935    2.2172 C.3       1 ATP         0.2099
     15 C4'        -0.0724   -3.1466    1.1027 C.3       1 ATP         0.0598
     16 O4'        -0.8674   -3.1929   -0.0945 O.3       1 ATP        -0.3455
     17 C3'         0.1338   -1.6715    1.4027 C.3       1 ATP         0.0742
     18 O3'         1.2893   -1.4445    2.1808 O.3       1 ATP        -0.6025
     19 C2'         0.2158   -1.0724    0.0128 C.3       1 ATP         0.1145
     20 O2'         1.5141   -1.2448   -0.5513 O.3       1 ATP        -0.5835
     21 C1'        -0.7897   -1.9176   -0.7583 C.3       1 ATP         0.3776
     22 N9         -2.1040   -1.3333   -0.7704 N.pl3     1 ATP        -0.4429
     23 C8         -3.0590   -1.5123    0.1363 C.ar      1 ATP         0.2964
     24 N7         -4.1655   -0.8354   -0.1554 N.pl3     1 ATP        -0.4957
     25 C5         -3.8852   -0.1874   -1.3253 C.ar      1 ATP        -0.1346
     26 C6         -4.7113    0.7160   -2.1458 C.ar      1 ATP         0.7213
     27 N6         -5.9213    1.0209   -1.8021 N.2       1 ATP        -0.8215
     28 N1         -4.0411    1.1673   -3.2764 N.pl3     1 ATP        -0.8455
     29 C2         -2.7403    0.7865   -3.5638 C.ar      1 ATP         0.6477
     30 N3         -1.9921   -0.0108   -2.8519 N.2       1 ATP        -0.5707
     31 C4         -2.6302   -0.4747   -1.7239 C.ar      1 ATP         0.2637
     32 HOG3       -3.9412   -5.9812    8.3193 H         1 ATP         0.4378
     33 H5'1       -1.7618   -3.4448    2.4164 H         1 ATP         0.0340
     34 H5'2       -0.1874   -3.8744    3.1341 H         1 ATP         0.0340
     35 H4'         0.8874   -3.6466    0.8805 H         1 ATP         0.0910
     36 H3'        -0.7376   -1.2333    1.9867 H         1 ATP         0.0656
     37 HO3'        1.3408   -0.4870    2.3219 H         1 ATP         0.4386
     38 H2'        -0.0384   -0.0310    0.0096 H         1 ATP         0.0788
     39 HO2'        1.4998   -0.8412   -1.4369 H         1 ATP         0.4363
     40 H1'        -0.4769   -2.1002   -1.8093 H         1 ATP         0.1225
     41 H8         -2.9569   -2.1323    1.0098 H         1 ATP         0.3824
     42 HN62       -6.3169    1.6552   -2.5012 H         1 ATP         0.4018
     43 H2         -2.3612    1.2343   -4.4957 H         1 ATP         0.0652
     44 H44        -4.5223    1.7976   -3.9117 H         1 ATP         0.4503
     45 H45        -5.0218   -0.8132    0.3804 H         1 ATP         0.5209
@<TRIPOS>BOND
     1    1    2 2
     2    1    3 1
     3    1    4 1
     4    1    8 1
     5    4   32 1
     6    5    6 2
     7    5    7 1
     8    5    8 1
     9    5   12 1
    10    9   10 2
    11    9   11 1
    12    9   12 1
    13    9   13 1
    14   13   14 1
    15   14   15 1
    16   14   33 1
    17   14   34 1
    18   15   16 1
    19   15   17 1
    20   15   35 1
    21   16   21 1
    22   17   18 1
    23   17   19 1
    24   17   36 1
    25   18   37 1
    26   19   20 1
    27   19   21 1
    28   19   38 1
    29   20   39 1
    30   21   22 1
    31   21   40 1
    32   22   23 ar
    33   22   31 ar
    34   23   24 ar
    35   23   41 1
    36   24   25 ar
    37   24   45 1
    38   25   26 ar
    39   25   31 ar
    40   26   27 2
    41   26   28 ar
    42   27   42 1
    43   28   29 ar
    44   28   44 1
    45   29   30 ar
    46   29   43 1
    47   30   31 ar
@<TRIPOS>SUBSTRUCTURE
     1 ATP         1 GROUP 0 A     ****
@<TRIPOS>MOLECULE
[[[3,4-dihydroxy-5-(6-imino-7,8-dihydro-1~{H}-purin-8-ylium-9-yl)tetrahydrofuran-2-yl]methoxy-oxido-phosphoryl]oxy-oxido-phosphoryl] hydrogen phosphate
   45    47     1     0     0
SMALL
USER_CHARGES

@<TRIPOS>ATOM
      1 PG          4.1924   -7.7186    0.4737 P.3       1 ATP         1.5631
      2 O1G         3.5274   -9.0151    0.0681 O.co2     1 ATP        -0.8806
      3 O2G         5.5179   -7.7197    1.2022 O.co2     1 ATP        -0.8806
      4 O3G         4.3279   -6.7695   -0.8479 O.3       1 ATP        -0.8165
      5 PB          2.4624   -7.0806    2.7854 P.3       1 ATP         1.6877
      6 O1B         1.5558   -8.2881    2.6971 O.co2     1 ATP        -0.8727
      7 O2B         3.5505   -6.9928    3.8322 O.co2     1 ATP        -0.8727
      8 O3B         3.1259   -6.8159    1.3173 O.3       1 ATP        -0.8330
      9 PA          0.5355   -5.2351    4.0645 P.3       1 ATP         1.6036
     10 O1A         1.3580   -4.9238    5.2961 O.co2     1 ATP        -0.9062
     11 O2A        -0.6339   -6.1926    4.1369 O.co2     1 ATP        -0.9062
     12 O3A         1.5383   -5.7380    2.8765 O.3       1 ATP        -0.8166
     13 O5'         0.0118   -3.8395    3.3916 O.3       1 ATP        -0.5510
     14 C5'        -0.7840   -3.8935    2.2172 C.3       1 ATP         0.2099
     15 C4'        -0.0724   -3.1466    1.1027 C.3       1 ATP         0.0598
     16 O4'        -0.8674   -3.1929   -0.0945 O.3       1 ATP        -0.3455
     17 C3'         0.1338   -1.6715    1.4027 C.3       1 ATP         0.0742
     18 O3'         1.2893   -1.4445    2.1808 O.3       1 ATP        -0.6025
     19 C2'         0.2158   -1.0724    0.0128 C.3       1 ATP         0.1145
     20 O2'         1.5141   -1.2448   -0.5513 O.3       1 ATP        -0.5835
     21 C1'        -0.7897   -1.9176   -0.7583 C.3       1 ATP         0.3776
     22 N9         -2.1040   -1.3333   -0.7704 N.pl3     1 ATP        -0.4429
     23 C8         -3.0590   -1.5123    0.1363 C.ar      1 ATP         0.2964
     24 N7         -4.1655   -0.8354   -0.1554 N.pl3     1 ATP        -0.4957
     25 C5         -3.8852   -0.1874   -1.3253 C.ar      1 ATP        -0.1346
     26 C6         -4.7113    0.7160   -2.1458 C.ar      1 ATP         0.7213
     27 N6         -5.9213    1.0209   -1.8021 N.2       1 ATP        -0.8215
     28 N1         -4.0411    1.1673   -3.2764 N.pl3     1 ATP        -0.8455
     29 C2         -2.7403    0.7865   -3.5638 C.ar      1 ATP         0.6477
     30 N3         -1.9921   -0.0108   -2.8519 N.2       1 ATP        -0.5707
     31 C4         -2.6302   -0.4747   -1.7239 C.ar      1 ATP         0.2637
     32 HOG3        4.7427   -5.8862   -0.7478 H         1 ATP         0.4378
     33 H5'1       -0.9348   -4.9415    1.9415 H         1 ATP         0.0340
     34 H5'2       -1.7548   -3.4350    2.4278 H         1 ATP         0.0340
     35 H4'         0.8874   -3.6466    0.8805 H         1 ATP         0.0910
     36 H3'        -0.7376   -1.2333    1.9867 H         1 ATP         0.0656
     37 HO3'        1.1626   -1.9325    3.0084 H         1 ATP         0.4386
     38 H2'        -0.0384   -0.0310    0.0096 H         1 ATP         0.0788
     39 HO2'        2.1463   -0.7958    0.0370 H         1 ATP         0.4363
     40 H1'        -0.4769   -2.1002   -1.8093 H         1 ATP         0.1225
     41 H8         -2.9569   -2.1323    1.0098 H         1 ATP         0.3824
     42 HN62       -6.3169    1.6552   -2.5012 H         1 ATP         0.4018
     43 H2         -2.3612    1.2343   -4.4957 H         1 ATP         0.0652
     44 H44        -4.5223    1.7976   -3.9117 H         1 ATP         0.4503
     45 H45        -5.0218   -0.8132    0.3804 H         1 ATP         0.5209
@<TRIPOS>BOND
     1    1    2 2
     2    1    3 1
     3    1    4 1
     4    1    8 1
     5    4   32 1
     6    5    6 2
     7    5    7 1
     8    5    8 1
     9    5   12 1
    10    9   10 2
    11    9   11 1
    12    9   12 1
    13    9   13 1
    14   13   14 1
    15   14   15 1
    16   14   33 1
    17   14   34 1
    18   15   16 1
    19   15   17 1
    20   15   35 1
    21   16   21 1
    22   17   18 1
    23   17   19 1
    24   17   36 1
    25   18   37 1
    26   19   20 1
    27   19   21 1
    28   19   38 1
    29   20   39 1
    30   21   22 1
    31   21   40 1
    32   22   23 ar
    33   22   31 ar
    34   23   24 ar
    35   23   41 1
    36   24   25 ar
    37   24   45 1
    38   25   26 ar
    39   25   31 ar
    40   26   27 2
    41   26   28 ar
    42   27   42 1
    43   28   29 ar
    44   28   44 1
    45   29   30 ar
    46   29   43 1
    47   30   31 ar
@<TRIPOS>SUBSTRUCTURE
     1 ATP         1 GROUP 0 A     ****
@<TRIPOS>MOLECULE
[[[3,4-dihydroxy-5-(6-imino-7,8-dihydro-1~{H}-purin-8-ylium-9-yl)tetrahydrofuran-2-yl]methoxy-oxido-phosphoryl]oxy-oxido-phosphoryl] hydrogen phosphate
   45    47     1     0     0
SMALL
USER_CHARGES

@<TRIPOS>ATOM
      1 PG          5.8055   -4.1736   -6.7570 P.3       1 ATP         1.5631
      2 O1G         7.2776   -3.9281   -6.5121 O.co2     1 ATP        -0.8806
      3 O2G         5.2141   -4.0342   -8.1421 O.co2     1 ATP        -0.8806
      4 O3G         5.4223   -5.6506   -6.1759 O.3       1 ATP        -0.8165
      5 PB          4.7775   -1.6435   -5.6233 P.3       1 ATP         1.6877
      6 O1B         6.1081   -1.0494   -5.2186 O.co2     1 ATP        -0.8727
      7 O2B         4.0434   -1.1563   -6.8526 O.co2     1 ATP        -0.8727
      8 O3B         4.9353   -3.2659   -5.7165 O.3       1 ATP        -0.8330
      9 PA          3.9668   -2.1116   -2.8163 P.3       1 ATP         1.6036
     10 O1A         5.0719   -1.3107   -2.1623 O.co2     1 ATP        -0.9062
     11 O2A         4.0210   -3.6235   -2.8465 O.co2     1 ATP        -0.9062
     12 O3A         3.7633   -1.5743   -4.3459 O.3       1 ATP        -0.8166
     13 O5'         2.5245   -1.6648   -2.1878 O.3       1 ATP        -0.5510
     14 C5'         2.2816   -0.2918   -1.9206 C.3       1 ATP         0.2099
     15 C4'         2.7248    0.0226   -0.4980 C.3       1 ATP         0.0598
     16 O4'         2.4697    1.4219   -0.2462 O.3       1 ATP        -0.3455
     17 C3'         1.9404   -0.7419    0.5596 C.3       1 ATP         0.0742
     18 O3'         2.7418   -0.8086    1.7389 O.3       1 ATP        -0.6025
     19 C2'         0.7477    0.1630    0.7858 C.3       1 ATP         0.1145
     20 O2'         0.1373   -0.0577    2.0407 O.3       1 ATP        -0.5835
     21 C1'         1.3733    1.5427    0.6747 C.3       1 ATP         0.3776
     22 N9          0.4520    2.5240    0.1767 N.pl3     1 ATP        -0.4429
     23 C8         -0.2004    2.4829   -0.9804 C.ar      1 ATP         0.2964
     24 N7         -0.9830    3.5431   -1.1568 N.pl3     1 ATP        -0.4957
     25 C5         -0.8095    4.3012   -0.0331 C.ar      1 ATP        -0.1346
     26 C6         -1.4065    5.5904    0.3585 C.ar      1 ATP         0.7213
     27 N6         -2.2501    6.2030   -0.4084 N.2       1 ATP        -0.8215
     28 N1         -0.9585    6.0272    1.5994 N.pl3     1 ATP        -0.8455
     29 C2         -0.0508    5.3009    2.3532 C.ar      1 ATP         0.6477
     30 N3          0.4890    4.1592    2.0257 N.2       1 ATP        -0.5707
     31 C4          0.0637    3.7006    0.7995 C.ar      1 ATP         0.2637
     32 HOG3        4.4949   -5.9592   -6.2599 H         1 ATP         0.4378
     33 H5'1        2.8432    0.3119   -2.6398 H         1 ATP         0.0340
     34 H5'2        1.2128   -0.0927   -2.0428 H         1 ATP         0.0340
     35 H4'         3.8044   -0.1397   -0.4040 H         1 ATP         0.0910
     36 H3'         1.6764   -1.7639    0.2728 H         1 ATP         0.0656
     37 HO3'        3.5554   -1.2733    1.4914 H         1 ATP         0.4386
     38 H2'        -0.0011    0.0027    0.0003 H         1 ATP         0.0788
     39 HO2'       -0.1563   -0.9855    2.0596 H         1 ATP         0.4363
     40 H1'         1.7826    1.9024    1.6451 H         1 ATP         0.1225
     41 H8         -0.1116    1.6863   -1.6984 H         1 ATP         0.3824
     42 HN62       -2.5420    7.0730    0.0447 H         1 ATP         0.4018
     43 H2          0.1969    5.7893    3.3086 H         1 ATP         0.0652
     44 H44        -1.3097    6.9080    1.9642 H         1 ATP         0.4503
     45 H45        -1.5735    3.7351   -1.9538 H         1 ATP         0.5209
@<TRIPOS>BOND
     1    1    2 2
     2    1    3 1
     3    1    4 1
     4    1    8 1
     5    4   32 1
     6    5    6 2
     7    5    7 1
     8    5    8 1
     9    5   12 1
    10    9   10 2
    11    9   11 1
    12    9   12 1
    13    9   13 1
    14   13   14 1
    15   14   15 1
    16   14   33 1
    17   14   34 1
    18   15   16 1
    19   15   17 1
    20   15   35 1
    21   16   21 1
    22   17   18 1
    23   17   19 1
    24   17   36 1
    25   18   37 1
    26   19   20 1
    27   19   21 1
    28   19   38 1
    29   20   39 1
    30   21   22 1
    31   21   40 1
    32   22   23 ar
    33   22   31 ar
    34   23   24 ar
    35   23   41 1
    36   24   25 ar
    37   24   45 1
    38   25   26 ar
    39   25   31 ar
    40   26   27 2
    41   26   28 ar
    42   27   42 1
    43   28   29 ar
    44   28   44 1
    45   29   30 ar
    46   29   43 1
    47   30   31 ar
@<TRIPOS>SUBSTRUCTURE
     1 ATP         1 GROUP 0 A     ****
@<TRIPOS>MOLECULE
[[[3,4-dihydroxy-5-(6-imino-7,8-dihydro-1~{H}-purin-8-ylium-9-yl)tetrahydrofuran-2-yl]methoxy-oxido-phosphoryl]oxy-oxido-phosphoryl] hydrogen phosphate
   45    47     1     0     0
SMALL
USER_CHARGES

@<TRIPOS>ATOM
      1 PG         -1.8320   -6.9563    7.6756 P.3       1 ATP         1.5631
      2 O1G        -1.8610   -8.4662    7.7585 O.co2     1 ATP        -0.8806
      3 O2G        -2.8080   -6.1155    8.4682 O.co2     1 ATP        -0.8806
      4 O3G        -0.3174   -6.4474    8.0115 O.3       1 ATP        -0.8165
      5 PB         -3.1126   -6.6701    5.0258 P.3       1 ATP         1.6877
      6 O1B        -3.3158   -8.1415    4.7409 O.co2     1 ATP        -0.8727
      7 O2B        -4.2647   -5.7886    5.4538 O.co2     1 ATP        -0.8727
      8 O3B        -1.9004   -6.5089    6.1075 O.3       1 ATP        -0.8330
      9 PA         -1.0040   -6.4123    2.9660 P.3       1 ATP         1.6036
     10 O1A        -1.2152   -7.7581    2.3070 O.co2     1 ATP        -0.9062
     11 O2A         0.1603   -6.1852    3.9054 O.co2     1 ATP        -0.9062
     12 O3A        -2.3785   -5.9844    3.7390 O.3       1 ATP        -0.8166
     13 O5'        -0.9724   -5.2440    1.8220 O.3       1 ATP        -0.5510
     14 C5'        -0.7840   -3.8935    2.2172 C.3       1 ATP         0.2099
     15 C4'        -0.0724   -3.1466    1.1027 C.3       1 ATP         0.0598
     16 O4'        -0.8674   -3.1929   -0.0945 O.3       1 ATP        -0.3455
     17 C3'         0.1338   -1.6715    1.4027 C.3       1 ATP         0.0742
     18 O3'         1.2893   -1.4445    2.1808 O.3       1 ATP        -0.6025
     19 C2'         0.2158   -1.0724    0.0128 C.3       1 ATP         0.1145
     20 O2'         1.5141   -1.2448   -0.5513 O.3       1 ATP        -0.5835
     21 C1'        -0.7897   -1.9176   -0.7583 C.3       1 ATP         0.3776
     22 N9         -2.1040   -1.3333   -0.7704 N.pl3     1 ATP        -0.4429
     23 C8         -3.0590   -1.5123    0.1363 C.ar      1 ATP         0.2964
     24 N7         -4.1655   -0.8354   -0.1554 N.pl3     1 ATP        -0.4957
     25 C5         -3.8852   -0.1874   -1.3253 C.ar      1 ATP        -0.1346
     26 C6         -4.7113    0.7160   -2.1458 C.ar      1 ATP         0.7213
     27 N6         -5.9213    1.0209   -1.8021 N.2       1 ATP        -0.8215
     28 N1         -4.0411    1.1673   -3.2764 N.pl3     1 ATP        -0.8455
     29 C2         -2.7403    0.7865   -3.5638 C.ar      1 ATP         0.6477
     30 N3         -1.9921   -0.0108   -2.8519 N.2       1 ATP        -0.5707
     31 C4         -2.6302   -0.4747   -1.7239 C.ar      1 ATP         0.2637
     32 HOG3       -0.1350   -5.4836    7.9983 H         1 ATP         0.4378
     33 H5'1       -1.7618   -3.4448    2.4164 H         1 ATP         0.0340
     34 H5'2       -0.1874   -3.8744    3.1341 H         1 ATP         0.0340
     35 H4'         0.8874   -3.6466    0.8805 H         1 ATP         0.0910
     36 H3'        -0.7376   -1.2333    1.9867 H         1 ATP         0.0656
     37 HO3'        1.1626   -1.9325    3.0084 H         1 ATP         0.4386
     38 H2'        -0.0384   -0.0310    0.0096 H         1 ATP         0.0788
     39 HO2'        2.1463   -0.7958    0.0370 H         1 ATP         0.4363
     40 H1'        -0.4769   -2.1002   -1.8093 H         1 ATP         0.1225
     41 H8         -2.9569   -2.1323    1.0098 H         1 ATP         0.3824
     42 HN62       -6.3169    1.6552   -2.5012 H         1 ATP         0.4018
     43 H2         -2.3612    1.2343   -4.4957 H         1 ATP         0.0652
     44 H44        -4.5223    1.7976   -3.9117 H         1 ATP         0.4503
     45 H45        -5.0218   -0.8132    0.3804 H         1 ATP         0.5209
@<TRIPOS>BOND
     1    1    2 2
     2    1    3 1
     3    1    4 1
     4    1    8 1
     5    4   32 1
     6    5    6 2
     7    5    7 1
     8    5    8 1
     9    5   12 1
    10    9   10 2
    11    9   11 1
    12    9   12 1
    13    9   13 1
    14   13   14 1
    15   14   15 1
    16   14   33 1
    17   14   34 1
    18   15   16 1
    19   15   17 1
    20   15   35 1
    21   16   21 1
    22   17   18 1
    23   17   19 1
    24   17   36 1
    25   18   37 1
    26   19   20 1
    27   19   21 1
    28   19   38 1
    29   20   39 1
    30   21   22 1
    31   21   40 1
    32   22   23 ar
    33   22   31 ar
    34   23   24 ar
    35   23   41 1
    36   24   25 ar
    37   24   45 1
    38   25   26 ar
    39   25   31 ar
    40   26   27 2
    41   26   28 ar
    42   27   42 1
    43   28   29 ar
    44   28   44 1
    45   29   30 ar
    46   29   43 1
    47   30   31 ar
@<TRIPOS>SUBSTRUCTURE
     1 ATP         1 GROUP 0 A     ****
@<TRIPOS>MOLECULE
[[[3,4-dihydroxy-5-(6-imino-7,8-dihydro-1~{H}-purin-8-ylium-9-yl)tetrahydrofuran-2-yl]methoxy-oxido-phosphoryl]oxy-oxido-phosphoryl] hydrogen phosphate
   45    47     1     0     0
SMALL
USER_CHARGES

@<TRIPOS>ATOM
      1 PG          5.0232   -2.4336   -8.1474 P.3       1 ATP         1.5631
      2 O1G         6.2320   -1.5789   -8.4569 O.co2     1 ATP        -0.8806
      3 O2G         3.8721   -2.5345   -9.1234 O.co2     1 ATP        -0.8806
      4 O3G         5.5330   -3.9428   -7.7893 O.3       1 ATP        -0.8165
      5 PB          3.2549   -2.7049   -5.7930 P.3       1 ATP         1.6877
      6 O1B         1.9366   -2.5110   -6.5085 O.co2     1 ATP        -0.8727
      7 O2B         3.7137   -4.0777   -5.3545 O.co2     1 ATP        -0.8727
      8 O3B         4.4389   -2.0164   -6.6817 O.3       1 ATP        -0.8330
      9 PA          3.0675   -0.0857   -4.4293 P.3       1 ATP         1.6036
     10 O1A         1.6267    0.2117   -4.7841 O.co2     1 ATP        -0.9062
     11 O2A         4.2015    0.5978   -5.1618 O.co2     1 ATP        -0.9062
     12 O3A         3.3051   -1.7004   -4.5072 O.3       1 ATP        -0.8166
     13 O5'         3.2903    0.1346   -2.8241 O.3       1 ATP        -0.5510
     14 C5'         2.2816   -0.2918   -1.9206 C.3       1 ATP         0.2099
     15 C4'         2.7248    0.0226   -0.4980 C.3       1 ATP         0.0598
     16 O4'         2.4697    1.4219   -0.2462 O.3       1 ATP        -0.3455
     17 C3'         1.9404   -0.7419    0.5596 C.3       1 ATP         0.0742
     18 O3'         2.7418   -0.8086    1.7389 O.3       1 ATP        -0.6025
     19 C2'         0.7477    0.1630    0.7858 C.3       1 ATP         0.1145
     20 O2'         0.1373   -0.0577    2.0407 O.3       1 ATP        -0.5835
     21 C1'         1.3733    1.5427    0.6747 C.3       1 ATP         0.3776
     22 N9          0.4520    2.5240    0.1767 N.pl3     1 ATP        -0.4429
     23 C8         -0.6821    2.9098    0.7521 C.ar      1 ATP         0.2964
     24 N7         -1.3175    3.8384    0.0437 N.pl3     1 ATP        -0.4957
     25 C5         -0.5274    4.0494   -1.0512 C.ar      1 ATP        -0.1346
     26 C6         -0.6966    4.9597   -2.1977 C.ar      1 ATP         0.7213
     27 N6         -1.7259    5.7385   -2.2937 N.2       1 ATP        -0.8215
     28 N1          0.3493    4.8663   -3.1079 N.pl3     1 ATP        -0.8455
     29 C2          1.4148    4.0005   -2.9208 C.ar      1 ATP         0.6477
     30 N3          1.5838    3.1876   -1.9144 N.2       1 ATP        -0.5707
     31 C4          0.5619    3.2578   -0.9949 C.ar      1 ATP         0.2637
     32 HOG3        4.8614   -4.6214   -7.5641 H         1 ATP         0.4378
     33 H5'1        1.3514    0.2330   -2.1577 H         1 ATP         0.0340
     34 H5'2        2.1280   -1.3678   -2.0460 H         1 ATP         0.0340
     35 H4'         3.8044   -0.1397   -0.4040 H         1 ATP         0.0910
     36 H3'         1.6764   -1.7639    0.2728 H         1 ATP         0.0656
     37 HO3'        2.2232   -1.2979    2.3953 H         1 ATP         0.4386
     38 H2'        -0.0011    0.0027    0.0003 H         1 ATP         0.0788
     39 HO2'       -0.1563   -0.9855    2.0596 H         1 ATP         0.4363
     40 H1'         1.7826    1.9024    1.6451 H         1 ATP         0.1225
     41 H8         -1.0516    2.5207    1.6849 H         1 ATP         0.3824
     42 HN62       -1.6520    6.2842   -3.1564 H         1 ATP         0.4018
     43 H2          2.1542    4.0525   -3.7351 H         1 ATP         0.0652
     44 H44         0.3306    5.4533   -3.9370 H         1 ATP         0.4503
     45 H45        -2.1941    4.2838    0.2756 H         1 ATP         0.5209
@<TRIPOS>BOND
     1    1    2 2
     2    1    3 1
     3    1    4 1
     4    1    8 1
     5    4   32 1
     6    5    6 2
     7    5    7 1
     8    5    8 1
     9    5   12 1
    10    9   10 2
    11    9   11 1
    12    9   12 1
    13    9   13 1
    14   13   14 1
    15   14   15 1
    16   14   33 1
    17   14   34 1
    18   15   16 1
    19   15   17 1
    20   15   35 1
    21   16   21 1
    22   17   18 1
    23   17   19 1
    24   17   36 1
    25   18   37 1
    26   19   20 1
    27   19   21 1
    28   19   38 1
    29   20   39 1
    30   21   22 1
    31   21   40 1
    32   22   23 ar
    33   22   31 ar
    34   23   24 ar
    35   23   41 1
    36   24   25 ar
    37   24   45 1
    38   25   26 ar
    39   25   31 ar
    40   26   27 2
    41   26   28 ar
    42   27   42 1
    43   28   29 ar
    44   28   44 1
    45   29   30 ar
    46   29   43 1
    47   30   31 ar
@<TRIPOS>SUBSTRUCTURE
     1 ATP         1 GROUP 0 A     ****
@<TRIPOS>MOLECULE
[[[3,4-dihydroxy-5-(6-imino-7,8-dihydro-1~{H}-purin-8-ylium-9-yl)tetrahydrofuran-2-yl]methoxy-oxido-phosphoryl]oxy-oxido-phosphoryl] hydrogen phosphate
   45    47     1     0     0
SMALL
USER_CHARGES

@<TRIPOS>ATOM
      1 PG         -1.1809    1.5456   -6.6418 P.3       1 ATP         1.5631
      2 O1G        -0.6938    2.2091   -7.9106 O.co2     1 ATP        -0.8806
      3 O2G        -1.8415    2.3532   -5.5467 O.co2     1 ATP        -0.8806
      4 O3G        -2.1732    0.3143   -7.0483 O.3       1 ATP        -0.8165
      5 PB          1.4486    1.1770   -5.3406 P.3       1 ATP         1.6877
      6 O1B         2.2999    1.7870   -6.4318 O.co2     1 ATP        -0.8727
      7 O2B         1.1494    1.9332   -4.0655 O.co2     1 ATP        -0.8727
      8 O3B         0.0392    0.6758   -5.9950 O.3       1 ATP        -0.8330
      9 PA          3.4844   -0.6652   -4.2374 P.3       1 ATP         1.6036
     10 O1A         4.6107   -0.0317   -5.0250 O.co2     1 ATP        -0.9062
     11 O2A         3.4852   -2.1497   -3.9439 O.co2     1 ATP        -0.9062
     12 O3A         2.0649   -0.2836   -4.9510 O.3       1 ATP        -0.8166
     13 O5'         3.2903    0.1346   -2.8241 O.3       1 ATP        -0.5510
     14 C5'         2.2816   -0.2918   -1.9206 C.3       1 ATP         0.2099
     15 C4'         2.7248    0.0226   -0.4980 C.3       1 ATP         0.0598
     16 O4'         2.4697    1.4219   -0.2462 O.3       1 ATP        -0.3455
     17 C3'         1.9404   -0.7419    0.5596 C.3       1 ATP         0.0742
     18 O3'         2.7418   -0.8086    1.7389 O.3       1 ATP        -0.6025
     19 C2'         0.7477    0.1630    0.7858 C.3       1 ATP         0.1145
     20 O2'         0.1373   -0.0577    2.0407 O.3       1 ATP        -0.5835
     21 C1'         1.3733    1.5427    0.6747 C.3       1 ATP         0.3776
     22 N9          0.4520    2.5240    0.1767 N.pl3     1 ATP        -0.4429
     23 C8         -0.8620    2.5492    0.3743 C.ar      1 ATP         0.2964
     24 N7         -1.4419    3.5886   -0.2183 N.pl3     1 ATP        -0.4957
     25 C5         -0.4215    4.2614   -0.8294 C.ar      1 ATP        -0.1346
     26 C6         -0.4310    5.4918   -1.6405 C.ar      1 ATP         0.7213
     27 N6         -1.5302    6.1308   -1.8826 N.2       1 ATP        -0.8215
     28 N1          0.8382    5.8461   -2.0817 N.pl3     1 ATP        -0.8455
     29 C2          1.9625    5.0982   -1.7709 C.ar      1 ATP         0.6477
     30 N3          1.9930    4.0077   -1.0554 N.2       1 ATP        -0.5707
     31 C4          0.7483    3.6314   -0.6038 C.ar      1 ATP         0.2637
     32 HOG3       -2.5743   -0.2190   -6.3292 H         1 ATP         0.4378
     33 H5'1        1.3514    0.2330   -2.1577 H         1 ATP         0.0340
     34 H5'2        2.1280   -1.3678   -2.0460 H         1 ATP         0.0340
     35 H4'         3.8044   -0.1397   -0.4040 H         1 ATP         0.0910
     36 H3'         1.6764   -1.7639    0.2728 H         1 ATP         0.0656
     37 HO3'        2.2232   -1.2979    2.3953 H         1 ATP         0.4386
     38 H2'        -0.0011    0.0027    0.0003 H         1 ATP         0.0788
     39 HO2'       -0.1563   -0.9855    2.0596 H         1 ATP         0.4363
     40 H1'         1.7826    1.9024    1.6451 H         1 ATP         0.1225
     41 H8         -1.4030    1.8165    0.9473 H         1 ATP         0.3824
     42 HN62       -1.3197    6.9504   -2.4583 H         1 ATP         0.4018
     43 H2          2.8857    5.5186   -2.1994 H         1 ATP         0.0652
     44 H44         0.9433    6.6815   -2.6502 H         1 ATP         0.4503
     45 H45        -2.4254    3.8199   -0.2108 H         1 ATP         0.5209
@<TRIPOS>BOND
     1    1    2 2
     2    1    3 1
     3    1    4 1
     4    1    8 1
     5    4   32 1
     6    5    6 2
     7    5    7 1
     8    5    8 1
     9    5   12 1
    10    9   10 2
    11    9   11 1
    12    9   12 1
    13    9   13 1
    14   13   14 1
    15   14   15 1
    16   14   33 1
    17   14   34 1
    18   15   16 1
    19   15   17 1
    20   15   35 1
    21   16   21 1
    22   17   18 1
    23   17   19 1
    24   17   36 1
    25   18   37 1
    26   19   20 1
    27   19   21 1
    28   19   38 1
    29   20   39 1
    30   21   22 1
    31   21   40 1
    32   22   23 ar
    33   22   31 ar
    34   23   24 ar
    35   23   41 1
    36   24   25 ar
    37   24   45 1
    38   25   26 ar
    39   25   31 ar
    40   26   27 2
    41   26   28 ar
    42   27   42 1
    43   28   29 ar
    44   28   44 1
    45   29   30 ar
    46   29   43 1
    47   30   31 ar
@<TRIPOS>SUBSTRUCTURE
     1 ATP         1 GROUP 0 A     ****
@<TRIPOS>MOLECULE
[[[3,4-dihydroxy-5-(6-imino-7,8-dihydro-1~{H}-purin-8-ylium-9-yl)tetrahydrofuran-2-yl]methoxy-oxido-phosphoryl]oxy-oxido-phosphoryl] hydrogen phosphate
   45    47     1     0     0
SMALL
USER_CHARGES

@<TRIPOS>ATOM
      1 PG         -2.3190   -4.7335    6.7465 P.3       1 ATP         1.5631
      2 O1G        -3.2020   -3.5597    6.3862 O.co2     1 ATP        -0.8806
      3 O2G        -0.8135   -4.6359    6.6377 O.co2     1 ATP        -0.8806
      4 O3G        -2.6988   -5.2239    8.2569 O.3       1 ATP        -0.8165
      5 PB         -2.7938   -6.3586    4.3223 P.3       1 ATP         1.6877
      6 O1B        -3.2243   -7.7907    4.0957 O.co2     1 ATP        -0.8727
      7 O2B        -3.4650   -5.2146    3.5956 O.co2     1 ATP        -0.8727
      8 O3B        -2.8243   -6.0503    5.9253 O.3       1 ATP        -0.8330
      9 PA         -0.3072   -6.4376    2.7205 P.3       1 ATP         1.6036
     10 O1A        -0.6428   -7.7790    2.1053 O.co2     1 ATP        -0.9062
     11 O2A         1.1276   -6.0607    3.0189 O.co2     1 ATP        -0.9062
     12 O3A        -1.1816   -6.2536    4.0885 O.3       1 ATP        -0.8166
     13 O5'        -0.9724   -5.2440    1.8220 O.3       1 ATP        -0.5510
     14 C5'        -0.7840   -3.8935    2.2172 C.3       1 ATP         0.2099
     15 C4'        -0.0724   -3.1466    1.1027 C.3       1 ATP         0.0598
     16 O4'        -0.8674   -3.1929   -0.0945 O.3       1 ATP        -0.3455
     17 C3'         0.1338   -1.6715    1.4027 C.3       1 ATP         0.0742
     18 O3'         1.2893   -1.4445    2.1808 O.3       1 ATP        -0.6025
     19 C2'         0.2158   -1.0724    0.0128 C.3       1 ATP         0.1145
     20 O2'         1.5141   -1.2448   -0.5513 O.3       1 ATP        -0.5835
     21 C1'        -0.7897   -1.9176   -0.7583 C.3       1 ATP         0.3776
     22 N9         -2.1040   -1.3333   -0.7704 N.pl3     1 ATP        -0.4429
     23 C8         -3.0590   -1.5123    0.1363 C.ar      1 ATP         0.2964
     24 N7         -4.1655   -0.8354   -0.1554 N.pl3     1 ATP        -0.4957
     25 C5         -3.8852   -0.1874   -1.3253 C.ar      1 ATP        -0.1346
     26 C6         -4.7113    0.7160   -2.1458 C.ar      1 ATP         0.7213
     27 N6         -5.9213    1.0209   -1.8021 N.2       1 ATP        -0.8215
     28 N1         -4.0411    1.1673   -3.2764 N.pl3     1 ATP        -0.8455
     29 C2         -2.7403    0.7865   -3.5638 C.ar      1 ATP         0.6477
     30 N3         -1.9921   -0.0108   -2.8519 N.2       1 ATP        -0.5707
     31 C4         -2.6302   -0.4747   -1.7239 C.ar      1 ATP         0.2637
     32 HOG3       -2.2090   -5.9835    8.6382 H         1 ATP         0.4378
     33 H5'1       -1.7618   -3.4448    2.4164 H         1 ATP         0.0340
     34 H5'2       -0.1874   -3.8744    3.1341 H         1 ATP         0.0340
     35 H4'         0.8874   -3.6466    0.8805 H         1 ATP         0.0910
     36 H3'        -0.7376   -1.2333    1.9867 H         1 ATP         0.0656
     37 HO3'        1.1626   -1.9325    3.0084 H         1 ATP         0.4386
     38 H2'        -0.0384   -0.0310    0.0096 H         1 ATP         0.0788
     39 HO2'        2.1463   -0.7958    0.0370 H         1 ATP         0.4363
     40 H1'        -0.4769   -2.1002   -1.8093 H         1 ATP         0.1225
     41 H8         -2.9569   -2.1323    1.0098 H         1 ATP         0.3824
     42 HN62       -6.3169    1.6552   -2.5012 H         1 ATP         0.4018
     43 H2         -2.3612    1.2343   -4.4957 H         1 ATP         0.0652
     44 H44        -4.5223    1.7976   -3.9117 H         1 ATP         0.4503
     45 H45        -5.0218   -0.8132    0.3804 H         1 ATP         0.5209
@<TRIPOS>BOND
     1    1    2 2
     2    1    3 1
     3    1    4 1
     4    1    8 1
     5    4   32 1
     6    5    6 2
     7    5    7 1
     8    5    8 1
     9    5   12 1
    10    9   10 2
    11    9   11 1
    12    9   12 1
    13    9   13 1
    14   13   14 1
    15   14   15 1
    16   14   33 1
    17   14   34 1
    18   15   16 1
    19   15   17 1
    20   15   35 1
    21   16   21 1
    22   17   18 1
    23   17   19 1
    24   17   36 1
    25   18   37 1
    26   19   20 1
    27   19   21 1
    28   19   38 1
    29   20   39 1
    30   21   22 1
    31   21   40 1
    32   22   23 ar
    33   22   31 ar
    34   23   24 ar
    35   23   41 1
    36   24   25 ar
    37   24   45 1
    38   25   26 ar
    39   25   31 ar
    40   26   27 2
    41   26   28 ar
    42   27   42 1
    43   28   29 ar
    44   28   44 1
    45   29   30 ar
    46   29   43 1
    47   30   31 ar
@<TRIPOS>SUBSTRUCTURE
     1 ATP         1 GROUP 0 A     ****
@<TRIPOS>MOLECULE
[[[3,4-dihydroxy-5-(6-imino-7,8-dihydro-1~{H}-purin-8-ylium-9-yl)tetrahydrofuran-2-yl]methoxy-oxido-phosphoryl]oxy-oxido-phosphoryl] hydrogen phosphate
   45    47     1     0     0
SMALL
USER_CHARGES

@<TRIPOS>ATOM
      1 PG          4.6984    1.1705   -5.8358 P.3       1 ATP         1.5631
      2 O1G         4.5540    1.2721   -4.3337 O.co2     1 ATP        -0.8806
      3 O2G         3.7823    1.9430   -6.7588 O.co2     1 ATP        -0.8806
      4 O3G         6.2444    1.5146   -6.2327 O.3       1 ATP        -0.8165
      5 PB          3.4664   -1.4950   -6.1831 P.3       1 ATP         1.6877
      6 O1B         2.2520   -0.9254   -6.8820 O.co2     1 ATP        -0.8727
      7 O2B         4.0141   -2.8564   -6.5492 O.co2     1 ATP        -0.8727
      8 O3B         4.6779   -0.4037   -6.2661 O.3       1 ATP        -0.8330
      9 PA          2.1372   -2.2718   -3.6563 P.3       1 ATP         1.6036
     10 O1A         2.4859   -3.7437   -3.7017 O.co2     1 ATP        -0.9062
     11 O2A         0.7459   -1.7951   -4.0125 O.co2     1 ATP        -0.9062
     12 O3A         3.2120   -1.4489   -4.5713 O.3       1 ATP        -0.8166
     13 O5'         2.5245   -1.6648   -2.1878 O.3       1 ATP        -0.5510
     14 C5'         2.2816   -0.2918   -1.9206 C.3       1 ATP         0.2099
     15 C4'         2.7248    0.0226   -0.4980 C.3       1 ATP         0.0598
     16 O4'         2.4697    1.4219   -0.2462 O.3       1 ATP        -0.3455
     17 C3'         1.9404   -0.7419    0.5596 C.3       1 ATP         0.0742
     18 O3'         2.7418   -0.8086    1.7389 O.3       1 ATP        -0.6025
     19 C2'         0.7477    0.1630    0.7858 C.3       1 ATP         0.1145
     20 O2'         0.1373   -0.0577    2.0407 O.3       1 ATP        -0.5835
     21 C1'         1.3733    1.5427    0.6747 C.3       1 ATP         0.3776
     22 N9          0.4520    2.5240    0.1767 N.pl3     1 ATP        -0.4429
     23 C8         -0.6821    2.9098    0.7521 C.ar      1 ATP         0.2964
     24 N7         -1.3175    3.8384    0.0437 N.pl3     1 ATP        -0.4957
     25 C5         -0.5274    4.0494   -1.0512 C.ar      1 ATP        -0.1346
     26 C6         -0.6966    4.9597   -2.1977 C.ar      1 ATP         0.7213
     27 N6         -1.7259    5.7385   -2.2937 N.2       1 ATP        -0.8215
     28 N1          0.3493    4.8663   -3.1079 N.pl3     1 ATP        -0.8455
     29 C2          1.4148    4.0005   -2.9208 C.ar      1 ATP         0.6477
     30 N3          1.5838    3.1876   -1.9144 N.2       1 ATP        -0.5707
     31 C4          0.5619    3.2578   -0.9949 C.ar      1 ATP         0.2637
     32 HOG3        6.4997    1.4910   -7.1796 H         1 ATP         0.4378
     33 H5'1        2.8432    0.3119   -2.6398 H         1 ATP         0.0340
     34 H5'2        1.2128   -0.0927   -2.0428 H         1 ATP         0.0340
     35 H4'         3.8044   -0.1397   -0.4040 H         1 ATP         0.0910
     36 H3'         1.6764   -1.7639    0.2728 H         1 ATP         0.0656
     37 HO3'        2.2232   -1.2979    2.3953 H         1 ATP         0.4386
     38 H2'        -0.0011    0.0027    0.0003 H         1 ATP         0.0788
     39 HO2'       -0.1563   -0.9855    2.0596 H         1 ATP         0.4363
     40 H1'         1.7826    1.9024    1.6451 H         1 ATP         0.1225
     41 H8         -1.0516    2.5207    1.6849 H         1 ATP         0.3824
     42 HN62       -1.6520    6.2842   -3.1564 H         1 ATP         0.4018
     43 H2          2.1542    4.0525   -3.7351 H         1 ATP         0.0652
     44 H44         0.3306    5.4533   -3.9370 H         1 ATP         0.4503
     45 H45        -2.1941    4.2838    0.2756 H         1 ATP         0.5209
@<TRIPOS>BOND
     1    1    2 2
     2    1    3 1
     3    1    4 1
     4    1    8 1
     5    4   32 1
     6    5    6 2
     7    5    7 1
     8    5    8 1
     9    5   12 1
    10    9   10 2
    11    9   11 1
    12    9   12 1
    13    9   13 1
    14   13   14 1
    15   14   15 1
    16   14   33 1
    17   14   34 1
    18   15   16 1
    19   15   17 1
    20   15   35 1
    21   16   21 1
    22   17   18 1
    23   17   19 1
    24   17   36 1
    25   18   37 1
    26   19   20 1
    27   19   21 1
    28   19   38 1
    29   20   39 1
    30   21   22 1
    31   21   40 1
    32   22   23 ar
    33   22   31 ar
    34   23   24 ar
    35   23   41 1
    36   24   25 ar
    37   24   45 1
    38   25   26 ar
    39   25   31 ar
    40   26   27 2
    41   26   28 ar
    42   27   42 1
    43   28   29 ar
    44   28   44 1
    45   29   30 ar
    46   29   43 1
    47   30   31 ar
@<TRIPOS>SUBSTRUCTURE
     1 ATP         1 GROUP 0 A     ****
@<TRIPOS>MOLECULE
[[[3,4-dihydroxy-5-(6-imino-7,8-dihydro-1~{H}-purin-8-ylium-9-yl)tetrahydrofuran-2-yl]methoxy-oxido-phosphoryl]oxy-oxido-phosphoryl] hydrogen phosphate
   45    47     1     0     0
SMALL
USER_CHARGES

@<TRIPOS>ATOM
      1 PG          6.2242   -4.1029   -6.1963 P.3       1 ATP         1.5631
      2 O1G         5.4734   -4.3232   -7.4906 O.co2     1 ATP        -0.8806
      3 O2G         6.8034   -5.2684   -5.4256 O.co2     1 ATP        -0.8806
      4 O3G         7.4134   -3.0168   -6.4650 O.3       1 ATP        -0.8165
      5 PB          3.8904   -3.5880   -4.4552 P.3       1 ATP         1.6877
      6 O1B         2.8166   -3.7342   -5.5102 O.co2     1 ATP        -0.8727
      7 O2B         4.1491   -4.6825   -3.4439 O.co2     1 ATP        -0.8727
      8 O3B         5.2986   -3.2112   -5.1904 O.3       1 ATP        -0.8330
      9 PA          3.4844   -0.6652   -4.2374 P.3       1 ATP         1.6036
     10 O1A         2.2033   -0.5901   -5.0397 O.co2     1 ATP        -0.9062
     11 O2A         4.8033   -0.2388   -4.8443 O.co2     1 ATP        -0.9062
     12 O3A         3.6528   -2.1836   -3.6578 O.3       1 ATP        -0.8166
     13 O5'         3.2903    0.1346   -2.8241 O.3       1 ATP        -0.5510
     14 C5'         2.2816   -0.2918   -1.9206 C.3       1 ATP         0.2099
     15 C4'         2.7248    0.0226   -0.4980 C.3       1 ATP         0.0598
     16 O4'         2.4697    1.4219   -0.2462 O.3       1 ATP        -0.3455
     17 C3'         1.9404   -0.7419    0.5596 C.3       1 ATP         0.0742
     18 O3'         2.7418   -0.8086    1.7389 O.3       1 ATP        -0.6025
     19 C2'         0.7477    0.1630    0.7858 C.3       1 ATP         0.1145
     20 O2'         0.1373   -0.0577    2.0407 O.3       1 ATP        -0.5835
     21 C1'         1.3733    1.5427    0.6747 C.3       1 ATP         0.3776
     22 N9          0.4520    2.5240    0.1767 N.pl3     1 ATP        -0.4429
     23 C8          0.5691    3.2215   -0.9485 C.ar      1 ATP         0.2964
     24 N7         -0.4499    4.0551   -1.1342 N.pl3     1 ATP        -0.4957
     25 C5         -1.2618    3.8674   -0.0512 C.ar      1 ATP        -0.1346
     26 C6         -2.5420    4.5007    0.3120 C.ar      1 ATP         0.7213
     27 N6         -3.0874    5.3993   -0.4432 N.2       1 ATP        -0.8215
     28 N1         -3.0494    4.0205    1.5133 N.pl3     1 ATP        -0.8455
     29 C2         -2.3933    3.0527    2.2567 C.ar      1 ATP         0.6477
     30 N3         -1.2611    2.4796    1.9536 N.2       1 ATP        -0.5707
     31 C4         -0.7334    2.9358    0.7669 C.ar      1 ATP         0.2637
     32 HOG3        7.9947   -2.7660   -5.7157 H         1 ATP         0.4378
     33 H5'1        1.3514    0.2330   -2.1577 H         1 ATP         0.0340
     34 H5'2        2.1280   -1.3678   -2.0460 H         1 ATP         0.0340
     35 H4'         3.8044   -0.1397   -0.4040 H         1 ATP         0.0910
     36 H3'         1.6764   -1.7639    0.2728 H         1 ATP         0.0656
     37 HO3'        2.2232   -1.2979    2.3953 H         1 ATP         0.4386
     38 H2'        -0.0011    0.0027    0.0003 H         1 ATP         0.0788
     39 HO2'       -0.1563   -0.9855    2.0596 H         1 ATP         0.4363
     40 H1'         1.7826    1.9024    1.6451 H         1 ATP         0.1225
     41 H8          1.3912    3.1285   -1.6365 H         1 ATP         0.3824
     42 HN62       -3.9637    5.7083   -0.0142 H         1 ATP         0.4018
     43 H2         -2.9317    2.7866    3.1796 H         1 ATP         0.0652
     44 H44        -3.9307    4.3923    1.8558 H         1 ATP         0.4503
     45 H45        -0.5835    4.6857   -1.9122 H         1 ATP         0.5209
@<TRIPOS>BOND
     1    1    2 2
     2    1    3 1
     3    1    4 1
     4    1    8 1
     5    4   32 1
     6    5    6 2
     7    5    7 1
     8    5    8 1
     9    5   12 1
    10    9   10 2
    11    9   11 1
    12    9   12 1
    13    9   13 1
    14   13   14 1
    15   14   15 1
    16   14   33 1
    17   14   34 1
    18   15   16 1
    19   15   17 1
    20   15   35 1
    21   16   21 1
    22   17   18 1
    23   17   19 1
    24   17   36 1
    25   18   37 1
    26   19   20 1
    27   19   21 1
    28   19   38 1
    29   20   39 1
    30   21   22 1
    31   21   40 1
    32   22   23 ar
    33   22   31 ar
    34   23   24 ar
    35   23   41 1
    36   24   25 ar
    37   24   45 1
    38   25   26 ar
    39   25   31 ar
    40   26   27 2
    41   26   28 ar
    42   27   42 1
    43   28   29 ar
    44   28   44 1
    45   29   30 ar
    46   29   43 1
    47   30   31 ar
@<TRIPOS>SUBSTRUCTURE
     1 ATP         1 GROUP 0 A     ****
@<TRIPOS>MOLECULE
[[[3,4-dihydroxy-5-(6-imino-7,8-dihydro-1~{H}-purin-8-ylium-9-yl)tetrahydrofuran-2-yl]methoxy-oxido-phosphoryl]oxy-oxido-phosphoryl] hydrogen phosphate
   45    47     1     0     0
SMALL
USER_CHARGES

@<TRIPOS>ATOM
      1 PG         -4.1474   -1.4218    5.1032 P.3       1 ATP         1.5631
      2 O1G        -3.1295   -1.1754    4.0120 O.co2     1 ATP        -0.8806
      3 O2G        -4.0448   -0.7141    6.4360 O.co2     1 ATP        -0.8806
      4 O3G        -5.6381   -1.1601    4.4906 O.3       1 ATP        -0.8165
      5 PB         -3.1716   -4.0725    5.9780 P.3       1 ATP         1.6877
      6 O1B        -2.6812   -3.5373    7.3048 O.co2     1 ATP        -0.8727
      7 O2B        -3.7185   -5.4772    5.8539 O.co2     1 ATP        -0.8727
      8 O3B        -4.2669   -3.0283    5.3651 O.3       1 ATP        -0.8330
      9 PA         -0.5250   -4.5707    4.7525 P.3       1 ATP         1.6036
     10 O1A        -0.7110   -6.0496    4.4908 O.co2     1 ATP        -0.9062
     11 O2A         0.3209   -4.0907    5.9117 O.co2     1 ATP        -0.9062
     12 O3A        -1.9958   -3.8679    4.8643 O.3       1 ATP        -0.8166
     13 O5'         0.0118   -3.8395    3.3916 O.3       1 ATP        -0.5510
     14 C5'        -0.7840   -3.8935    2.2172 C.3       1 ATP         0.2099
     15 C4'        -0.0724   -3.1466    1.1027 C.3       1 ATP         0.0598
     16 O4'        -0.8674   -3.1929   -0.0945 O.3       1 ATP        -0.3455
     17 C3'         0.1338   -1.6715    1.4027 C.3       1 ATP         0.0742
     18 O3'         1.2893   -1.4445    2.1808 O.3       1 ATP        -0.6025
     19 C2'         0.2158   -1.0724    0.0128 C.3       1 ATP         0.1145
     20 O2'         1.5141   -1.2448   -0.5513 O.3       1 ATP        -0.5835
     21 C1'        -0.7897   -1.9176   -0.7583 C.3       1 ATP         0.3776
     22 N9         -2.1040   -1.3333   -0.7704 N.pl3     1 ATP        -0.4429
     23 C8         -3.2114   -1.8635   -0.2619 C.ar      1 ATP         0.2964
     24 N7         -4.2711   -1.0786   -0.4314 N.pl3     1 ATP        -0.4957
     25 C5         -3.7955    0.0193   -1.0917 C.ar      1 ATP        -0.1346
     26 C6         -4.4862    1.2344   -1.5586 C.ar      1 ATP         0.7213
     27 N6         -5.7554    1.4030   -1.3689 N.2       1 ATP        -0.8215
     28 N1         -3.6267    2.1218   -2.1949 N.pl3     1 ATP        -0.8455
     29 C2         -2.2761    1.8558   -2.3521 C.ar      1 ATP         0.6477
     30 N3         -1.6453    0.7881   -1.9466 N.2       1 ATP        -0.5707
     31 C4         -2.4722   -0.1108   -1.3117 C.ar      1 ATP         0.2637
     32 HOG3       -6.4128   -1.2799    5.0803 H         1 ATP         0.4378
     33 H5'1       -0.9348   -4.9415    1.9415 H         1 ATP         0.0340
     34 H5'2       -1.7548   -3.4350    2.4278 H         1 ATP         0.0340
     35 H4'         0.8874   -3.6466    0.8805 H         1 ATP         0.0910
     36 H3'        -0.7376   -1.2333    1.9867 H         1 ATP         0.0656
     37 HO3'        1.3408   -0.4870    2.3219 H         1 ATP         0.4386
     38 H2'        -0.0384   -0.0310    0.0096 H         1 ATP         0.0788
     39 HO2'        1.4998   -0.8412   -1.4369 H         1 ATP         0.4363
     40 H1'        -0.4769   -2.1002   -1.8093 H         1 ATP         0.1225
     41 H8         -3.2547   -2.8183    0.2325 H         1 ATP         0.3824
     42 HN62       -6.0352    2.3041   -1.7656 H         1 ATP         0.4018
     43 H2         -1.7412    2.6624   -2.8773 H         1 ATP         0.0652
     44 H44        -4.0029    2.9939   -2.5557 H         1 ATP         0.4503
     45 H45        -5.2179   -1.2649   -0.1322 H         1 ATP         0.5209
@<TRIPOS>BOND
     1    1    2 2
     2    1    3 1
     3    1    4 1
     4    1    8 1
     5    4   32 1
     6    5    6 2
     7    5    7 1
     8    5    8 1
     9    5   12 1
    10    9   10 2
    11    9   11 1
    12    9   12 1
    13    9   13 1
    14   13   14 1
    15   14   15 1
    16   14   33 1
    17   14   34 1
    18   15   16 1
    19   15   17 1
    20   15   35 1
    21   16   21 1
    22   17   18 1
    23   17   19 1
    24   17   36 1
    25   18   37 1
    26   19   20 1
    27   19   21 1
    28   19   38 1
    29   20   39 1
    30   21   22 1
    31   21   40 1
    32   22   23 ar
    33   22   31 ar
    34   23   24 ar
    35   23   41 1
    36   24   25 ar
    37   24   45 1
    38   25   26 ar
    39   25   31 ar
    40   26   27 2
    41   26   28 ar
    42   27   42 1
    43   28   29 ar
    44   28   44 1
    45   29   30 ar
    46   29   43 1
    47   30   31 ar
@<TRIPOS>SUBSTRUCTURE
     1 ATP         1 GROUP 0 A     ****
@<TRIPOS>MOLECULE
[[[3,4-dihydroxy-5-(6-imino-7,8-dihydro-1~{H}-purin-8-ylium-9-yl)tetrahydrofuran-2-yl]methoxy-oxido-phosphoryl]oxy-oxido-phosphoryl] hydrogen phosphate
   45    47     1     0     0
SMALL
USER_CHARGES

@<TRIPOS>ATOM
      1 PG         -3.1614    1.2026    5.7471 P.3       1 ATP         1.5631
      2 O1G        -4.5771    0.8407    6.1372 O.co2     1 ATP        -0.8806
      3 O2G        -2.8875    2.3127    4.7570 O.co2     1 ATP        -0.8806
      4 O3G        -2.3083    1.4990    7.1074 O.3       1 ATP        -0.8165
      5 PB         -2.2053   -1.5829    6.0128 P.3       1 ATP         1.6877
      6 O1B        -1.3408   -1.3826    7.2375 O.co2     1 ATP        -0.8727
      7 O2B        -3.5586   -2.2512    6.1100 O.co2     1 ATP        -0.8727
      8 O3B        -2.3840   -0.1465    5.2577 O.3       1 ATP        -0.8330
      9 PA         -0.7215   -3.8652    4.8532 P.3       1 ATP         1.6036
     10 O1A        -1.8735   -4.8461    4.8225 O.co2     1 ATP        -0.9062
     11 O2A         0.3496   -3.9631    5.9175 O.co2     1 ATP        -0.9062
     12 O3A        -1.3248   -2.3468    4.8700 O.3       1 ATP        -0.8166
     13 O5'         0.0118   -3.8395    3.3916 O.3       1 ATP        -0.5510
     14 C5'        -0.7840   -3.8935    2.2172 C.3       1 ATP         0.2099
     15 C4'        -0.0724   -3.1466    1.1027 C.3       1 ATP         0.0598
     16 O4'        -0.8674   -3.1929   -0.0945 O.3       1 ATP        -0.3455
     17 C3'         0.1338   -1.6715    1.4027 C.3       1 ATP         0.0742
     18 O3'         1.2893   -1.4445    2.1808 O.3       1 ATP        -0.6025
     19 C2'         0.2158   -1.0724    0.0128 C.3       1 ATP         0.1145
     20 O2'         1.5141   -1.2448   -0.5513 O.3       1 ATP        -0.5835
     21 C1'        -0.7897   -1.9176   -0.7583 C.3       1 ATP         0.3776
     22 N9         -2.1040   -1.3333   -0.7704 N.pl3     1 ATP        -0.4429
     23 C8         -3.0590   -1.5123    0.1363 C.ar      1 ATP         0.2964
     24 N7         -4.1655   -0.8354   -0.1554 N.pl3     1 ATP        -0.4957
     25 C5         -3.8852   -0.1874   -1.3253 C.ar      1 ATP        -0.1346
     26 C6         -4.7113    0.7160   -2.1458 C.ar      1 ATP         0.7213
     27 N6         -5.9213    1.0209   -1.8021 N.2       1 ATP        -0.8215
     28 N1         -4.0411    1.1673   -3.2764 N.pl3     1 ATP        -0.8455
     29 C2         -2.7403    0.7865   -3.5638 C.ar      1 ATP         0.6477
     30 N3         -1.9921   -0.0108   -2.8519 N.2       1 ATP        -0.5707
     31 C4         -2.6302   -0.4747   -1.7239 C.ar      1 ATP         0.2637
     32 HOG3       -2.2208    0.7806    7.7695 H         1 ATP         0.4378
     33 H5'1       -0.9348   -4.9415    1.9415 H         1 ATP         0.0340
     34 H5'2       -1.7548   -3.4350    2.4278 H         1 ATP         0.0340
     35 H4'         0.8874   -3.6466    0.8805 H         1 ATP         0.0910
     36 H3'        -0.7376   -1.2333    1.9867 H         1 ATP         0.0656
     37 HO3'        1.1626   -1.9325    3.0084 H         1 ATP         0.4386
     38 H2'        -0.0384   -0.0310    0.0096 H         1 ATP         0.0788
     39 HO2'        1.4998   -0.8412   -1.4369 H         1 ATP         0.4363
     40 H1'        -0.4769   -2.1002   -1.8093 H         1 ATP         0.1225
     41 H8         -2.9569   -2.1323    1.0098 H         1 ATP         0.3824
     42 HN62       -6.3169    1.6552   -2.5012 H         1 ATP         0.4018
     43 H2         -2.3612    1.2343   -4.4957 H         1 ATP         0.0652
     44 H44        -4.5223    1.7976   -3.9117 H         1 ATP         0.4503
     45 H45        -5.0218   -0.8132    0.3804 H         1 ATP         0.5209
@<TRIPOS>BOND
     1    1    2 2
     2    1    3 1
     3    1    4 1
     4    1    8 1
     5    4   32 1
     6    5    6 2
     7    5    7 1
     8    5    8 1
     9    5   12 1
    10    9   10 2
    11    9   11 1
    12    9   12 1
    13    9   13 1
    14   13   14 1
    15   14   15 1
    16   14   33 1
    17   14   34 1
    18   15   16 1
    19   15   17 1
    20   15   35 1
    21   16   21 1
    22   17   18 1
    23   17   19 1
    24   17   36 1
    25   18   37 1
    26   19   20 1
    27   19   21 1
    28   19   38 1
    29   20   39 1
    30   21   22 1
    31   21   40 1
    32   22   23 ar
    33   22   31 ar
    34   23   24 ar
    35   23   41 1
    36   24   25 ar
    37   24   45 1
    38   25   26 ar
    39   25   31 ar
    40   26   27 2
    41   26   28 ar
    42   27   42 1
    43   28   29 ar
    44   28   44 1
    45   29   30 ar
    46   29   43 1
    47   30   31 ar
@<TRIPOS>SUBSTRUCTURE
     1 ATP         1 GROUP 0 A     ****
@<TRIPOS>MOLECULE
[[[3,4-dihydroxy-5-(6-imino-7,8-dihydro-1~{H}-purin-8-ylium-9-yl)tetrahydrofuran-2-yl]methoxy-oxido-phosphoryl]oxy-oxido-phosphoryl] hydrogen phosphate
   45    47     1     0     0
SMALL
USER_CHARGES

@<TRIPOS>ATOM
      1 PG         -3.5277   -2.7610   -3.9791 P.3       1 ATP         1.5631
      2 O1G        -3.7886   -4.2454   -4.1058 O.co2     1 ATP        -0.8806
      3 O2G        -3.9424   -1.8027   -5.0733 O.co2     1 ATP        -0.8806
      4 O3G        -4.1621   -2.2416   -2.5671 O.3       1 ATP        -0.8165
      5 PB         -0.6289   -2.8068   -4.5607 P.3       1 ATP         1.6877
      6 O1B        -0.4885   -4.2988   -4.7648 O.co2     1 ATP        -0.8727
      7 O2B        -0.6446   -1.8535   -5.7348 O.co2     1 ATP        -0.8727
      8 O3B        -1.9483   -2.5262   -3.6410 O.3       1 ATP        -0.8330
      9 PA          2.1372   -2.2718   -3.6563 P.3       1 ATP         1.6036
     10 O1A         2.4977   -1.2667   -4.7287 O.co2     1 ATP        -0.9062
     11 O2A         2.6452   -3.6953   -3.7281 O.co2     1 ATP        -0.9062
     12 O3A         0.5112   -2.3140   -3.5013 O.3       1 ATP        -0.8166
     13 O5'         2.5245   -1.6648   -2.1878 O.3       1 ATP        -0.5510
     14 C5'         2.2816   -0.2918   -1.9206 C.3       1 ATP         0.2099
     15 C4'         2.7248    0.0226   -0.4980 C.3       1 ATP         0.0598
     16 O4'         2.4697    1.4219   -0.2462 O.3       1 ATP        -0.3455
     17 C3'         1.9404   -0.7419    0.5596 C.3       1 ATP         0.0742
     18 O3'         2.7418   -0.8086    1.7389 O.3       1 ATP        -0.6025
     19 C2'         0.7477    0.1630    0.7858 C.3       1 ATP         0.1145
     20 O2'         0.1373   -0.0577    2.0407 O.3       1 ATP        -0.5835
     21 C1'         1.3733    1.5427    0.6747 C.3       1 ATP         0.3776
     22 N9          0.4520    2.5240    0.1767 N.pl3     1 ATP        -0.4429
     23 C8         -0.6821    2.9098    0.7521 C.ar      1 ATP         0.2964
     24 N7         -1.3175    3.8384    0.0437 N.pl3     1 ATP        -0.4957
     25 C5         -0.5274    4.0494   -1.0512 C.ar      1 ATP        -0.1346
     26 C6         -0.6966    4.9597   -2.1977 C.ar      1 ATP         0.7213
     27 N6         -1.7259    5.7385   -2.2937 N.2       1 ATP        -0.8215
     28 N1          0.3493    4.8663   -3.1079 N.pl3     1 ATP        -0.8455
     29 C2          1.4148    4.0005   -2.9208 C.ar      1 ATP         0.6477
     30 N3          1.5838    3.1876   -1.9144 N.2       1 ATP        -0.5707
     31 C4          0.5619    3.2578   -0.9949 C.ar      1 ATP         0.2637
     32 HOG3       -4.0743   -1.2921   -2.3370 H         1 ATP         0.4378
     33 H5'1        2.8432    0.3119   -2.6398 H         1 ATP         0.0340
     34 H5'2        1.2128   -0.0927   -2.0428 H         1 ATP         0.0340
     35 H4'         3.8044   -0.1397   -0.4040 H         1 ATP         0.0910
     36 H3'         1.6764   -1.7639    0.2728 H         1 ATP         0.0656
     37 HO3'        2.2232   -1.2979    2.3953 H         1 ATP         0.4386
     38 H2'        -0.0011    0.0027    0.0003 H         1 ATP         0.0788
     39 HO2'       -0.1563   -0.9855    2.0596 H         1 ATP         0.4363
     40 H1'         1.7826    1.9024    1.6451 H         1 ATP         0.1225
     41 H8         -1.0516    2.5207    1.6849 H         1 ATP         0.3824
     42 HN62       -1.6520    6.2842   -3.1564 H         1 ATP         0.4018
     43 H2          2.1542    4.0525   -3.7351 H         1 ATP         0.0652
     44 H44         0.3306    5.4533   -3.9370 H         1 ATP         0.4503
     45 H45        -2.1941    4.2838    0.2756 H         1 ATP         0.5209
@<TRIPOS>BOND
     1    1    2 2
     2    1    3 1
     3    1    4 1
     4    1    8 1
     5    4   32 1
     6    5    6 2
     7    5    7 1
     8    5    8 1
     9    5   12 1
    10    9   10 2
    11    9   11 1
    12    9   12 1
    13    9   13 1
    14   13   14 1
    15   14   15 1
    16   14   33 1
    17   14   34 1
    18   15   16 1
    19   15   17 1
    20   15   35 1
    21   16   21 1
    22   17   18 1
    23   17   19 1
    24   17   36 1
    25   18   37 1
    26   19   20 1
    27   19   21 1
    28   19   38 1
    29   20   39 1
    30   21   22 1
    31   21   40 1
    32   22   23 ar
    33   22   31 ar
    34   23   24 ar
    35   23   41 1
    36   24   25 ar
    37   24   45 1
    38   25   26 ar
    39   25   31 ar
    40   26   27 2
    41   26   28 ar
    42   27   42 1
    43   28   29 ar
    44   28   44 1
    45   29   30 ar
    46   29   43 1
    47   30   31 ar
@<TRIPOS>SUBSTRUCTURE
     1 ATP         1 GROUP 0 A     ****
@<TRIPOS>MOLECULE
[[[3,4-dihydroxy-5-(6-imino-7,8-dihydro-1~{H}-purin-8-ylium-9-yl)tetrahydrofuran-2-yl]methoxy-oxido-phosphoryl]oxy-oxido-phosphoryl] hydrogen phosphate
   45    47     1     0     0
SMALL
USER_CHARGES

@<TRIPOS>ATOM
      1 PG          1.4615   -3.9835   -7.3778 P.3       1 ATP         1.5631
      2 O1G         1.3778   -5.3164   -6.6680 O.co2     1 ATP        -0.8806
      3 O2G         2.2837   -3.8239   -8.6373 O.co2     1 ATP        -0.8806
      4 O3G        -0.0555   -3.4603   -7.6793 O.3       1 ATP        -0.8165
      5 PB          2.0066   -1.2178   -6.4849 P.3       1 ATP         1.6877
      6 O1B         3.1144   -0.9047   -7.4658 O.co2     1 ATP        -0.8727
      7 O2B         0.6114   -0.6663   -6.6767 O.co2     1 ATP        -0.8727
      8 O3B         1.9090   -2.8376   -6.3052 O.3       1 ATP        -0.8330
      9 PA          2.8621    0.6170   -4.3270 P.3       1 ATP         1.6036
     10 O1A         1.5883    1.4306   -4.2519 O.co2     1 ATP        -0.9062
     11 O2A         4.0923    1.1678   -5.0148 O.co2     1 ATP        -0.9062
     12 O3A         2.5170   -0.8400   -4.9811 O.3       1 ATP        -0.8166
     13 O5'         3.2903    0.1346   -2.8241 O.3       1 ATP        -0.5510
     14 C5'         2.2816   -0.2918   -1.9206 C.3       1 ATP         0.2099
     15 C4'         2.7248    0.0226   -0.4980 C.3       1 ATP         0.0598
     16 O4'         2.4697    1.4219   -0.2462 O.3       1 ATP        -0.3455
     17 C3'         1.9404   -0.7419    0.5596 C.3       1 ATP         0.0742
     18 O3'         2.7418   -0.8086    1.7389 O.3       1 ATP        -0.6025
     19 C2'         0.7477    0.1630    0.7858 C.3       1 ATP         0.1145
     20 O2'         0.1373   -0.0577    2.0407 O.3       1 ATP        -0.5835
     21 C1'         1.3733    1.5427    0.6747 C.3       1 ATP         0.3776
     22 N9          0.4520    2.5240    0.1767 N.pl3     1 ATP        -0.4429
     23 C8          0.5691    3.2215   -0.9485 C.ar      1 ATP         0.2964
     24 N7         -0.4499    4.0551   -1.1342 N.pl3     1 ATP        -0.4957
     25 C5         -1.2618    3.8674   -0.0512 C.ar      1 ATP        -0.1346
     26 C6         -2.5420    4.5007    0.3120 C.ar      1 ATP         0.7213
     27 N6         -3.0874    5.3993   -0.4432 N.2       1 ATP        -0.8215
     28 N1         -3.0494    4.0205    1.5133 N.pl3     1 ATP        -0.8455
     29 C2         -2.3933    3.0527    2.2567 C.ar      1 ATP         0.6477
     30 N3         -1.2611    2.4796    1.9536 N.2       1 ATP        -0.5707
     31 C4         -0.7334    2.9358    0.7669 C.ar      1 ATP         0.2637
     32 HOG3       -0.1704   -2.6015   -8.1391 H         1 ATP         0.4378
     33 H5'1        1.3514    0.2330   -2.1577 H         1 ATP         0.0340
     34 H5'2        2.1280   -1.3678   -2.0460 H         1 ATP         0.0340
     35 H4'         3.8044   -0.1397   -0.4040 H         1 ATP         0.0910
     36 H3'         1.6764   -1.7639    0.2728 H         1 ATP         0.0656
     37 HO3'        3.5554   -1.2733    1.4914 H         1 ATP         0.4386
     38 H2'        -0.0011    0.0027    0.0003 H         1 ATP         0.0788
     39 HO2'        0.8082    0.1199    2.7232 H         1 ATP         0.4363
     40 H1'         1.7826    1.9024    1.6451 H         1 ATP         0.1225
     41 H8          1.3912    3.1285   -1.6365 H         1 ATP         0.3824
     42 HN62       -3.9637    5.7083   -0.0142 H         1 ATP         0.4018
     43 H2         -2.9317    2.7866    3.1796 H         1 ATP         0.0652
     44 H44        -3.9307    4.3923    1.8558 H         1 ATP         0.4503
     45 H45        -0.5835    4.6857   -1.9122 H         1 ATP         0.5209
@<TRIPOS>BOND
     1    1    2 2
     2    1    3 1
     3    1    4 1
     4    1    8 1
     5    4   32 1
     6    5    6 2
     7    5    7 1
     8    5    8 1
     9    5   12 1
    10    9   10 2
    11    9   11 1
    12    9   12 1
    13    9   13 1
    14   13   14 1
    15   14   15 1
    16   14   33 1
    17   14   34 1
    18   15   16 1
    19   15   17 1
    20   15   35 1
    21   16   21 1
    22   17   18 1
    23   17   19 1
    24   17   36 1
    25   18   37 1
    26   19   20 1
    27   19   21 1
    28   19   38 1
    29   20   39 1
    30   21   22 1
    31   21   40 1
    32   22   23 ar
    33   22   31 ar
    34   23   24 ar
    35   23   41 1
    36   24   25 ar
    37   24   45 1
    38   25   26 ar
    39   25   31 ar
    40   26   27 2
    41   26   28 ar
    42   27   42 1
    43   28   29 ar
    44   28   44 1
    45   29   30 ar
    46   29   43 1
    47   30   31 ar
@<TRIPOS>SUBSTRUCTURE
     1 ATP         1 GROUP 0 A     ****
@<TRIPOS>MOLECULE
[[[3,4-dihydroxy-5-(6-imino-7,8-dihydro-1~{H}-purin-8-ylium-9-yl)tetrahydrofuran-2-yl]methoxy-oxido-phosphoryl]oxy-oxido-phosphoryl] hydrogen phosphate
   45    47     1     0     0
SMALL
USER_CHARGES

@<TRIPOS>ATOM
      1 PG         -5.2297   -3.1598   -2.4874 P.3       1 ATP         1.5631
      2 O1G        -4.4396   -2.2236   -3.3743 O.co2     1 ATP        -0.8806
      3 O2G        -6.5143   -2.7078   -1.8292 O.co2     1 ATP        -0.8806
      4 O3G        -5.5285   -4.5330   -3.3187 O.3       1 ATP        -0.8165
      5 PB         -4.5164   -4.9354   -0.2331 P.3       1 ATP         1.6877
      6 O1B        -5.5385   -4.4234    0.7572 O.co2     1 ATP        -0.8727
      7 O2B        -4.7100   -6.2544   -0.9474 O.co2     1 ATP        -0.8727
      8 O3B        -4.2379   -3.7735   -1.3458 O.3       1 ATP        -0.8330
      9 PA         -2.4917   -5.8416    1.7251 P.3       1 ATP         1.6036
     10 O1A        -2.4374   -7.2893    1.2876 O.co2     1 ATP        -0.9062
     11 O2A        -3.2382   -5.4398    2.9785 O.co2     1 ATP        -0.9062
     12 O3A        -3.0495   -4.9381    0.4832 O.3       1 ATP        -0.8166
     13 O5'        -0.9724   -5.2440    1.8220 O.3       1 ATP        -0.5510
     14 C5'        -0.7840   -3.8935    2.2172 C.3       1 ATP         0.2099
     15 C4'        -0.0724   -3.1466    1.1027 C.3       1 ATP         0.0598
     16 O4'        -0.8674   -3.1929   -0.0945 O.3       1 ATP        -0.3455
     17 C3'         0.1338   -1.6715    1.4027 C.3       1 ATP         0.0742
     18 O3'         1.2893   -1.4445    2.1808 O.3       1 ATP        -0.6025
     19 C2'         0.2158   -1.0724    0.0128 C.3       1 ATP         0.1145
     20 O2'         1.5141   -1.2448   -0.5513 O.3       1 ATP        -0.5835
     21 C1'        -0.7897   -1.9176   -0.7583 C.3       1 ATP         0.3776
     22 N9         -2.1040   -1.3333   -0.7704 N.pl3     1 ATP        -0.4429
     23 C8         -3.0590   -1.5123    0.1363 C.ar      1 ATP         0.2964
     24 N7         -4.1655   -0.8354   -0.1554 N.pl3     1 ATP        -0.4957
     25 C5         -3.8852   -0.1874   -1.3253 C.ar      1 ATP        -0.1346
     26 C6         -4.7113    0.7160   -2.1458 C.ar      1 ATP         0.7213
     27 N6         -5.9213    1.0209   -1.8021 N.2       1 ATP        -0.8215
     28 N1         -4.0411    1.1673   -3.2764 N.pl3     1 ATP        -0.8455
     29 C2         -2.7403    0.7865   -3.5638 C.ar      1 ATP         0.6477
     30 N3         -1.9921   -0.0108   -2.8519 N.2       1 ATP        -0.5707
     31 C4         -2.6302   -0.4747   -1.7239 C.ar      1 ATP         0.2637
     32 HOG3       -6.0363   -5.2459   -2.8757 H         1 ATP         0.4378
     33 H5'1       -1.7618   -3.4448    2.4164 H         1 ATP         0.0340
     34 H5'2       -0.1874   -3.8744    3.1341 H         1 ATP         0.0340
     35 H4'         0.8874   -3.6466    0.8805 H         1 ATP         0.0910
     36 H3'        -0.7376   -1.2333    1.9867 H         1 ATP         0.0656
     37 HO3'        1.1626   -1.9325    3.0084 H         1 ATP         0.4386
     38 H2'        -0.0384   -0.0310    0.0096 H         1 ATP         0.0788
     39 HO2'        1.6843   -2.2021   -0.5965 H         1 ATP         0.4363
     40 H1'        -0.4769   -2.1002   -1.8093 H         1 ATP         0.1225
     41 H8         -2.9569   -2.1323    1.0098 H         1 ATP         0.3824
     42 HN62       -6.3169    1.6552   -2.5012 H         1 ATP         0.4018
     43 H2         -2.3612    1.2343   -4.4957 H         1 ATP         0.0652
     44 H44        -4.5223    1.7976   -3.9117 H         1 ATP         0.4503
     45 H45        -5.0218   -0.8132    0.3804 H         1 ATP         0.5209
@<TRIPOS>BOND
     1    1    2 2
     2    1    3 1
     3    1    4 1
     4    1    8 1
     5    4   32 1
     6    5    6 2
     7    5    7 1
     8    5    8 1
     9    5   12 1
    10    9   10 2
    11    9   11 1
    12    9   12 1
    13    9   13 1
    14   13   14 1
    15   14   15 1
    16   14   33 1
    17   14   34 1
    18   15   16 1
    19   15   17 1
    20   15   35 1
    21   16   21 1
    22   17   18 1
    23   17   19 1
    24   17   36 1
    25   18   37 1
    26   19   20 1
    27   19   21 1
    28   19   38 1
    29   20   39 1
    30   21   22 1
    31   21   40 1
    32   22   23 ar
    33   22   31 ar
    34   23   24 ar
    35   23   41 1
    36   24   25 ar
    37   24   45 1
    38   25   26 ar
    39   25   31 ar
    40   26   27 2
    41   26   28 ar
    42   27   42 1
    43   28   29 ar
    44   28   44 1
    45   29   30 ar
    46   29   43 1
    47   30   31 ar
@<TRIPOS>SUBSTRUCTURE
     1 ATP         1 GROUP 0 A     ****
@<TRIPOS>MOLECULE
[[[3,4-dihydroxy-5-(6-imino-7,8-dihydro-1~{H}-purin-8-ylium-9-yl)tetrahydrofuran-2-yl]methoxy-oxido-phosphoryl]oxy-oxido-phosphoryl] hydrogen phosphate
   45    47     1     0     0
SMALL
USER_CHARGES

@<TRIPOS>ATOM
      1 PG          2.8939   -5.6584    6.9937 P.3       1 ATP         1.5631
      2 O1G         3.7832   -4.5690    6.4373 O.co2     1 ATP        -0.8806
      3 O2G         3.4314   -7.0507    7.2395 O.co2     1 ATP        -0.8806
      4 O3G         2.2102   -5.1156    8.3735 O.3       1 ATP        -0.8165
      5 PB          1.3743   -6.2428    4.5253 P.3       1 ATP         1.6877
      6 O1B         2.0519   -5.2313    3.6281 O.co2     1 ATP        -0.8727
      7 O2B         1.7020   -7.7164    4.4320 O.co2     1 ATP        -0.8727
      8 O3B         1.5479   -5.7653    6.0770 O.3       1 ATP        -0.8330
      9 PA         -1.2302   -6.3291    3.1238 P.3       1 ATP         1.6036
     10 O1A        -2.6254   -5.8657    3.4829 O.co2     1 ATP        -0.9062
     11 O2A        -0.9870   -7.7372    2.6259 O.co2     1 ATP        -0.9062
     12 O3A        -0.2423   -6.0566    4.3965 O.3       1 ATP        -0.8166
     13 O5'        -0.5687   -5.2869    2.0510 O.3       1 ATP        -0.5510
     14 C5'        -0.7840   -3.8935    2.2172 C.3       1 ATP         0.2099
     15 C4'        -0.0724   -3.1466    1.1027 C.3       1 ATP         0.0598
     16 O4'        -0.8674   -3.1929   -0.0945 O.3       1 ATP        -0.3455
     17 C3'         0.1338   -1.6715    1.4027 C.3       1 ATP         0.0742
     18 O3'         1.2893   -1.4445    2.1808 O.3       1 ATP        -0.6025
     19 C2'         0.2158   -1.0724    0.0128 C.3       1 ATP         0.1145
     20 O2'         1.5141   -1.2448   -0.5513 O.3       1 ATP        -0.5835
     21 C1'        -0.7897   -1.9176   -0.7583 C.3       1 ATP         0.3776
     22 N9         -2.1040   -1.3333   -0.7704 N.pl3     1 ATP        -0.4429
     23 C8         -3.2114   -1.8635   -0.2619 C.ar      1 ATP         0.2964
     24 N7         -4.2711   -1.0786   -0.4314 N.pl3     1 ATP        -0.4957
     25 C5         -3.7955    0.0193   -1.0917 C.ar      1 ATP        -0.1346
     26 C6         -4.4862    1.2344   -1.5586 C.ar      1 ATP         0.7213
     27 N6         -5.7554    1.4030   -1.3689 N.2       1 ATP        -0.8215
     28 N1         -3.6267    2.1218   -2.1949 N.pl3     1 ATP        -0.8455
     29 C2         -2.2761    1.8558   -2.3521 C.ar      1 ATP         0.6477
     30 N3         -1.6453    0.7881   -1.9466 N.2       1 ATP        -0.5707
     31 C4         -2.4722   -0.1108   -1.3117 C.ar      1 ATP         0.2637
     32 HOG3        1.6008   -5.7119    8.8586 H         1 ATP         0.4378
     33 H5'1       -1.8598   -3.6968    2.1850 H         1 ATP         0.0340
     34 H5'2       -0.3933   -3.5903    3.1931 H         1 ATP         0.0340
     35 H4'         0.8874   -3.6466    0.8805 H         1 ATP         0.0910
     36 H3'        -0.7376   -1.2333    1.9867 H         1 ATP         0.0656
     37 HO3'        1.3408   -0.4870    2.3219 H         1 ATP         0.4386
     38 H2'        -0.0384   -0.0310    0.0096 H         1 ATP         0.0788
     39 HO2'        2.1463   -0.7958    0.0370 H         1 ATP         0.4363
     40 H1'        -0.4769   -2.1002   -1.8093 H         1 ATP         0.1225
     41 H8         -3.2547   -2.8183    0.2325 H         1 ATP         0.3824
     42 HN62       -6.0352    2.3041   -1.7656 H         1 ATP         0.4018
     43 H2         -1.7412    2.6624   -2.8773 H         1 ATP         0.0652
     44 H44        -4.0029    2.9939   -2.5557 H         1 ATP         0.4503
     45 H45        -5.2179   -1.2649   -0.1322 H         1 ATP         0.5209
@<TRIPOS>BOND
     1    1    2 2
     2    1    3 1
     3    1    4 1
     4    1    8 1
     5    4   32 1
     6    5    6 2
     7    5    7 1
     8    5    8 1
     9    5   12 1
    10    9   10 2
    11    9   11 1
    12    9   12 1
    13    9   13 1
    14   13   14 1
    15   14   15 1
    16   14   33 1
    17   14   34 1
    18   15   16 1
    19   15   17 1
    20   15   35 1
    21   16   21 1
    22   17   18 1
    23   17   19 1
    24   17   36 1
    25   18   37 1
    26   19   20 1
    27   19   21 1
    28   19   38 1
    29   20   39 1
    30   21   22 1
    31   21   40 1
    32   22   23 ar
    33   22   31 ar
    34   23   24 ar
    35   23   41 1
    36   24   25 ar
    37   24   45 1
    38   25   26 ar
    39   25   31 ar
    40   26   27 2
    41   26   28 ar
    42   27   42 1
    43   28   29 ar
    44   28   44 1
    45   29   30 ar
    46   29   43 1
    47   30   31 ar
@<TRIPOS>SUBSTRUCTURE
     1 ATP         1 GROUP 0 A     ****
@<TRIPOS>MOLECULE
[[[3,4-dihydroxy-5-(6-imino-7,8-dihydro-1~{H}-purin-8-ylium-9-yl)tetrahydrofuran-2-yl]methoxy-oxido-phosphoryl]oxy-oxido-phosphoryl] hydrogen phosphate
   45    47     1     0     0
SMALL
USER_CHARGES

@<TRIPOS>ATOM
      1 PG          6.1498   -0.4199   -5.5613 P.3       1 ATP         1.5631
      2 O1G         6.9673   -1.5456   -6.1546 O.co2     1 ATP        -0.8806
      3 O2G         5.9779   -0.2895   -4.0642 O.co2     1 ATP        -0.8806
      4 O3G         6.7177    0.9960   -6.1432 O.3       1 ATP        -0.8165
      5 PB          3.4664   -1.4950   -6.1831 P.3       1 ATP         1.6877
      6 O1B         2.2520   -0.9254   -6.8820 O.co2     1 ATP        -0.8727
      7 O2B         4.0141   -2.8564   -6.5492 O.co2     1 ATP        -0.8727
      8 O3B         4.6779   -0.4037   -6.2661 O.3       1 ATP        -0.8330
      9 PA          2.1372   -2.2718   -3.6563 P.3       1 ATP         1.6036
     10 O1A         2.4859   -3.7437   -3.7017 O.co2     1 ATP        -0.9062
     11 O2A         0.7459   -1.7951   -4.0125 O.co2     1 ATP        -0.9062
     12 O3A         3.2120   -1.4489   -4.5713 O.3       1 ATP        -0.8166
     13 O5'         2.5245   -1.6648   -2.1878 O.3       1 ATP        -0.5510
     14 C5'         2.2816   -0.2918   -1.9206 C.3       1 ATP         0.2099
     15 C4'         2.7248    0.0226   -0.4980 C.3       1 ATP         0.0598
     16 O4'         2.4697    1.4219   -0.2462 O.3       1 ATP        -0.3455
     17 C3'         1.9404   -0.7419    0.5596 C.3       1 ATP         0.0742
     18 O3'         2.7418   -0.8086    1.7389 O.3       1 ATP        -0.6025
     19 C2'         0.7477    0.1630    0.7858 C.3       1 ATP         0.1145
     20 O2'         0.1373   -0.0577    2.0407 O.3       1 ATP        -0.5835
     21 C1'         1.3733    1.5427    0.6747 C.3       1 ATP         0.3776
     22 N9          0.4520    2.5240    0.1767 N.pl3     1 ATP        -0.4429
     23 C8         -0.3347    3.3121    0.9021 C.ar      1 ATP         0.2964
     24 N7         -1.0768    4.1172    0.1479 N.pl3     1 ATP        -0.4957
     25 C5         -0.7318    3.8130   -1.1389 C.ar      1 ATP        -0.1346
     26 C6         -1.2094    4.3661   -2.4187 C.ar      1 ATP         0.7213
     27 N6         -2.1040    5.3007   -2.4569 N.2       1 ATP        -0.8215
     28 N1         -0.5949    3.7732   -3.5151 N.pl3     1 ATP        -0.8455
     29 C2          0.3569    2.7758   -3.3770 C.ar      1 ATP         0.6477
     30 N3          0.7934    2.2726   -2.2552 N.2       1 ATP        -0.5707
     31 C4          0.2019    2.8412   -1.1500 C.ar      1 ATP         0.2637
     32 HOG3        6.2878    1.8274   -5.8496 H         1 ATP         0.4378
     33 H5'1        2.8432    0.3119   -2.6398 H         1 ATP         0.0340
     34 H5'2        1.2128   -0.0927   -2.0428 H         1 ATP         0.0340
     35 H4'         3.8044   -0.1397   -0.4040 H         1 ATP         0.0910
     36 H3'         1.6764   -1.7639    0.2728 H         1 ATP         0.0656
     37 HO3'        2.2232   -1.2979    2.3953 H         1 ATP         0.4386
     38 H2'        -0.0011    0.0027    0.0003 H         1 ATP         0.0788
     39 HO2'       -0.6141    0.5574    2.1082 H         1 ATP         0.4363
     40 H1'         1.7826    1.9024    1.6451 H         1 ATP         0.1225
     41 H8         -0.3729    3.3063    1.9775 H         1 ATP         0.3824
     42 HN62       -2.2940    5.5408   -3.4335 H         1 ATP         0.4018
     43 H2          0.7413    2.4168   -4.3445 H         1 ATP         0.0652
     44 H44        -0.8531    4.0829   -4.4476 H         1 ATP         0.4503
     45 H45        -1.7471    4.8016    0.4689 H         1 ATP         0.5209
@<TRIPOS>BOND
     1    1    2 2
     2    1    3 1
     3    1    4 1
     4    1    8 1
     5    4   32 1
     6    5    6 2
     7    5    7 1
     8    5    8 1
     9    5   12 1
    10    9   10 2
    11    9   11 1
    12    9   12 1
    13    9   13 1
    14   13   14 1
    15   14   15 1
    16   14   33 1
    17   14   34 1
    18   15   16 1
    19   15   17 1
    20   15   35 1
    21   16   21 1
    22   17   18 1
    23   17   19 1
    24   17   36 1
    25   18   37 1
    26   19   20 1
    27   19   21 1
    28   19   38 1
    29   20   39 1
    30   21   22 1
    31   21   40 1
    32   22   23 ar
    33   22   31 ar
    34   23   24 ar
    35   23   41 1
    36   24   25 ar
    37   24   45 1
    38   25   26 ar
    39   25   31 ar
    40   26   27 2
    41   26   28 ar
    42   27   42 1
    43   28   29 ar
    44   28   44 1
    45   29   30 ar
    46   29   43 1
    47   30   31 ar
@<TRIPOS>SUBSTRUCTURE
     1 ATP         1 GROUP 0 A     ****
@<TRIPOS>MOLECULE
[[[3,4-dihydroxy-5-(6-imino-7,8-dihydro-1~{H}-purin-8-ylium-9-yl)tetrahydrofuran-2-yl]methoxy-oxido-phosphoryl]oxy-oxido-phosphoryl] hydrogen phosphate
   45    47     1     0     0
SMALL
USER_CHARGES

@<TRIPOS>ATOM
      1 PG          3.7351   -5.6169   -5.6103 P.3       1 ATP         1.5631
      2 O1G         3.8934   -6.5823   -4.4569 O.co2     1 ATP        -0.8806
      3 O2G         4.7220   -5.6067   -6.7565 O.co2     1 ATP        -0.8806
      4 O3G         2.2308   -5.7828   -6.2229 O.3       1 ATP        -0.8165
      5 PB          3.2549   -2.7049   -5.7930 P.3       1 ATP         1.6877
      6 O1B         4.4052   -2.3691   -6.7158 O.co2     1 ATP        -0.8727
      7 O2B         1.8330   -2.7677   -6.3046 O.co2     1 ATP        -0.8727
      8 O3B         3.5951   -4.1019   -5.0195 O.3       1 ATP        -0.8330
      9 PA          3.0675   -0.0857   -4.4293 P.3       1 ATP         1.6036
     10 O1A         1.6267    0.2117   -4.7841 O.co2     1 ATP        -0.9062
     11 O2A         4.2015    0.5978   -5.1618 O.co2     1 ATP        -0.9062
     12 O3A         3.3051   -1.7004   -4.5072 O.3       1 ATP        -0.8166
     13 O5'         3.2903    0.1346   -2.8241 O.3       1 ATP        -0.5510
     14 C5'         2.2816   -0.2918   -1.9206 C.3       1 ATP         0.2099
     15 C4'         2.7248    0.0226   -0.4980 C.3       1 ATP         0.0598
     16 O4'         2.4697    1.4219   -0.2462 O.3       1 ATP        -0.3455
     17 C3'         1.9404   -0.7419    0.5596 C.3       1 ATP         0.0742
     18 O3'         2.7418   -0.8086    1.7389 O.3       1 ATP        -0.6025
     19 C2'         0.7477    0.1630    0.7858 C.3       1 ATP         0.1145
     20 O2'         0.1373   -0.0577    2.0407 O.3       1 ATP        -0.5835
     21 C1'         1.3733    1.5427    0.6747 C.3       1 ATP         0.3776
     22 N9          0.4520    2.5240    0.1767 N.pl3     1 ATP        -0.4429
     23 C8         -0.6821    2.9098    0.7521 C.ar      1 ATP         0.2964
     24 N7         -1.3175    3.8384    0.0437 N.pl3     1 ATP        -0.4957
     25 C5         -0.5274    4.0494   -1.0512 C.ar      1 ATP        -0.1346
     26 C6         -0.6966    4.9597   -2.1977 C.ar      1 ATP         0.7213
     27 N6         -1.7259    5.7385   -2.2937 N.2       1 ATP        -0.8215
     28 N1          0.3493    4.8663   -3.1079 N.pl3     1 ATP        -0.8455
     29 C2          1.4148    4.0005   -2.9208 C.ar      1 ATP         0.6477
     30 N3          1.5838    3.1876   -1.9144 N.2       1 ATP        -0.5707
     31 C4          0.5619    3.2578   -0.9949 C.ar      1 ATP         0.2637
     32 HOG3        1.9717   -5.2201   -6.9835 H         1 ATP         0.4378
     33 H5'1        1.3514    0.2330   -2.1577 H         1 ATP         0.0340
     34 H5'2        2.1280   -1.3678   -2.0460 H         1 ATP         0.0340
     35 H4'         3.8044   -0.1397   -0.4040 H         1 ATP         0.0910
     36 H3'         1.6764   -1.7639    0.2728 H         1 ATP         0.0656
     37 HO3'        3.5554   -1.2733    1.4914 H         1 ATP         0.4386
     38 H2'        -0.0011    0.0027    0.0003 H         1 ATP         0.0788
     39 HO2'       -0.1563   -0.9855    2.0596 H         1 ATP         0.4363
     40 H1'         1.7826    1.9024    1.6451 H         1 ATP         0.1225
     41 H8         -1.0516    2.5207    1.6849 H         1 ATP         0.3824
     42 HN62       -1.6520    6.2842   -3.1564 H         1 ATP         0.4018
     43 H2          2.1542    4.0525   -3.7351 H         1 ATP         0.0652
     44 H44         0.3306    5.4533   -3.9370 H         1 ATP         0.4503
     45 H45        -2.1941    4.2838    0.2756 H         1 ATP         0.5209
@<TRIPOS>BOND
     1    1    2 2
     2    1    3 1
     3    1    4 1
     4    1    8 1
     5    4   32 1
     6    5    6 2
     7    5    7 1
     8    5    8 1
     9    5   12 1
    10    9   10 2
    11    9   11 1
    12    9   12 1
    13    9   13 1
    14   13   14 1
    15   14   15 1
    16   14   33 1
    17   14   34 1
    18   15   16 1
    19   15   17 1
    20   15   35 1
    21   16   21 1
    22   17   18 1
    23   17   19 1
    24   17   36 1
    25   18   37 1
    26   19   20 1
    27   19   21 1
    28   19   38 1
    29   20   39 1
    30   21   22 1
    31   21   40 1
    32   22   23 ar
    33   22   31 ar
    34   23   24 ar
    35   23   41 1
    36   24   25 ar
    37   24   45 1
    38   25   26 ar
    39   25   31 ar
    40   26   27 2
    41   26   28 ar
    42   27   42 1
    43   28   29 ar
    44   28   44 1
    45   29   30 ar
    46   29   43 1
    47   30   31 ar
@<TRIPOS>SUBSTRUCTURE
     1 ATP         1 GROUP 0 A     ****
@<TRIPOS>MOLECULE
[[[3,4-dihydroxy-5-(6-imino-7,8-dihydro-1~{H}-purin-8-ylium-9-yl)tetrahydrofuran-2-yl]methoxy-oxido-phosphoryl]oxy-oxido-phosphoryl] hydrogen phosphate
   45    47     1     0     0
SMALL
USER_CHARGES

@<TRIPOS>ATOM
      1 PG          1.0298   -3.5090   -7.2458 P.3       1 ATP         1.5631
      2 O1G        -0.3714   -3.2231   -7.7380 O.co2     1 ATP        -0.8806
      3 O2G         1.3826   -4.8494   -6.6403 O.co2     1 ATP        -0.8806
      4 O3G         2.0792   -3.1947   -8.4566 O.3       1 ATP        -0.8165
      5 PB          1.4827   -0.7072   -6.4161 P.3       1 ATP         1.6877
      6 O1B         2.5094   -0.3497   -7.4676 O.co2     1 ATP        -0.8727
      7 O2B         0.0511   -0.2316   -6.5254 O.co2     1 ATP        -0.8727
      8 O3B         1.4821   -2.3274   -6.2147 O.3       1 ATP        -0.8330
      9 PA          3.4844   -0.6652   -4.2374 P.3       1 ATP         1.6036
     10 O1A         4.6107   -0.0317   -5.0250 O.co2     1 ATP        -0.9062
     11 O2A         3.4852   -2.1497   -3.9439 O.co2     1 ATP        -0.9062
     12 O3A         2.0649   -0.2836   -4.9510 O.3       1 ATP        -0.8166
     13 O5'         3.2903    0.1346   -2.8241 O.3       1 ATP        -0.5510
     14 C5'         2.2816   -0.2918   -1.9206 C.3       1 ATP         0.2099
     15 C4'         2.7248    0.0226   -0.4980 C.3       1 ATP         0.0598
     16 O4'         2.4697    1.4219   -0.2462 O.3       1 ATP        -0.3455
     17 C3'         1.9404   -0.7419    0.5596 C.3       1 ATP         0.0742
     18 O3'         2.7418   -0.8086    1.7389 O.3       1 ATP        -0.6025
     19 C2'         0.7477    0.1630    0.7858 C.3       1 ATP         0.1145
     20 O2'         0.1373   -0.0577    2.0407 O.3       1 ATP        -0.5835
     21 C1'         1.3733    1.5427    0.6747 C.3       1 ATP         0.3776
     22 N9          0.4520    2.5240    0.1767 N.pl3     1 ATP        -0.4429
     23 C8          0.5691    3.2215   -0.9485 C.ar      1 ATP         0.2964
     24 N7         -0.4499    4.0551   -1.1342 N.pl3     1 ATP        -0.4957
     25 C5         -1.2618    3.8674   -0.0512 C.ar      1 ATP        -0.1346
     26 C6         -2.5420    4.5007    0.3120 C.ar      1 ATP         0.7213
     27 N6         -3.0874    5.3993   -0.4432 N.2       1 ATP        -0.8215
     28 N1         -3.0494    4.0205    1.5133 N.pl3     1 ATP        -0.8455
     29 C2         -2.3933    3.0527    2.2567 C.ar      1 ATP         0.6477
     30 N3         -1.2611    2.4796    1.9536 N.2       1 ATP        -0.5707
     31 C4         -0.7334    2.9358    0.7669 C.ar      1 ATP         0.2637
     32 HOG3        3.0364   -3.3325   -8.2924 H         1 ATP         0.4378
     33 H5'1        1.3514    0.2330   -2.1577 H         1 ATP         0.0340
     34 H5'2        2.1280   -1.3678   -2.0460 H         1 ATP         0.0340
     35 H4'         3.8044   -0.1397   -0.4040 H         1 ATP         0.0910
     36 H3'         1.6764   -1.7639    0.2728 H         1 ATP         0.0656
     37 HO3'        3.5554   -1.2733    1.4914 H         1 ATP         0.4386
     38 H2'        -0.0011    0.0027    0.0003 H         1 ATP         0.0788
     39 HO2'       -0.1563   -0.9855    2.0596 H         1 ATP         0.4363
     40 H1'         1.7826    1.9024    1.6451 H         1 ATP         0.1225
     41 H8          1.3912    3.1285   -1.6365 H         1 ATP         0.3824
     42 HN62       -3.9637    5.7083   -0.0142 H         1 ATP         0.4018
     43 H2         -2.9317    2.7866    3.1796 H         1 ATP         0.0652
     44 H44        -3.9307    4.3923    1.8558 H         1 ATP         0.4503
     45 H45        -0.5835    4.6857   -1.9122 H         1 ATP         0.5209
@<TRIPOS>BOND
     1    1    2 2
     2    1    3 1
     3    1    4 1
     4    1    8 1
     5    4   32 1
     6    5    6 2
     7    5    7 1
     8    5    8 1
     9    5   12 1
    10    9   10 2
    11    9   11 1
    12    9   12 1
    13    9   13 1
    14   13   14 1
    15   14   15 1
    16   14   33 1
    17   14   34 1
    18   15   16 1
    19   15   17 1
    20   15   35 1
    21   16   21 1
    22   17   18 1
    23   17   19 1
    24   17   36 1
    25   18   37 1
    26   19   20 1
    27   19   21 1
    28   19   38 1
    29   20   39 1
    30   21   22 1
    31   21   40 1
    32   22   23 ar
    33   22   31 ar
    34   23   24 ar
    35   23   41 1
    36   24   25 ar
    37   24   45 1
    38   25   26 ar
    39   25   31 ar
    40   26   27 2
    41   26   28 ar
    42   27   42 1
    43   28   29 ar
    44   28   44 1
    45   29   30 ar
    46   29   43 1
    47   30   31 ar
@<TRIPOS>SUBSTRUCTURE
     1 ATP         1 GROUP 0 A     ****
@<TRIPOS>MOLECULE
[[[3,4-dihydroxy-5-(6-imino-7,8-dihydro-1~{H}-purin-8-ylium-9-yl)tetrahydrofuran-2-yl]methoxy-oxido-phosphoryl]oxy-oxido-phosphoryl] hydrogen phosphate
   45    47     1     0     0
SMALL
USER_CHARGES

@<TRIPOS>ATOM
      1 PG         -3.2085   -8.9417    5.5448 P.3       1 ATP         1.5631
      2 O1G        -2.7032   -9.3929    6.8970 O.co2     1 ATP        -0.8806
      3 O2G        -3.2342   -9.8917    4.3681 O.co2     1 ATP        -0.8806
      4 O3G        -4.7021   -8.3098    5.7336 O.3       1 ATP        -0.8165
      5 PB         -2.2267   -6.1780    5.9211 P.3       1 ATP         1.6877
      6 O1B        -3.5737   -5.5014    6.0447 O.co2     1 ATP        -0.8727
      7 O2B        -1.3647   -6.4351    7.1370 O.co2     1 ATP        -0.8727
      8 O3B        -2.4185   -7.5815    5.1093 O.3       1 ATP        -0.8330
      9 PA         -0.7215   -3.8652    4.8532 P.3       1 ATP         1.6036
     10 O1A         0.3253   -3.7984    5.9441 O.co2     1 ATP        -0.9062
     11 O2A        -1.8707   -2.8812    4.8226 O.co2     1 ATP        -0.9062
     12 O3A        -1.3389   -5.3774    4.8095 O.3       1 ATP        -0.8166
     13 O5'         0.0118   -3.8395    3.3916 O.3       1 ATP        -0.5510
     14 C5'        -0.7840   -3.8935    2.2172 C.3       1 ATP         0.2099
     15 C4'        -0.0724   -3.1466    1.1027 C.3       1 ATP         0.0598
     16 O4'        -0.8674   -3.1929   -0.0945 O.3       1 ATP        -0.3455
     17 C3'         0.1338   -1.6715    1.4027 C.3       1 ATP         0.0742
     18 O3'         1.2893   -1.4445    2.1808 O.3       1 ATP        -0.6025
     19 C2'         0.2158   -1.0724    0.0128 C.3       1 ATP         0.1145
     20 O2'         1.5141   -1.2448   -0.5513 O.3       1 ATP        -0.5835
     21 C1'        -0.7897   -1.9176   -0.7583 C.3       1 ATP         0.3776
     22 N9         -2.1040   -1.3333   -0.7704 N.pl3     1 ATP        -0.4429
     23 C8         -3.0590   -1.5123    0.1363 C.ar      1 ATP         0.2964
     24 N7         -4.1655   -0.8354   -0.1554 N.pl3     1 ATP        -0.4957
     25 C5         -3.8852   -0.1874   -1.3253 C.ar      1 ATP        -0.1346
     26 C6         -4.7113    0.7160   -2.1458 C.ar      1 ATP         0.7213
     27 N6         -5.9213    1.0209   -1.8021 N.2       1 ATP        -0.8215
     28 N1         -4.0411    1.1673   -3.2764 N.pl3     1 ATP        -0.8455
     29 C2         -2.7403    0.7865   -3.5638 C.ar      1 ATP         0.6477
     30 N3         -1.9921   -0.0108   -2.8519 N.2       1 ATP        -0.5707
     31 C4         -2.6302   -0.4747   -1.7239 C.ar      1 ATP         0.2637
     32 HOG3       -5.1688   -7.9695    4.9407 H         1 ATP         0.4378
     33 H5'1       -0.9348   -4.9415    1.9415 H         1 ATP         0.0340
     34 H5'2       -1.7548   -3.4350    2.4278 H         1 ATP         0.0340
     35 H4'         0.8874   -3.6466    0.8805 H         1 ATP         0.0910
     36 H3'        -0.7376   -1.2333    1.9867 H         1 ATP         0.0656
     37 HO3'        1.1626   -1.9325    3.0084 H         1 ATP         0.4386
     38 H2'        -0.0384   -0.0310    0.0096 H         1 ATP         0.0788
     39 HO2'        2.1463   -0.7958    0.0370 H         1 ATP         0.4363
     40 H1'        -0.4769   -2.1002   -1.8093 H         1 ATP         0.1225
     41 H8         -2.9569   -2.1323    1.0098 H         1 ATP         0.3824
     42 HN62       -6.3169    1.6552   -2.5012 H         1 ATP         0.4018
     43 H2         -2.3612    1.2343   -4.4957 H         1 ATP         0.0652
     44 H44        -4.5223    1.7976   -3.9117 H         1 ATP         0.4503
     45 H45        -5.0218   -0.8132    0.3804 H         1 ATP         0.5209
@<TRIPOS>BOND
     1    1    2 2
     2    1    3 1
     3    1    4 1
     4    1    8 1
     5    4   32 1
     6    5    6 2
     7    5    7 1
     8    5    8 1
     9    5   12 1
    10    9   10 2
    11    9   11 1
    12    9   12 1
    13    9   13 1
    14   13   14 1
    15   14   15 1
    16   14   33 1
    17   14   34 1
    18   15   16 1
    19   15   17 1
    20   15   35 1
    21   16   21 1
    22   17   18 1
    23   17   19 1
    24   17   36 1
    25   18   37 1
    26   19   20 1
    27   19   21 1
    28   19   38 1
    29   20   39 1
    30   21   22 1
    31   21   40 1
    32   22   23 ar
    33   22   31 ar
    34   23   24 ar
    35   23   41 1
    36   24   25 ar
    37   24   45 1
    38   25   26 ar
    39   25   31 ar
    40   26   27 2
    41   26   28 ar
    42   27   42 1
    43   28   29 ar
    44   28   44 1
    45   29   30 ar
    46   29   43 1
    47   30   31 ar
@<TRIPOS>SUBSTRUCTURE
     1 ATP         1 GROUP 0 A     ****
@<TRIPOS>MOLECULE
[[[3,4-dihydroxy-5-(6-imino-7,8-dihydro-1~{H}-purin-8-ylium-9-yl)tetrahydrofuran-2-yl]methoxy-oxido-phosphoryl]oxy-oxido-phosphoryl] hydrogen phosphate
   45    47     1     0     0
SMALL
USER_CHARGES

@<TRIPOS>ATOM
      1 PG         -1.2713   -9.7265    4.6691 P.3       1 ATP         1.5631
      2 O1G        -2.7822   -9.6586    4.6758 O.co2     1 ATP        -0.8806
      3 O2G        -0.5099  -10.2173    5.8803 O.co2     1 ATP        -0.8806
      4 O3G        -0.7970  -10.5962    3.3711 O.3       1 ATP        -0.8165
      5 PB          0.8612   -7.8261    3.9046 P.3       1 ATP         1.6877
      6 O1B         1.6622   -7.8971    5.1856 O.co2     1 ATP        -0.8727
      7 O2B         1.3230   -8.5361    2.6516 O.co2     1 ATP        -0.8727
      8 O3B        -0.6763   -8.2736    4.2232 O.3       1 ATP        -0.8330
      9 PA         -0.0649   -5.0721    4.4638 P.3       1 ATP         1.6036
     10 O1A         0.8648   -4.7899    5.6242 O.co2     1 ATP        -0.9062
     11 O2A        -1.5225   -5.4005    4.7026 O.co2     1 ATP        -0.9062
     12 O3A         0.5851   -6.2576    3.5463 O.3       1 ATP        -0.8166
     13 O5'         0.0118   -3.8395    3.3916 O.3       1 ATP        -0.5510
     14 C5'        -0.7840   -3.8935    2.2172 C.3       1 ATP         0.2099
     15 C4'        -0.0724   -3.1466    1.1027 C.3       1 ATP         0.0598
     16 O4'        -0.8674   -3.1929   -0.0945 O.3       1 ATP        -0.3455
     17 C3'         0.1338   -1.6715    1.4027 C.3       1 ATP         0.0742
     18 O3'         1.2893   -1.4445    2.1808 O.3       1 ATP        -0.6025
     19 C2'         0.2158   -1.0724    0.0128 C.3       1 ATP         0.1145
     20 O2'         1.5141   -1.2448   -0.5513 O.3       1 ATP        -0.5835
     21 C1'        -0.7897   -1.9176   -0.7583 C.3       1 ATP         0.3776
     22 N9         -2.1040   -1.3333   -0.7704 N.pl3     1 ATP        -0.4429
     23 C8         -3.0590   -1.5123    0.1363 C.ar      1 ATP         0.2964
     24 N7         -4.1655   -0.8354   -0.1554 N.pl3     1 ATP        -0.4957
     25 C5         -3.8852   -0.1874   -1.3253 C.ar      1 ATP        -0.1346
     26 C6         -4.7113    0.7160   -2.1458 C.ar      1 ATP         0.7213
     27 N6         -5.9213    1.0209   -1.8021 N.2       1 ATP        -0.8215
     28 N1         -4.0411    1.1673   -3.2764 N.pl3     1 ATP        -0.8455
     29 C2         -2.7403    0.7865   -3.5638 C.ar      1 ATP         0.6477
     30 N3         -1.9921   -0.0108   -2.8519 N.2       1 ATP        -0.5707
     31 C4         -2.6302   -0.4747   -1.7239 C.ar      1 ATP         0.2637
     32 HOG3        0.1636  -10.7318    3.2257 H         1 ATP         0.4378
     33 H5'1       -0.9348   -4.9415    1.9415 H         1 ATP         0.0340
     34 H5'2       -1.7548   -3.4350    2.4278 H         1 ATP         0.0340
     35 H4'         0.8874   -3.6466    0.8805 H         1 ATP         0.0910
     36 H3'        -0.7376   -1.2333    1.9867 H         1 ATP         0.0656
     37 HO3'        1.1626   -1.9325    3.0084 H         1 ATP         0.4386
     38 H2'        -0.0384   -0.0310    0.0096 H         1 ATP         0.0788
     39 HO2'        2.1463   -0.7958    0.0370 H         1 ATP         0.4363
     40 H1'        -0.4769   -2.1002   -1.8093 H         1 ATP         0.1225
     41 H8         -2.9569   -2.1323    1.0098 H         1 ATP         0.3824
     42 HN62       -6.3169    1.6552   -2.5012 H         1 ATP         0.4018
     43 H2         -2.3612    1.2343   -4.4957 H         1 ATP         0.0652
     44 H44        -4.5223    1.7976   -3.9117 H         1 ATP         0.4503
     45 H45        -5.0218   -0.8132    0.3804 H         1 ATP         0.5209
@<TRIPOS>BOND
     1    1    2 2
     2    1    3 1
     3    1    4 1
     4    1    8 1
     5    4   32 1
     6    5    6 2
     7    5    7 1
     8    5    8 1
     9    5   12 1
    10    9   10 2
    11    9   11 1
    12    9   12 1
    13    9   13 1
    14   13   14 1
    15   14   15 1
    16   14   33 1
    17   14   34 1
    18   15   16 1
    19   15   17 1
    20   15   35 1
    21   16   21 1
    22   17   18 1
    23   17   19 1
    24   17   36 1
    25   18   37 1
    26   19   20 1
    27   19   21 1
    28   19   38 1
    29   20   39 1
    30   21   22 1
    31   21   40 1
    32   22   23 ar
    33   22   31 ar
    34   23   24 ar
    35   23   41 1
    36   24   25 ar
    37   24   45 1
    38   25   26 ar
    39   25   31 ar
    40   26   27 2
    41   26   28 ar
    42   27   42 1
    43   28   29 ar
    44   28   44 1
    45   29   30 ar
    46   29   43 1
    47   30   31 ar
@<TRIPOS>SUBSTRUCTURE
     1 ATP         1 GROUP 0 A     ****
@<TRIPOS>MOLECULE
[[[3,4-dihydroxy-5-(6-imino-7,8-dihydro-1~{H}-purin-8-ylium-9-yl)tetrahydrofuran-2-yl]methoxy-oxido-phosphoryl]oxy-oxido-phosphoryl] hydrogen phosphate
   45    47     1     0     0
SMALL
USER_CHARGES

@<TRIPOS>ATOM
      1 PG          0.8557   -3.0790   -7.4805 P.3       1 ATP         1.5631
      2 O1G        -0.4819   -2.3788   -7.5699 O.co2     1 ATP        -0.8806
      3 O2G         0.9400   -4.5873   -7.4052 O.co2     1 ATP        -0.8806
      4 O3G         1.7920   -2.5685   -8.7169 O.3       1 ATP        -0.8165
      5 PB          3.2549   -2.7049   -5.7930 P.3       1 ATP         1.6877
      6 O1B         3.3782   -4.1295   -5.3004 O.co2     1 ATP        -0.8727
      7 O2B         4.1733   -2.1651   -6.8667 O.co2     1 ATP        -0.8727
      8 O3B         1.7086   -2.4392   -6.2448 O.3       1 ATP        -0.8330
      9 PA          3.0675   -0.0857   -4.4293 P.3       1 ATP         1.6036
     10 O1A         1.6267    0.2117   -4.7841 O.co2     1 ATP        -0.9062
     11 O2A         4.2015    0.5978   -5.1618 O.co2     1 ATP        -0.9062
     12 O3A         3.3051   -1.7004   -4.5072 O.3       1 ATP        -0.8166
     13 O5'         3.2903    0.1346   -2.8241 O.3       1 ATP        -0.5510
     14 C5'         2.2816   -0.2918   -1.9206 C.3       1 ATP         0.2099
     15 C4'         2.7248    0.0226   -0.4980 C.3       1 ATP         0.0598
     16 O4'         2.4697    1.4219   -0.2462 O.3       1 ATP        -0.3455
     17 C3'         1.9404   -0.7419    0.5596 C.3       1 ATP         0.0742
     18 O3'         2.7418   -0.8086    1.7389 O.3       1 ATP        -0.6025
     19 C2'         0.7477    0.1630    0.7858 C.3       1 ATP         0.1145
     20 O2'         0.1373   -0.0577    2.0407 O.3       1 ATP        -0.5835
     21 C1'         1.3733    1.5427    0.6747 C.3       1 ATP         0.3776
     22 N9          0.4520    2.5240    0.1767 N.pl3     1 ATP        -0.4429
     23 C8         -0.8620    2.5492    0.3743 C.ar      1 ATP         0.2964
     24 N7         -1.4419    3.5886   -0.2183 N.pl3     1 ATP        -0.4957
     25 C5         -0.4215    4.2614   -0.8294 C.ar      1 ATP        -0.1346
     26 C6         -0.4310    5.4918   -1.6405 C.ar      1 ATP         0.7213
     27 N6         -1.5302    6.1308   -1.8826 N.2       1 ATP        -0.8215
     28 N1          0.8382    5.8461   -2.0817 N.pl3     1 ATP        -0.8455
     29 C2          1.9625    5.0982   -1.7709 C.ar      1 ATP         0.6477
     30 N3          1.9930    4.0077   -1.0554 N.2       1 ATP        -0.5707
     31 C4          0.7483    3.6314   -0.6038 C.ar      1 ATP         0.2637
     32 HOG3        2.6987   -2.9341   -8.7978 H         1 ATP         0.4378
     33 H5'1        1.3514    0.2330   -2.1577 H         1 ATP         0.0340
     34 H5'2        2.1280   -1.3678   -2.0460 H         1 ATP         0.0340
     35 H4'         3.8044   -0.1397   -0.4040 H         1 ATP         0.0910
     36 H3'         1.6764   -1.7639    0.2728 H         1 ATP         0.0656
     37 HO3'        2.2232   -1.2979    2.3953 H         1 ATP         0.4386
     38 H2'        -0.0011    0.0027    0.0003 H         1 ATP         0.0788
     39 HO2'       -0.1563   -0.9855    2.0596 H         1 ATP         0.4363
     40 H1'         1.7826    1.9024    1.6451 H         1 ATP         0.1225
     41 H8         -1.4030    1.8165    0.9473 H         1 ATP         0.3824
     42 HN62       -1.3197    6.9504   -2.4583 H         1 ATP         0.4018
     43 H2          2.8857    5.5186   -2.1994 H         1 ATP         0.0652
     44 H44         0.9433    6.6815   -2.6502 H         1 ATP         0.4503
     45 H45        -2.4254    3.8199   -0.2108 H         1 ATP         0.5209
@<TRIPOS>BOND
     1    1    2 2
     2    1    3 1
     3    1    4 1
     4    1    8 1
     5    4   32 1
     6    5    6 2
     7    5    7 1
     8    5    8 1
     9    5   12 1
    10    9   10 2
    11    9   11 1
    12    9   12 1
    13    9   13 1
    14   13   14 1
    15   14   15 1
    16   14   33 1
    17   14   34 1
    18   15   16 1
    19   15   17 1
    20   15   35 1
    21   16   21 1
    22   17   18 1
    23   17   19 1
    24   17   36 1
    25   18   37 1
    26   19   20 1
    27   19   21 1
    28   19   38 1
    29   20   39 1
    30   21   22 1
    31   21   40 1
    32   22   23 ar
    33   22   31 ar
    34   23   24 ar
    35   23   41 1
    36   24   25 ar
    37   24   45 1
    38   25   26 ar
    39   25   31 ar
    40   26   27 2
    41   26   28 ar
    42   27   42 1
    43   28   29 ar
    44   28   44 1
    45   29   30 ar
    46   29   43 1
    47   30   31 ar
@<TRIPOS>SUBSTRUCTURE
     1 ATP         1 GROUP 0 A     ****
@<TRIPOS>MOLECULE
[[[3,4-dihydroxy-5-(6-imino-7,8-dihydro-1~{H}-purin-8-ylium-9-yl)tetrahydrofuran-2-yl]methoxy-oxido-phosphoryl]oxy-oxido-phosphoryl] hydrogen phosphate
   45    47     1     0     0
SMALL
USER_CHARGES

@<TRIPOS>ATOM
      1 PG          3.5783   -9.2762    2.8059 P.3       1 ATP         1.5631
      2 O1G         3.4172   -9.8908    4.1783 O.co2     1 ATP        -0.8806
      3 O2G         4.9407   -8.8653    2.2933 O.co2     1 ATP        -0.8806
      4 O3G         2.8896  -10.2699    1.7085 O.3       1 ATP        -0.8165
      5 PB          2.5577   -6.5761    3.4473 P.3       1 ATP         1.6877
      6 O1B         2.2524   -6.8187    4.9086 O.co2     1 ATP        -0.8727
      7 O2B         3.7799   -5.7932    3.0219 O.co2     1 ATP        -0.8727
      8 O3B         2.5573   -8.0105    2.6674 O.3       1 ATP        -0.8330
      9 PA         -0.3072   -6.4376    2.7205 P.3       1 ATP         1.6036
     10 O1A        -0.8587   -6.3763    4.1285 O.co2     1 ATP        -0.9062
     11 O2A        -0.3684   -7.7209    1.9210 O.co2     1 ATP        -0.9062
     12 O3A         1.2418   -5.9181    2.7400 O.3       1 ATP        -0.8166
     13 O5'        -0.9724   -5.2440    1.8220 O.3       1 ATP        -0.5510
     14 C5'        -0.7840   -3.8935    2.2172 C.3       1 ATP         0.2099
     15 C4'        -0.0724   -3.1466    1.1027 C.3       1 ATP         0.0598
     16 O4'        -0.8674   -3.1929   -0.0945 O.3       1 ATP        -0.3455
     17 C3'         0.1338   -1.6715    1.4027 C.3       1 ATP         0.0742
     18 O3'         1.2893   -1.4445    2.1808 O.3       1 ATP        -0.6025
     19 C2'         0.2158   -1.0724    0.0128 C.3       1 ATP         0.1145
     20 O2'         1.5141   -1.2448   -0.5513 O.3       1 ATP        -0.5835
     21 C1'        -0.7897   -1.9176   -0.7583 C.3       1 ATP         0.3776
     22 N9         -2.1040   -1.3333   -0.7704 N.pl3     1 ATP        -0.4429
     23 C8         -3.0590   -1.5123    0.1363 C.ar      1 ATP         0.2964
     24 N7         -4.1655   -0.8354   -0.1554 N.pl3     1 ATP        -0.4957
     25 C5         -3.8852   -0.1874   -1.3253 C.ar      1 ATP        -0.1346
     26 C6         -4.7113    0.7160   -2.1458 C.ar      1 ATP         0.7213
     27 N6         -5.9213    1.0209   -1.8021 N.2       1 ATP        -0.8215
     28 N1         -4.0411    1.1673   -3.2764 N.pl3     1 ATP        -0.8455
     29 C2         -2.7403    0.7865   -3.5638 C.ar      1 ATP         0.6477
     30 N3         -1.9921   -0.0108   -2.8519 N.2       1 ATP        -0.5707
     31 C4         -2.6302   -0.4747   -1.7239 C.ar      1 ATP         0.2637
     32 HOG3        2.9116  -10.0084    0.7633 H         1 ATP         0.4378
     33 H5'1       -1.7618   -3.4448    2.4164 H         1 ATP         0.0340
     34 H5'2       -0.1874   -3.8744    3.1341 H         1 ATP         0.0340
     35 H4'         0.8874   -3.6466    0.8805 H         1 ATP         0.0910
     36 H3'        -0.7376   -1.2333    1.9867 H         1 ATP         0.0656
     37 HO3'        1.3408   -0.4870    2.3219 H         1 ATP         0.4386
     38 H2'        -0.0384   -0.0310    0.0096 H         1 ATP         0.0788
     39 HO2'        2.1463   -0.7958    0.0370 H         1 ATP         0.4363
     40 H1'        -0.4769   -2.1002   -1.8093 H         1 ATP         0.1225
     41 H8         -2.9569   -2.1323    1.0098 H         1 ATP         0.3824
     42 HN62       -6.3169    1.6552   -2.5012 H         1 ATP         0.4018
     43 H2         -2.3612    1.2343   -4.4957 H         1 ATP         0.0652
     44 H44        -4.5223    1.7976   -3.9117 H         1 ATP         0.4503
     45 H45        -5.0218   -0.8132    0.3804 H         1 ATP         0.5209
@<TRIPOS>BOND
     1    1    2 2
     2    1    3 1
     3    1    4 1
     4    1    8 1
     5    4   32 1
     6    5    6 2
     7    5    7 1
     8    5    8 1
     9    5   12 1
    10    9   10 2
    11    9   11 1
    12    9   12 1
    13    9   13 1
    14   13   14 1
    15   14   15 1
    16   14   33 1
    17   14   34 1
    18   15   16 1
    19   15   17 1
    20   15   35 1
    21   16   21 1
    22   17   18 1
    23   17   19 1
    24   17   36 1
    25   18   37 1
    26   19   20 1
    27   19   21 1
    28   19   38 1
    29   20   39 1
    30   21   22 1
    31   21   40 1
    32   22   23 ar
    33   22   31 ar
    34   23   24 ar
    35   23   41 1
    36   24   25 ar
    37   24   45 1
    38   25   26 ar
    39   25   31 ar
    40   26   27 2
    41   26   28 ar
    42   27   42 1
    43   28   29 ar
    44   28   44 1
    45   29   30 ar
    46   29   43 1
    47   30   31 ar
@<TRIPOS>SUBSTRUCTURE
     1 ATP         1 GROUP 0 A     ****
@<TRIPOS>MOLECULE
[[[3,4-dihydroxy-5-(6-imino-7,8-dihydro-1~{H}-purin-8-ylium-9-yl)tetrahydrofuran-2-yl]methoxy-oxido-phosphoryl]oxy-oxido-phosphoryl] hydrogen phosphate
   45    47     1     0     0
SMALL
USER_CHARGES

@<TRIPOS>ATOM
      1 PG         -0.2364   -3.5068   -6.7410 P.3       1 ATP         1.5631
      2 O1G         0.5867   -3.9805   -7.9182 O.co2     1 ATP        -0.8806
      3 O2G        -1.6067   -2.8997   -6.9448 O.co2     1 ATP        -0.8806
      4 O3G        -0.3668   -4.7340   -5.6720 O.3       1 ATP        -0.8165
      5 PB          1.2375   -1.0019   -6.1965 P.3       1 ATP         1.6877
      6 O1B         2.2668   -1.1311   -7.2970 O.co2     1 ATP        -0.8727
      7 O2B         0.0693   -0.0498   -6.3243 O.co2     1 ATP        -0.8727
      8 O3B         0.6646   -2.4882   -5.8385 O.3       1 ATP        -0.8330
      9 PA          2.8621    0.6170   -4.3270 P.3       1 ATP         1.6036
     10 O1A         1.9204    1.7976   -4.2287 O.co2     1 ATP        -0.9062
     11 O2A         4.1143    0.6947   -5.1729 O.co2     1 ATP        -0.9062
     12 O3A         2.0098   -0.6976   -4.7908 O.3       1 ATP        -0.8166
     13 O5'         3.2903    0.1346   -2.8241 O.3       1 ATP        -0.5510
     14 C5'         2.2816   -0.2918   -1.9206 C.3       1 ATP         0.2099
     15 C4'         2.7248    0.0226   -0.4980 C.3       1 ATP         0.0598
     16 O4'         2.4697    1.4219   -0.2462 O.3       1 ATP        -0.3455
     17 C3'         1.9404   -0.7419    0.5596 C.3       1 ATP         0.0742
     18 O3'         2.7418   -0.8086    1.7389 O.3       1 ATP        -0.6025
     19 C2'         0.7477    0.1630    0.7858 C.3       1 ATP         0.1145
     20 O2'         0.1373   -0.0577    2.0407 O.3       1 ATP        -0.5835
     21 C1'         1.3733    1.5427    0.6747 C.3       1 ATP         0.3776
     22 N9          0.4520    2.5240    0.1767 N.pl3     1 ATP        -0.4429
     23 C8         -0.8620    2.5492    0.3743 C.ar      1 ATP         0.2964
     24 N7         -1.4419    3.5886   -0.2183 N.pl3     1 ATP        -0.4957
     25 C5         -0.4215    4.2614   -0.8294 C.ar      1 ATP        -0.1346
     26 C6         -0.4310    5.4918   -1.6405 C.ar      1 ATP         0.7213
     27 N6         -1.5302    6.1308   -1.8826 N.2       1 ATP        -0.8215
     28 N1          0.8382    5.8461   -2.0817 N.pl3     1 ATP        -0.8455
     29 C2          1.9625    5.0982   -1.7709 C.ar      1 ATP         0.6477
     30 N3          1.9930    4.0077   -1.0554 N.2       1 ATP        -0.5707
     31 C4          0.7483    3.6314   -0.6038 C.ar      1 ATP         0.2637
     32 HOG3       -0.8762   -4.5827   -4.8474 H         1 ATP         0.4378
     33 H5'1        1.3514    0.2330   -2.1577 H         1 ATP         0.0340
     34 H5'2        2.1280   -1.3678   -2.0460 H         1 ATP         0.0340
     35 H4'         3.8044   -0.1397   -0.4040 H         1 ATP         0.0910
     36 H3'         1.6764   -1.7639    0.2728 H         1 ATP         0.0656
     37 HO3'        3.5554   -1.2733    1.4914 H         1 ATP         0.4386
     38 H2'        -0.0011    0.0027    0.0003 H         1 ATP         0.0788
     39 HO2'        0.8082    0.1199    2.7232 H         1 ATP         0.4363
     40 H1'         1.7826    1.9024    1.6451 H         1 ATP         0.1225
     41 H8         -1.4030    1.8165    0.9473 H         1 ATP         0.3824
     42 HN62       -1.3197    6.9504   -2.4583 H         1 ATP         0.4018
     43 H2          2.8857    5.5186   -2.1994 H         1 ATP         0.0652
     44 H44         0.9433    6.6815   -2.6502 H         1 ATP         0.4503
     45 H45        -2.4254    3.8199   -0.2108 H         1 ATP         0.5209
@<TRIPOS>BOND
     1    1    2 2
     2    1    3 1
     3    1    4 1
     4    1    8 1
     5    4   32 1
     6    5    6 2
     7    5    7 1
     8    5    8 1
     9    5   12 1
    10    9   10 2
    11    9   11 1
    12    9   12 1
    13    9   13 1
    14   13   14 1
    15   14   15 1
    16   14   33 1
    17   14   34 1
    18   15   16 1
    19   15   17 1
    20   15   35 1
    21   16   21 1
    22   17   18 1
    23   17   19 1
    24   17   36 1
    25   18   37 1
    26   19   20 1
    27   19   21 1
    28   19   38 1
    29   20   39 1
    30   21   22 1
    31   21   40 1
    32   22   23 ar
    33   22   31 ar
    34   23   24 ar
    35   23   41 1
    36   24   25 ar
    37   24   45 1
    38   25   26 ar
    39   25   31 ar
    40   26   27 2
    41   26   28 ar
    42   27   42 1
    43   28   29 ar
    44   28   44 1
    45   29   30 ar
    46   29   43 1
    47   30   31 ar
@<TRIPOS>SUBSTRUCTURE
     1 ATP         1 GROUP 0 A     ****
@<TRIPOS>MOLECULE
[[[3,4-dihydroxy-5-(6-imino-7,8-dihydro-1~{H}-purin-8-ylium-9-yl)tetrahydrofuran-2-yl]methoxy-oxido-phosphoryl]oxy-oxido-phosphoryl] hydrogen phosphate
   45    47     1     0     0
SMALL
USER_CHARGES

@<TRIPOS>ATOM
      1 PG          1.3685   -9.8260    2.8849 P.3       1 ATP         1.5631
      2 O1G         2.0797  -10.2878    4.1372 O.co2     1 ATP        -0.8806
      3 O2G         1.8279  -10.2808    1.5175 O.co2     1 ATP        -0.8806
      4 O3G        -0.2216  -10.1646    3.0367 O.3       1 ATP        -0.8165
      5 PB          2.4624   -7.0806    2.7854 P.3       1 ATP         1.6877
      6 O1B         3.3229   -7.1621    4.0265 O.co2     1 ATP        -0.8727
      7 O2B         3.0718   -7.1574    1.4032 O.co2     1 ATP        -0.8727
      8 O3B         1.2758   -8.1966    2.8970 O.3       1 ATP        -0.8330
      9 PA          0.5355   -5.2351    4.0645 P.3       1 ATP         1.6036
     10 O1A         1.3580   -4.9238    5.2961 O.co2     1 ATP        -0.9062
     11 O2A        -0.6339   -6.1926    4.1369 O.co2     1 ATP        -0.9062
     12 O3A         1.5383   -5.7380    2.8765 O.3       1 ATP        -0.8166
     13 O5'         0.0118   -3.8395    3.3916 O.3       1 ATP        -0.5510
     14 C5'        -0.7840   -3.8935    2.2172 C.3       1 ATP         0.2099
     15 C4'        -0.0724   -3.1466    1.1027 C.3       1 ATP         0.0598
     16 O4'        -0.8674   -3.1929   -0.0945 O.3       1 ATP        -0.3455
     17 C3'         0.1338   -1.6715    1.4027 C.3       1 ATP         0.0742
     18 O3'         1.2893   -1.4445    2.1808 O.3       1 ATP        -0.6025
     19 C2'         0.2158   -1.0724    0.0128 C.3       1 ATP         0.1145
     20 O2'         1.5141   -1.2448   -0.5513 O.3       1 ATP        -0.5835
     21 C1'        -0.7897   -1.9176   -0.7583 C.3       1 ATP         0.3776
     22 N9         -2.1040   -1.3333   -0.7704 N.pl3     1 ATP        -0.4429
     23 C8         -3.0590   -1.5123    0.1363 C.ar      1 ATP         0.2964
     24 N7         -4.1655   -0.8354   -0.1554 N.pl3     1 ATP        -0.4957
     25 C5         -3.8852   -0.1874   -1.3253 C.ar      1 ATP        -0.1346
     26 C6         -4.7113    0.7160   -2.1458 C.ar      1 ATP         0.7213
     27 N6         -5.9213    1.0209   -1.8021 N.2       1 ATP        -0.8215
     28 N1         -4.0411    1.1673   -3.2764 N.pl3     1 ATP        -0.8455
     29 C2         -2.7403    0.7865   -3.5638 C.ar      1 ATP         0.6477
     30 N3         -1.9921   -0.0108   -2.8519 N.2       1 ATP        -0.5707
     31 C4         -2.6302   -0.4747   -1.7239 C.ar      1 ATP         0.2637
     32 HOG3       -0.8227   -9.9236    2.2999 H         1 ATP         0.4378
     33 H5'1       -0.9348   -4.9415    1.9415 H         1 ATP         0.0340
     34 H5'2       -1.7548   -3.4350    2.4278 H         1 ATP         0.0340
     35 H4'         0.8874   -3.6466    0.8805 H         1 ATP         0.0910
     36 H3'        -0.7376   -1.2333    1.9867 H         1 ATP         0.0656
     37 HO3'        1.3408   -0.4870    2.3219 H         1 ATP         0.4386
     38 H2'        -0.0384   -0.0310    0.0096 H         1 ATP         0.0788
     39 HO2'        2.1463   -0.7958    0.0370 H         1 ATP         0.4363
     40 H1'        -0.4769   -2.1002   -1.8093 H         1 ATP         0.1225
     41 H8         -2.9569   -2.1323    1.0098 H         1 ATP         0.3824
     42 HN62       -6.3169    1.6552   -2.5012 H         1 ATP         0.4018
     43 H2         -2.3612    1.2343   -4.4957 H         1 ATP         0.0652
     44 H44        -4.5223    1.7976   -3.9117 H         1 ATP         0.4503
     45 H45        -5.0218   -0.8132    0.3804 H         1 ATP         0.5209
@<TRIPOS>BOND
     1    1    2 2
     2    1    3 1
     3    1    4 1
     4    1    8 1
     5    4   32 1
     6    5    6 2
     7    5    7 1
     8    5    8 1
     9    5   12 1
    10    9   10 2
    11    9   11 1
    12    9   12 1
    13    9   13 1
    14   13   14 1
    15   14   15 1
    16   14   33 1
    17   14   34 1
    18   15   16 1
    19   15   17 1
    20   15   35 1
    21   16   21 1
    22   17   18 1
    23   17   19 1
    24   17   36 1
    25   18   37 1
    26   19   20 1
    27   19   21 1
    28   19   38 1
    29   20   39 1
    30   21   22 1
    31   21   40 1
    32   22   23 ar
    33   22   31 ar
    34   23   24 ar
    35   23   41 1
    36   24   25 ar
    37   24   45 1
    38   25   26 ar
    39   25   31 ar
    40   26   27 2
    41   26   28 ar
    42   27   42 1
    43   28   29 ar
    44   28   44 1
    45   29   30 ar
    46   29   43 1
    47   30   31 ar
@<TRIPOS>SUBSTRUCTURE
     1 ATP         1 GROUP 0 A     ****
@<TRIPOS>MOLECULE
[[[3,4-dihydroxy-5-(6-imino-7,8-dihydro-1~{H}-purin-8-ylium-9-yl)tetrahydrofuran-2-yl]methoxy-oxido-phosphoryl]oxy-oxido-phosphoryl] hydrogen phosphate
   45    47     1     0     0
SMALL
USER_CHARGES

@<TRIPOS>ATOM
      1 PG          3.4833   -7.2455    5.5738 P.3       1 ATP         1.5631
      2 O1G         4.8351   -6.5906    5.3976 O.co2     1 ATP        -0.8806
      3 O2G         3.3614   -8.7439    5.7407 O.co2     1 ATP        -0.8806
      4 O3G         2.7142   -6.5210    6.8186 O.3       1 ATP        -0.8165
      5 PB          2.5812   -7.0783    2.7628 P.3       1 ATP         1.6877
      6 O1B         3.8079   -6.3970    2.1984 O.co2     1 ATP        -0.8727
      7 O2B         2.3341   -8.5542    2.5432 O.co2     1 ATP        -0.8727
      8 O3B         2.4991   -6.7663    4.3633 O.3       1 ATP        -0.8330
      9 PA         -0.3072   -6.4376    2.7205 P.3       1 ATP         1.6036
     10 O1A        -0.4500   -6.1027    4.1894 O.co2     1 ATP        -0.9062
     11 O2A        -0.7938   -7.7640    2.1787 O.co2     1 ATP        -0.9062
     12 O3A         1.2573   -6.2493    2.2886 O.3       1 ATP        -0.8166
     13 O5'        -0.9724   -5.2440    1.8220 O.3       1 ATP        -0.5510
     14 C5'        -0.7840   -3.8935    2.2172 C.3       1 ATP         0.2099
     15 C4'        -0.0724   -3.1466    1.1027 C.3       1 ATP         0.0598
     16 O4'        -0.8674   -3.1929   -0.0945 O.3       1 ATP        -0.3455
     17 C3'         0.1338   -1.6715    1.4027 C.3       1 ATP         0.0742
     18 O3'         1.2893   -1.4445    2.1808 O.3       1 ATP        -0.6025
     19 C2'         0.2158   -1.0724    0.0128 C.3       1 ATP         0.1145
     20 O2'         1.5141   -1.2448   -0.5513 O.3       1 ATP        -0.5835
     21 C1'        -0.7897   -1.9176   -0.7583 C.3       1 ATP         0.3776
     22 N9         -2.1040   -1.3333   -0.7704 N.pl3     1 ATP        -0.4429
     23 C8         -3.0590   -1.5123    0.1363 C.ar      1 ATP         0.2964
     24 N7         -4.1655   -0.8354   -0.1554 N.pl3     1 ATP        -0.4957
     25 C5         -3.8852   -0.1874   -1.3253 C.ar      1 ATP        -0.1346
     26 C6         -4.7113    0.7160   -2.1458 C.ar      1 ATP         0.7213
     27 N6         -5.9213    1.0209   -1.8021 N.2       1 ATP        -0.8215
     28 N1         -4.0411    1.1673   -3.2764 N.pl3     1 ATP        -0.8455
     29 C2         -2.7403    0.7865   -3.5638 C.ar      1 ATP         0.6477
     30 N3         -1.9921   -0.0108   -2.8519 N.2       1 ATP        -0.5707
     31 C4         -2.6302   -0.4747   -1.7239 C.ar      1 ATP         0.2637
     32 HOG3        1.8172   -6.8360    7.0602 H         1 ATP         0.4378
     33 H5'1       -1.7618   -3.4448    2.4164 H         1 ATP         0.0340
     34 H5'2       -0.1874   -3.8744    3.1341 H         1 ATP         0.0340
     35 H4'         0.8874   -3.6466    0.8805 H         1 ATP         0.0910
     36 H3'        -0.7376   -1.2333    1.9867 H         1 ATP         0.0656
     37 HO3'        1.1626   -1.9325    3.0084 H         1 ATP         0.4386
     38 H2'        -0.0384   -0.0310    0.0096 H         1 ATP         0.0788
     39 HO2'        2.1463   -0.7958    0.0370 H         1 ATP         0.4363
     40 H1'        -0.4769   -2.1002   -1.8093 H         1 ATP         0.1225
     41 H8         -2.9569   -2.1323    1.0098 H         1 ATP         0.3824
     42 HN62       -6.3169    1.6552   -2.5012 H         1 ATP         0.4018
     43 H2         -2.3612    1.2343   -4.4957 H         1 ATP         0.0652
     44 H44        -4.5223    1.7976   -3.9117 H         1 ATP         0.4503
     45 H45        -5.0218   -0.8132    0.3804 H         1 ATP         0.5209
@<TRIPOS>BOND
     1    1    2 2
     2    1    3 1
     3    1    4 1
     4    1    8 1
     5    4   32 1
     6    5    6 2
     7    5    7 1
     8    5    8 1
     9    5   12 1
    10    9   10 2
    11    9   11 1
    12    9   12 1
    13    9   13 1
    14   13   14 1
    15   14   15 1
    16   14   33 1
    17   14   34 1
    18   15   16 1
    19   15   17 1
    20   15   35 1
    21   16   21 1
    22   17   18 1
    23   17   19 1
    24   17   36 1
    25   18   37 1
    26   19   20 1
    27   19   21 1
    28   19   38 1
    29   20   39 1
    30   21   22 1
    31   21   40 1
    32   22   23 ar
    33   22   31 ar
    34   23   24 ar
    35   23   41 1
    36   24   25 ar
    37   24   45 1
    38   25   26 ar
    39   25   31 ar
    40   26   27 2
    41   26   28 ar
    42   27   42 1
    43   28   29 ar
    44   28   44 1
    45   29   30 ar
    46   29   43 1
    47   30   31 ar
@<TRIPOS>SUBSTRUCTURE
     1 ATP         1 GROUP 0 A     ****
@<TRIPOS>MOLECULE
[[[3,4-dihydroxy-5-(6-imino-7,8-dihydro-1~{H}-purin-8-ylium-9-yl)tetrahydrofuran-2-yl]methoxy-oxido-phosphoryl]oxy-oxido-phosphoryl] hydrogen phosphate
   45    47     1     0     0
SMALL
USER_CHARGES

@<TRIPOS>ATOM
      1 PG         -4.8576   -5.2415    6.8929 P.3       1 ATP         1.5631
      2 O1G        -5.5095   -6.5888    6.6756 O.co2     1 ATP        -0.8806
      3 O2G        -5.6427   -3.9607    6.7165 O.co2     1 ATP        -0.8806
      4 O3G        -4.1726   -5.2297    8.3750 O.3       1 ATP        -0.8165
      5 PB         -2.2267   -6.1780    5.9211 P.3       1 ATP         1.6877
      6 O1B        -1.4971   -6.1369    7.2454 O.co2     1 ATP        -0.8727
      7 O2B        -2.6886   -7.4875    5.3216 O.co2     1 ATP        -0.8727
      8 O3B        -3.4989   -5.1573    5.9926 O.3       1 ATP        -0.8330
      9 PA         -0.7215   -3.8652    4.8532 P.3       1 ATP         1.6036
     10 O1A         0.3253   -3.7984    5.9441 O.co2     1 ATP        -0.9062
     11 O2A        -1.8707   -2.8812    4.8226 O.co2     1 ATP        -0.9062
     12 O3A        -1.3389   -5.3774    4.8095 O.3       1 ATP        -0.8166
     13 O5'         0.0118   -3.8395    3.3916 O.3       1 ATP        -0.5510
     14 C5'        -0.7840   -3.8935    2.2172 C.3       1 ATP         0.2099
     15 C4'        -0.0724   -3.1466    1.1027 C.3       1 ATP         0.0598
     16 O4'        -0.8674   -3.1929   -0.0945 O.3       1 ATP        -0.3455
     17 C3'         0.1338   -1.6715    1.4027 C.3       1 ATP         0.0742
     18 O3'         1.2893   -1.4445    2.1808 O.3       1 ATP        -0.6025
     19 C2'         0.2158   -1.0724    0.0128 C.3       1 ATP         0.1145
     20 O2'         1.5141   -1.2448   -0.5513 O.3       1 ATP        -0.5835
     21 C1'        -0.7897   -1.9176   -0.7583 C.3       1 ATP         0.3776
     22 N9         -2.1040   -1.3333   -0.7704 N.pl3     1 ATP        -0.4429
     23 C8         -3.0590   -1.5123    0.1363 C.ar      1 ATP         0.2964
     24 N7         -4.1655   -0.8354   -0.1554 N.pl3     1 ATP        -0.4957
     25 C5         -3.8852   -0.1874   -1.3253 C.ar      1 ATP        -0.1346
     26 C6         -4.7113    0.7160   -2.1458 C.ar      1 ATP         0.7213
     27 N6         -5.9213    1.0209   -1.8021 N.2       1 ATP        -0.8215
     28 N1         -4.0411    1.1673   -3.2764 N.pl3     1 ATP        -0.8455
     29 C2         -2.7403    0.7865   -3.5638 C.ar      1 ATP         0.6477
     30 N3         -1.9921   -0.0108   -2.8519 N.2       1 ATP        -0.5707
     31 C4         -2.6302   -0.4747   -1.7239 C.ar      1 ATP         0.2637
     32 HOG3       -3.7059   -4.4179    8.6671 H         1 ATP         0.4378
     33 H5'1       -0.9348   -4.9415    1.9415 H         1 ATP         0.0340
     34 H5'2       -1.7548   -3.4350    2.4278 H         1 ATP         0.0340
     35 H4'         0.8874   -3.6466    0.8805 H         1 ATP         0.0910
     36 H3'        -0.7376   -1.2333    1.9867 H         1 ATP         0.0656
     37 HO3'        1.1626   -1.9325    3.0084 H         1 ATP         0.4386
     38 H2'        -0.0384   -0.0310    0.0096 H         1 ATP         0.0788
     39 HO2'        2.1463   -0.7958    0.0370 H         1 ATP         0.4363
     40 H1'        -0.4769   -2.1002   -1.8093 H         1 ATP         0.1225
     41 H8         -2.9569   -2.1323    1.0098 H         1 ATP         0.3824
     42 HN62       -6.3169    1.6552   -2.5012 H         1 ATP         0.4018
     43 H2         -2.3612    1.2343   -4.4957 H         1 ATP         0.0652
     44 H44        -4.5223    1.7976   -3.9117 H         1 ATP         0.4503
     45 H45        -5.0218   -0.8132    0.3804 H         1 ATP         0.5209
@<TRIPOS>BOND
     1    1    2 2
     2    1    3 1
     3    1    4 1
     4    1    8 1
     5    4   32 1
     6    5    6 2
     7    5    7 1
     8    5    8 1
     9    5   12 1
    10    9   10 2
    11    9   11 1
    12    9   12 1
    13    9   13 1
    14   13   14 1
    15   14   15 1
    16   14   33 1
    17   14   34 1
    18   15   16 1
    19   15   17 1
    20   15   35 1
    21   16   21 1
    22   17   18 1
    23   17   19 1
    24   17   36 1
    25   18   37 1
    26   19   20 1
    27   19   21 1
    28   19   38 1
    29   20   39 1
    30   21   22 1
    31   21   40 1
    32   22   23 ar
    33   22   31 ar
    34   23   24 ar
    35   23   41 1
    36   24   25 ar
    37   24   45 1
    38   25   26 ar
    39   25   31 ar
    40   26   27 2
    41   26   28 ar
    42   27   42 1
    43   28   29 ar
    44   28   44 1
    45   29   30 ar
    46   29   43 1
    47   30   31 ar
@<TRIPOS>SUBSTRUCTURE
     1 ATP         1 GROUP 0 A     ****
@<TRIPOS>MOLECULE
[[[3,4-dihydroxy-5-(6-imino-7,8-dihydro-1~{H}-purin-8-ylium-9-yl)tetrahydrofuran-2-yl]methoxy-oxido-phosphoryl]oxy-oxido-phosphoryl] hydrogen phosphate
   45    47     1     0     0
SMALL
USER_CHARGES

@<TRIPOS>ATOM
      1 PG          5.5130    0.1349   -7.5608 P.3       1 ATP         1.5631
      2 O1G         4.5826    0.9272   -8.4519 O.co2     1 ATP        -0.8806
      3 O2G         6.3416   -1.0016   -8.1172 O.co2     1 ATP        -0.8806
      4 O3G         6.5100    1.1769   -6.7952 O.3       1 ATP        -0.8165
      5 PB          3.4664   -1.4950   -6.1831 P.3       1 ATP         1.6877
      6 O1B         2.2520   -0.9254   -6.8820 O.co2     1 ATP        -0.8727
      7 O2B         4.0141   -2.8564   -6.5492 O.co2     1 ATP        -0.8727
      8 O3B         4.6779   -0.4037   -6.2661 O.3       1 ATP        -0.8330
      9 PA          2.1372   -2.2718   -3.6563 P.3       1 ATP         1.6036
     10 O1A         2.4859   -3.7437   -3.7017 O.co2     1 ATP        -0.9062
     11 O2A         0.7459   -1.7951   -4.0125 O.co2     1 ATP        -0.9062
     12 O3A         3.2120   -1.4489   -4.5713 O.3       1 ATP        -0.8166
     13 O5'         2.5245   -1.6648   -2.1878 O.3       1 ATP        -0.5510
     14 C5'         2.2816   -0.2918   -1.9206 C.3       1 ATP         0.2099
     15 C4'         2.7248    0.0226   -0.4980 C.3       1 ATP         0.0598
     16 O4'         2.4697    1.4219   -0.2462 O.3       1 ATP        -0.3455
     17 C3'         1.9404   -0.7419    0.5596 C.3       1 ATP         0.0742
     18 O3'         2.7418   -0.8086    1.7389 O.3       1 ATP        -0.6025
     19 C2'         0.7477    0.1630    0.7858 C.3       1 ATP         0.1145
     20 O2'         0.1373   -0.0577    2.0407 O.3       1 ATP        -0.5835
     21 C1'         1.3733    1.5427    0.6747 C.3       1 ATP         0.3776
     22 N9          0.4520    2.5240    0.1767 N.pl3     1 ATP        -0.4429
     23 C8         -0.8620    2.5492    0.3743 C.ar      1 ATP         0.2964
     24 N7         -1.4419    3.5886   -0.2183 N.pl3     1 ATP        -0.4957
     25 C5         -0.4215    4.2614   -0.8294 C.ar      1 ATP        -0.1346
     26 C6         -0.4310    5.4918   -1.6405 C.ar      1 ATP         0.7213
     27 N6         -1.5302    6.1308   -1.8826 N.2       1 ATP        -0.8215
     28 N1          0.8382    5.8461   -2.0817 N.pl3     1 ATP        -0.8455
     29 C2          1.9625    5.0982   -1.7709 C.ar      1 ATP         0.6477
     30 N3          1.9930    4.0077   -1.0554 N.2       1 ATP        -0.5707
     31 C4          0.7483    3.6314   -0.6038 C.ar      1 ATP         0.2637
     32 HOG3        7.1784    0.8139   -6.1757 H         1 ATP         0.4378
     33 H5'1        2.8432    0.3119   -2.6398 H         1 ATP         0.0340
     34 H5'2        1.2128   -0.0927   -2.0428 H         1 ATP         0.0340
     35 H4'         3.8044   -0.1397   -0.4040 H         1 ATP         0.0910
     36 H3'         1.6764   -1.7639    0.2728 H         1 ATP         0.0656
     37 HO3'        2.2232   -1.2979    2.3953 H         1 ATP         0.4386
     38 H2'        -0.0011    0.0027    0.0003 H         1 ATP         0.0788
     39 HO2'       -0.1563   -0.9855    2.0596 H         1 ATP         0.4363
     40 H1'         1.7826    1.9024    1.6451 H         1 ATP         0.1225
     41 H8         -1.4030    1.8165    0.9473 H         1 ATP         0.3824
     42 HN62       -1.3197    6.9504   -2.4583 H         1 ATP         0.4018
     43 H2          2.8857    5.5186   -2.1994 H         1 ATP         0.0652
     44 H44         0.9433    6.6815   -2.6502 H         1 ATP         0.4503
     45 H45        -2.4254    3.8199   -0.2108 H         1 ATP         0.5209
@<TRIPOS>BOND
     1    1    2 2
     2    1    3 1
     3    1    4 1
     4    1    8 1
     5    4   32 1
     6    5    6 2
     7    5    7 1
     8    5    8 1
     9    5   12 1
    10    9   10 2
    11    9   11 1
    12    9   12 1
    13    9   13 1
    14   13   14 1
    15   14   15 1
    16   14   33 1
    17   14   34 1
    18   15   16 1
    19   15   17 1
    20   15   35 1
    21   16   21 1
    22   17   18 1
    23   17   19 1
    24   17   36 1
    25   18   37 1
    26   19   20 1
    27   19   21 1
    28   19   38 1
    29   20   39 1
    30   21   22 1
    31   21   40 1
    32   22   23 ar
    33   22   31 ar
    34   23   24 ar
    35   23   41 1
    36   24   25 ar
    37   24   45 1
    38   25   26 ar
    39   25   31 ar
    40   26   27 2
    41   26   28 ar
    42   27   42 1
    43   28   29 ar
    44   28   44 1
    45   29   30 ar
    46   29   43 1
    47   30   31 ar
@<TRIPOS>SUBSTRUCTURE
     1 ATP         1 GROUP 0 A     ****
@<TRIPOS>MOLECULE
[[[3,4-dihydroxy-5-(6-imino-7,8-dihydro-1~{H}-purin-8-ylium-9-yl)tetrahydrofuran-2-yl]methoxy-oxido-phosphoryl]oxy-oxido-phosphoryl] hydrogen phosphate
   45    47     1     0     0
SMALL
USER_CHARGES

@<TRIPOS>ATOM
      1 PG          5.4078   -3.5008   -0.7632 P.3       1 ATP         1.5631
      2 O1G         5.0420   -4.8728   -1.2839 O.co2     1 ATP        -0.8806
      3 O2G         4.3392   -2.5310   -0.3101 O.co2     1 ATP        -0.8806
      4 O3G         6.4937   -3.6765    0.4434 O.3       1 ATP        -0.8165
      5 PB          6.0281   -2.2323   -3.3612 P.3       1 ATP         1.6877
      6 O1B         7.2189   -1.4618   -3.8866 O.co2     1 ATP        -0.8727
      7 O2B         5.4250   -3.3745   -4.1481 O.co2     1 ATP        -0.8727
      8 O3B         6.3686   -2.7577   -1.8534 O.3       1 ATP        -0.8330
      9 PA          3.9554   -0.2064   -3.9565 P.3       1 ATP         1.6036
     10 O1A         3.0908   -1.0733   -4.8460 O.co2     1 ATP        -0.9062
     11 O2A         4.8709    0.8412   -4.5514 O.co2     1 ATP        -0.9062
     12 O3A         4.8444   -1.1732   -2.9846 O.3       1 ATP        -0.8166
     13 O5'         3.0213    0.5153   -2.8245 O.3       1 ATP        -0.5510
     14 C5'         2.2816   -0.2918   -1.9206 C.3       1 ATP         0.2099
     15 C4'         2.7248    0.0226   -0.4980 C.3       1 ATP         0.0598
     16 O4'         2.4697    1.4219   -0.2462 O.3       1 ATP        -0.3455
     17 C3'         1.9404   -0.7419    0.5596 C.3       1 ATP         0.0742
     18 O3'         2.7418   -0.8086    1.7389 O.3       1 ATP        -0.6025
     19 C2'         0.7477    0.1630    0.7858 C.3       1 ATP         0.1145
     20 O2'         0.1373   -0.0577    2.0407 O.3       1 ATP        -0.5835
     21 C1'         1.3733    1.5427    0.6747 C.3       1 ATP         0.3776
     22 N9          0.4520    2.5240    0.1767 N.pl3     1 ATP        -0.4429
     23 C8         -0.2004    2.4829   -0.9804 C.ar      1 ATP         0.2964
     24 N7         -0.9830    3.5431   -1.1568 N.pl3     1 ATP        -0.4957
     25 C5         -0.8095    4.3012   -0.0331 C.ar      1 ATP        -0.1346
     26 C6         -1.4065    5.5904    0.3585 C.ar      1 ATP         0.7213
     27 N6         -2.2501    6.2030   -0.4084 N.2       1 ATP        -0.8215
     28 N1         -0.9585    6.0272    1.5994 N.pl3     1 ATP        -0.8455
     29 C2         -0.0508    5.3009    2.3532 C.ar      1 ATP         0.6477
     30 N3          0.4890    4.1592    2.0257 N.2       1 ATP        -0.5707
     31 C4          0.0637    3.7006    0.7995 C.ar      1 ATP         0.2637
     32 HOG3        6.8321   -2.8702    0.8881 H         1 ATP         0.4378
     33 H5'1        1.2163   -0.0770   -2.0471 H         1 ATP         0.0340
     34 H5'2        2.4655   -1.3443   -2.1563 H         1 ATP         0.0340
     35 H4'         3.8044   -0.1397   -0.4040 H         1 ATP         0.0910
     36 H3'         1.6764   -1.7639    0.2728 H         1 ATP         0.0656
     37 HO3'        3.5554   -1.2733    1.4914 H         1 ATP         0.4386
     38 H2'        -0.0011    0.0027    0.0003 H         1 ATP         0.0788
     39 HO2'       -0.6141    0.5574    2.1082 H         1 ATP         0.4363
     40 H1'         1.7826    1.9024    1.6451 H         1 ATP         0.1225
     41 H8         -0.1116    1.6863   -1.6984 H         1 ATP         0.3824
     42 HN62       -2.5420    7.0730    0.0447 H         1 ATP         0.4018
     43 H2          0.1969    5.7893    3.3086 H         1 ATP         0.0652
     44 H44        -1.3097    6.9080    1.9642 H         1 ATP         0.4503
     45 H45        -1.5735    3.7351   -1.9538 H         1 ATP         0.5209
@<TRIPOS>BOND
     1    1    2 2
     2    1    3 1
     3    1    4 1
     4    1    8 1
     5    4   32 1
     6    5    6 2
     7    5    7 1
     8    5    8 1
     9    5   12 1
    10    9   10 2
    11    9   11 1
    12    9   12 1
    13    9   13 1
    14   13   14 1
    15   14   15 1
    16   14   33 1
    17   14   34 1
    18   15   16 1
    19   15   17 1
    20   15   35 1
    21   16   21 1
    22   17   18 1
    23   17   19 1
    24   17   36 1
    25   18   37 1
    26   19   20 1
    27   19   21 1
    28   19   38 1
    29   20   39 1
    30   21   22 1
    31   21   40 1
    32   22   23 ar
    33   22   31 ar
    34   23   24 ar
    35   23   41 1
    36   24   25 ar
    37   24   45 1
    38   25   26 ar
    39   25   31 ar
    40   26   27 2
    41   26   28 ar
    42   27   42 1
    43   28   29 ar
    44   28   44 1
    45   29   30 ar
    46   29   43 1
    47   30   31 ar
@<TRIPOS>SUBSTRUCTURE
     1 ATP         1 GROUP 0 A     ****
@<TRIPOS>MOLECULE
[[[3,4-dihydroxy-5-(6-imino-7,8-dihydro-1~{H}-purin-8-ylium-9-yl)tetrahydrofuran-2-yl]methoxy-oxido-phosphoryl]oxy-oxido-phosphoryl] hydrogen phosphate
   45    47     1     0     0
SMALL
USER_CHARGES

@<TRIPOS>ATOM
      1 PG         -2.2092   -0.4145    7.2494 P.3       1 ATP         1.5631
      2 O1G        -2.0457    0.7137    6.2554 O.co2     1 ATP        -0.8806
      3 O2G        -1.4661   -0.4036    8.5667 O.co2     1 ATP        -0.8806
      4 O3G        -3.8013   -0.6109    7.5539 O.3       1 ATP        -0.8165
      5 PB         -0.5408   -2.4233    5.8620 P.3       1 ATP         1.6877
      6 O1B        -0.1491   -1.5732    4.6740 O.co2     1 ATP        -0.8727
      7 O2B         0.4317   -2.6897    6.9894 O.co2     1 ATP        -0.8727
      8 O3B        -1.9258   -1.8332    6.4940 O.3       1 ATP        -0.8330
      9 PA         -0.3427   -5.0626    4.5392 P.3       1 ATP         1.6036
     10 O1A        -1.3607   -6.1049    4.1300 O.co2     1 ATP        -0.9062
     11 O2A         0.8758   -5.4478    5.3495 O.co2     1 ATP        -0.9062
     12 O3A        -1.1150   -3.8511    5.3173 O.3       1 ATP        -0.8166
     13 O5'         0.1618   -4.2444    3.2161 O.3       1 ATP        -0.5510
     14 C5'        -0.7840   -3.8935    2.2172 C.3       1 ATP         0.2099
     15 C4'        -0.0724   -3.1466    1.1027 C.3       1 ATP         0.0598
     16 O4'        -0.8674   -3.1929   -0.0945 O.3       1 ATP        -0.3455
     17 C3'         0.1338   -1.6715    1.4027 C.3       1 ATP         0.0742
     18 O3'         1.2893   -1.4445    2.1808 O.3       1 ATP        -0.6025
     19 C2'         0.2158   -1.0724    0.0128 C.3       1 ATP         0.1145
     20 O2'         1.5141   -1.2448   -0.5513 O.3       1 ATP        -0.5835
     21 C1'        -0.7897   -1.9176   -0.7583 C.3       1 ATP         0.3776
     22 N9         -2.1040   -1.3333   -0.7704 N.pl3     1 ATP        -0.4429
     23 C8         -3.0590   -1.5123    0.1363 C.ar      1 ATP         0.2964
     24 N7         -4.1655   -0.8354   -0.1554 N.pl3     1 ATP        -0.4957
     25 C5         -3.8852   -0.1874   -1.3253 C.ar      1 ATP        -0.1346
     26 C6         -4.7113    0.7160   -2.1458 C.ar      1 ATP         0.7213
     27 N6         -5.9213    1.0209   -1.8021 N.2       1 ATP        -0.8215
     28 N1         -4.0411    1.1673   -3.2764 N.pl3     1 ATP        -0.8455
     29 C2         -2.7403    0.7865   -3.5638 C.ar      1 ATP         0.6477
     30 N3         -1.9921   -0.0108   -2.8519 N.2       1 ATP        -0.5707
     31 C4         -2.6302   -0.4747   -1.7239 C.ar      1 ATP         0.2637
     32 HOG3       -4.0730   -1.3109    8.1850 H         1 ATP         0.4378
     33 H5'1       -1.2460   -4.8076    1.8325 H         1 ATP         0.0340
     34 H5'2       -1.5566   -3.2641    2.6688 H         1 ATP         0.0340
     35 H4'         0.8874   -3.6466    0.8805 H         1 ATP         0.0910
     36 H3'        -0.7376   -1.2333    1.9867 H         1 ATP         0.0656
     37 HO3'        1.3408   -0.4870    2.3219 H         1 ATP         0.4386
     38 H2'        -0.0384   -0.0310    0.0096 H         1 ATP         0.0788
     39 HO2'        2.1463   -0.7958    0.0370 H         1 ATP         0.4363
     40 H1'        -0.4769   -2.1002   -1.8093 H         1 ATP         0.1225
     41 H8         -2.9569   -2.1323    1.0098 H         1 ATP         0.3824
     42 HN62       -6.3169    1.6552   -2.5012 H         1 ATP         0.4018
     43 H2         -2.3612    1.2343   -4.4957 H         1 ATP         0.0652
     44 H44        -4.5223    1.7976   -3.9117 H         1 ATP         0.4503
     45 H45        -5.0218   -0.8132    0.3804 H         1 ATP         0.5209
@<TRIPOS>BOND
     1    1    2 2
     2    1    3 1
     3    1    4 1
     4    1    8 1
     5    4   32 1
     6    5    6 2
     7    5    7 1
     8    5    8 1
     9    5   12 1
    10    9   10 2
    11    9   11 1
    12    9   12 1
    13    9   13 1
    14   13   14 1
    15   14   15 1
    16   14   33 1
    17   14   34 1
    18   15   16 1
    19   15   17 1
    20   15   35 1
    21   16   21 1
    22   17   18 1
    23   17   19 1
    24   17   36 1
    25   18   37 1
    26   19   20 1
    27   19   21 1
    28   19   38 1
    29   20   39 1
    30   21   22 1
    31   21   40 1
    32   22   23 ar
    33   22   31 ar
    34   23   24 ar
    35   23   41 1
    36   24   25 ar
    37   24   45 1
    38   25   26 ar
    39   25   31 ar
    40   26   27 2
    41   26   28 ar
    42   27   42 1
    43   28   29 ar
    44   28   44 1
    45   29   30 ar
    46   29   43 1
    47   30   31 ar
@<TRIPOS>SUBSTRUCTURE
     1 ATP         1 GROUP 0 A     ****
@<TRIPOS>MOLECULE
[[[3,4-dihydroxy-5-(6-imino-7,8-dihydro-1~{H}-purin-8-ylium-9-yl)tetrahydrofuran-2-yl]methoxy-oxido-phosphoryl]oxy-oxido-phosphoryl] hydrogen phosphate
   45    47     1     0     0
SMALL
USER_CHARGES

@<TRIPOS>ATOM
      1 PG          8.3616    0.2046    0.7003 P.3       1 ATP         1.5631
      2 O1G         9.3881    1.1997    0.2068 O.co2     1 ATP        -0.8806
      3 O2G         8.7408   -1.2347    0.9691 O.co2     1 ATP        -0.8806
      4 O3G         7.6520    0.8125    2.0393 O.3       1 ATP        -0.8165
      5 PB          6.9461   -0.2229   -1.8604 P.3       1 ATP         1.6877
      6 O1B         7.7755    0.7161   -2.7076 O.co2     1 ATP        -0.8727
      7 O2B         7.1297   -1.7218   -1.9435 O.co2     1 ATP        -0.8727
      8 O3B         7.0706    0.2339   -0.2979 O.3       1 ATP        -0.8330
      9 PA          4.4374   -0.0466   -3.4193 P.3       1 ATP         1.6036
     10 O1A         4.3033   -1.5210   -3.7328 O.co2     1 ATP        -0.9062
     11 O2A         4.9277    0.9261   -4.4696 O.co2     1 ATP        -0.9062
     12 O3A         5.3672    0.1247   -2.0867 O.3       1 ATP        -0.8166
     13 O5'         3.0213    0.5153   -2.8245 O.3       1 ATP        -0.5510
     14 C5'         2.2816   -0.2918   -1.9206 C.3       1 ATP         0.2099
     15 C4'         2.7248    0.0226   -0.4980 C.3       1 ATP         0.0598
     16 O4'         2.4697    1.4219   -0.2462 O.3       1 ATP        -0.3455
     17 C3'         1.9404   -0.7419    0.5596 C.3       1 ATP         0.0742
     18 O3'         2.7418   -0.8086    1.7389 O.3       1 ATP        -0.6025
     19 C2'         0.7477    0.1630    0.7858 C.3       1 ATP         0.1145
     20 O2'         0.1373   -0.0577    2.0407 O.3       1 ATP        -0.5835
     21 C1'         1.3733    1.5427    0.6747 C.3       1 ATP         0.3776
     22 N9          0.4520    2.5240    0.1767 N.pl3     1 ATP        -0.4429
     23 C8         -0.2004    2.4829   -0.9804 C.ar      1 ATP         0.2964
     24 N7         -0.9830    3.5431   -1.1568 N.pl3     1 ATP        -0.4957
     25 C5         -0.8095    4.3012   -0.0331 C.ar      1 ATP        -0.1346
     26 C6         -1.4065    5.5904    0.3585 C.ar      1 ATP         0.7213
     27 N6         -2.2501    6.2030   -0.4084 N.2       1 ATP        -0.8215
     28 N1         -0.9585    6.0272    1.5994 N.pl3     1 ATP        -0.8455
     29 C2         -0.0508    5.3009    2.3532 C.ar      1 ATP         0.6477
     30 N3          0.4890    4.1592    2.0257 N.2       1 ATP        -0.5707
     31 C4          0.0637    3.7006    0.7995 C.ar      1 ATP         0.2637
     32 HOG3        6.9571    0.2801    2.4821 H         1 ATP         0.4378
     33 H5'1        1.2163   -0.0770   -2.0471 H         1 ATP         0.0340
     34 H5'2        2.4655   -1.3443   -2.1563 H         1 ATP         0.0340
     35 H4'         3.8044   -0.1397   -0.4040 H         1 ATP         0.0910
     36 H3'         1.6764   -1.7639    0.2728 H         1 ATP         0.0656
     37 HO3'        3.5554   -1.2733    1.4914 H         1 ATP         0.4386
     38 H2'        -0.0011    0.0027    0.0003 H         1 ATP         0.0788
     39 HO2'       -0.6141    0.5574    2.1082 H         1 ATP         0.4363
     40 H1'         1.7826    1.9024    1.6451 H         1 ATP         0.1225
     41 H8         -0.1116    1.6863   -1.6984 H         1 ATP         0.3824
     42 HN62       -2.5420    7.0730    0.0447 H         1 ATP         0.4018
     43 H2          0.1969    5.7893    3.3086 H         1 ATP         0.0652
     44 H44        -1.3097    6.9080    1.9642 H         1 ATP         0.4503
     45 H45        -1.5735    3.7351   -1.9538 H         1 ATP         0.5209
@<TRIPOS>BOND
     1    1    2 2
     2    1    3 1
     3    1    4 1
     4    1    8 1
     5    4   32 1
     6    5    6 2
     7    5    7 1
     8    5    8 1
     9    5   12 1
    10    9   10 2
    11    9   11 1
    12    9   12 1
    13    9   13 1
    14   13   14 1
    15   14   15 1
    16   14   33 1
    17   14   34 1
    18   15   16 1
    19   15   17 1
    20   15   35 1
    21   16   21 1
    22   17   18 1
    23   17   19 1
    24   17   36 1
    25   18   37 1
    26   19   20 1
    27   19   21 1
    28   19   38 1
    29   20   39 1
    30   21   22 1
    31   21   40 1
    32   22   23 ar
    33   22   31 ar
    34   23   24 ar
    35   23   41 1
    36   24   25 ar
    37   24   45 1
    38   25   26 ar
    39   25   31 ar
    40   26   27 2
    41   26   28 ar
    42   27   42 1
    43   28   29 ar
    44   28   44 1
    45   29   30 ar
    46   29   43 1
    47   30   31 ar
@<TRIPOS>SUBSTRUCTURE
     1 ATP         1 GROUP 0 A     ****
@<TRIPOS>MOLECULE
[[[3,4-dihydroxy-5-(6-imino-7,8-dihydro-1~{H}-purin-8-ylium-9-yl)tetrahydrofuran-2-yl]methoxy-oxido-phosphoryl]oxy-oxido-phosphoryl] hydrogen phosphate
   45    47     1     0     0
SMALL
USER_CHARGES

@<TRIPOS>ATOM
      1 PG         -4.4769   -7.0194    5.8085 P.3       1 ATP         1.5631
      2 O1G        -4.4248   -8.4913    6.1523 O.co2     1 ATP        -0.8806
      3 O2G        -5.2145   -6.5336    4.5807 O.co2     1 ATP        -0.8806
      4 O3G        -5.0372   -6.2031    7.1068 O.3       1 ATP        -0.8165
      5 PB         -1.7256   -6.7497    4.7589 P.3       1 ATP         1.6877
      6 O1B        -0.5812   -5.8095    5.0650 O.co2     1 ATP        -0.8727
      7 O2B        -1.5175   -8.2470    4.7091 O.co2     1 ATP        -0.8727
      8 O3B        -2.9566   -6.4262    5.7815 O.3       1 ATP        -0.8330
      9 PA         -1.8564   -6.2730    1.8416 P.3       1 ATP         1.6036
     10 O1A        -2.8660   -5.5994    0.9376 O.co2     1 ATP        -0.9062
     11 O2A        -1.3423   -7.6612    1.5280 O.co2     1 ATP        -0.9062
     12 O3A        -2.4369   -6.2733    3.3690 O.3       1 ATP        -0.8166
     13 O5'        -0.5687   -5.2869    2.0510 O.3       1 ATP        -0.5510
     14 C5'        -0.7840   -3.8935    2.2172 C.3       1 ATP         0.2099
     15 C4'        -0.0724   -3.1466    1.1027 C.3       1 ATP         0.0598
     16 O4'        -0.8674   -3.1929   -0.0945 O.3       1 ATP        -0.3455
     17 C3'         0.1338   -1.6715    1.4027 C.3       1 ATP         0.0742
     18 O3'         1.2893   -1.4445    2.1808 O.3       1 ATP        -0.6025
     19 C2'         0.2158   -1.0724    0.0128 C.3       1 ATP         0.1145
     20 O2'         1.5141   -1.2448   -0.5513 O.3       1 ATP        -0.5835
     21 C1'        -0.7897   -1.9176   -0.7583 C.3       1 ATP         0.3776
     22 N9         -2.1040   -1.3333   -0.7704 N.pl3     1 ATP        -0.4429
     23 C8         -3.0590   -1.5123    0.1363 C.ar      1 ATP         0.2964
     24 N7         -4.1655   -0.8354   -0.1554 N.pl3     1 ATP        -0.4957
     25 C5         -3.8852   -0.1874   -1.3253 C.ar      1 ATP        -0.1346
     26 C6         -4.7113    0.7160   -2.1458 C.ar      1 ATP         0.7213
     27 N6         -5.9213    1.0209   -1.8021 N.2       1 ATP        -0.8215
     28 N1         -4.0411    1.1673   -3.2764 N.pl3     1 ATP        -0.8455
     29 C2         -2.7403    0.7865   -3.5638 C.ar      1 ATP         0.6477
     30 N3         -1.9921   -0.0108   -2.8519 N.2       1 ATP        -0.5707
     31 C4         -2.6302   -0.4747   -1.7239 C.ar      1 ATP         0.2637
     32 HOG3       -5.1295   -5.2286    7.0414 H         1 ATP         0.4378
     33 H5'1       -1.8598   -3.6968    2.1850 H         1 ATP         0.0340
     34 H5'2       -0.3933   -3.5903    3.1931 H         1 ATP         0.0340
     35 H4'         0.8874   -3.6466    0.8805 H         1 ATP         0.0910
     36 H3'        -0.7376   -1.2333    1.9867 H         1 ATP         0.0656
     37 HO3'        1.3408   -0.4870    2.3219 H         1 ATP         0.4386
     38 H2'        -0.0384   -0.0310    0.0096 H         1 ATP         0.0788
     39 HO2'        2.1463   -0.7958    0.0370 H         1 ATP         0.4363
     40 H1'        -0.4769   -2.1002   -1.8093 H         1 ATP         0.1225
     41 H8         -2.9569   -2.1323    1.0098 H         1 ATP         0.3824
     42 HN62       -6.3169    1.6552   -2.5012 H         1 ATP         0.4018
     43 H2         -2.3612    1.2343   -4.4957 H         1 ATP         0.0652
     44 H44        -4.5223    1.7976   -3.9117 H         1 ATP         0.4503
     45 H45        -5.0218   -0.8132    0.3804 H         1 ATP         0.5209
@<TRIPOS>BOND
     1    1    2 2
     2    1    3 1
     3    1    4 1
     4    1    8 1
     5    4   32 1
     6    5    6 2
     7    5    7 1
     8    5    8 1
     9    5   12 1
    10    9   10 2
    11    9   11 1
    12    9   12 1
    13    9   13 1
    14   13   14 1
    15   14   15 1
    16   14   33 1
    17   14   34 1
    18   15   16 1
    19   15   17 1
    20   15   35 1
    21   16   21 1
    22   17   18 1
    23   17   19 1
    24   17   36 1
    25   18   37 1
    26   19   20 1
    27   19   21 1
    28   19   38 1
    29   20   39 1
    30   21   22 1
    31   21   40 1
    32   22   23 ar
    33   22   31 ar
    34   23   24 ar
    35   23   41 1
    36   24   25 ar
    37   24   45 1
    38   25   26 ar
    39   25   31 ar
    40   26   27 2
    41   26   28 ar
    42   27   42 1
    43   28   29 ar
    44   28   44 1
    45   29   30 ar
    46   29   43 1
    47   30   31 ar
@<TRIPOS>SUBSTRUCTURE
     1 ATP         1 GROUP 0 A     ****
@<TRIPOS>MOLECULE
[[[3,4-dihydroxy-5-(6-imino-7,8-dihydro-1~{H}-purin-8-ylium-9-yl)tetrahydrofuran-2-yl]methoxy-oxido-phosphoryl]oxy-oxido-phosphoryl] hydrogen phosphate
   45    47     1     0     0
SMALL
USER_CHARGES

@<TRIPOS>ATOM
      1 PG          0.2907    5.4602   -3.5830 P.3       1 ATP         1.5631
      2 O1G        -1.2186    5.3668   -3.6112 O.co2     1 ATP        -0.8806
      3 O2G         1.0353    6.3157   -4.5837 O.co2     1 ATP        -0.8806
      4 O3G         0.7553    5.8972   -2.0800 O.3       1 ATP        -0.8165
      5 PB          0.8834    2.8247   -4.7858 P.3       1 ATP         1.6877
      6 O1B        -0.5448    2.3656   -4.9774 O.co2     1 ATP        -0.8727
      7 O2B         1.7109    3.3178   -5.9519 O.co2     1 ATP        -0.8727
      8 O3B         0.9167    3.9531   -3.6062 O.3       1 ATP        -0.8330
      9 PA          3.2344    1.6562   -3.4210 P.3       1 ATP         1.6036
     10 O1A         3.3058    2.6484   -2.2804 O.co2     1 ATP        -0.9062
     11 O2A         4.1989    1.7434   -4.5836 O.co2     1 ATP        -0.9062
     12 O3A         1.7125    1.6481   -4.0156 O.3       1 ATP        -0.8166
     13 O5'         3.2903    0.1346   -2.8241 O.3       1 ATP        -0.5510
     14 C5'         2.2816   -0.2918   -1.9206 C.3       1 ATP         0.2099
     15 C4'         2.7248    0.0226   -0.4980 C.3       1 ATP         0.0598
     16 O4'         2.4697    1.4219   -0.2462 O.3       1 ATP        -0.3455
     17 C3'         1.9404   -0.7419    0.5596 C.3       1 ATP         0.0742
     18 O3'         2.7418   -0.8086    1.7389 O.3       1 ATP        -0.6025
     19 C2'         0.7477    0.1630    0.7858 C.3       1 ATP         0.1145
     20 O2'         0.1373   -0.0577    2.0407 O.3       1 ATP        -0.5835
     21 C1'         1.3733    1.5427    0.6747 C.3       1 ATP         0.3776
     22 N9          0.4520    2.5240    0.1767 N.pl3     1 ATP        -0.4429
     23 C8         -0.2004    2.4829   -0.9804 C.ar      1 ATP         0.2964
     24 N7         -0.9830    3.5431   -1.1568 N.pl3     1 ATP        -0.4957
     25 C5         -0.8095    4.3012   -0.0331 C.ar      1 ATP        -0.1346
     26 C6         -1.4065    5.5904    0.3585 C.ar      1 ATP         0.7213
     27 N6         -2.2501    6.2030   -0.4084 N.2       1 ATP        -0.8215
     28 N1         -0.9585    6.0272    1.5994 N.pl3     1 ATP        -0.8455
     29 C2         -0.0508    5.3009    2.3532 C.ar      1 ATP         0.6477
     30 N3          0.4890    4.1592    2.0257 N.2       1 ATP        -0.5707
     31 C4          0.0637    3.7006    0.7995 C.ar      1 ATP         0.2637
     32 HOG3        1.7139    6.0010   -1.8993 H         1 ATP         0.4378
     33 H5'1        1.3514    0.2330   -2.1577 H         1 ATP         0.0340
     34 H5'2        2.1280   -1.3678   -2.0460 H         1 ATP         0.0340
     35 H4'         3.8044   -0.1397   -0.4040 H         1 ATP         0.0910
     36 H3'         1.6764   -1.7639    0.2728 H         1 ATP         0.0656
     37 HO3'        3.5554   -1.2733    1.4914 H         1 ATP         0.4386
     38 H2'        -0.0011    0.0027    0.0003 H         1 ATP         0.0788
     39 HO2'       -0.1563   -0.9855    2.0596 H         1 ATP         0.4363
     40 H1'         1.7826    1.9024    1.6451 H         1 ATP         0.1225
     41 H8         -0.1116    1.6863   -1.6984 H         1 ATP         0.3824
     42 HN62       -2.5420    7.0730    0.0447 H         1 ATP         0.4018
     43 H2          0.1969    5.7893    3.3086 H         1 ATP         0.0652
     44 H44        -1.3097    6.9080    1.9642 H         1 ATP         0.4503
     45 H45        -1.5735    3.7351   -1.9538 H         1 ATP         0.5209
@<TRIPOS>BOND
     1    1    2 2
     2    1    3 1
     3    1    4 1
     4    1    8 1
     5    4   32 1
     6    5    6 2
     7    5    7 1
     8    5    8 1
     9    5   12 1
    10    9   10 2
    11    9   11 1
    12    9   12 1
    13    9   13 1
    14   13   14 1
    15   14   15 1
    16   14   33 1
    17   14   34 1
    18   15   16 1
    19   15   17 1
    20   15   35 1
    21   16   21 1
    22   17   18 1
    23   17   19 1
    24   17   36 1
    25   18   37 1
    26   19   20 1
    27   19   21 1
    28   19   38 1
    29   20   39 1
    30   21   22 1
    31   21   40 1
    32   22   23 ar
    33   22   31 ar
    34   23   24 ar
    35   23   41 1
    36   24   25 ar
    37   24   45 1
    38   25   26 ar
    39   25   31 ar
    40   26   27 2
    41   26   28 ar
    42   27   42 1
    43   28   29 ar
    44   28   44 1
    45   29   30 ar
    46   29   43 1
    47   30   31 ar
@<TRIPOS>SUBSTRUCTURE
     1 ATP         1 GROUP 0 A     ****
@<TRIPOS>MOLECULE
[[[3,4-dihydroxy-5-(6-imino-7,8-dihydro-1~{H}-purin-8-ylium-9-yl)tetrahydrofuran-2-yl]methoxy-oxido-phosphoryl]oxy-oxido-phosphoryl] hydrogen phosphate
   45    47     1     0     0
SMALL
USER_CHARGES

@<TRIPOS>ATOM
      1 PG          4.6642   -6.8060    3.3536 P.3       1 ATP         1.5631
      2 O1G         5.1976   -5.7060    2.4631 O.co2     1 ATP        -0.8806
      3 O2G         4.9771   -8.2579    3.0676 O.co2     1 ATP        -0.8806
      4 O3G         5.0904   -6.4777    4.8952 O.3       1 ATP        -0.8165
      5 PB          1.8713   -6.7965    2.3827 P.3       1 ATP         1.6877
      6 O1B         2.0180   -5.6923    1.3596 O.co2     1 ATP        -0.8727
      7 O2B         1.7994   -8.2480    1.9638 O.co2     1 ATP        -0.8727
      8 O3B         3.0482   -6.6324    3.5023 O.3       1 ATP        -0.8330
      9 PA         -1.0040   -6.4123    2.9660 P.3       1 ATP         1.6036
     10 O1A        -1.7672   -5.9146    4.1744 O.co2     1 ATP        -0.9062
     11 O2A        -1.3786   -7.7174    2.2982 O.co2     1 ATP        -0.9062
     12 O3A         0.5873   -6.4616    3.3335 O.3       1 ATP        -0.8166
     13 O5'        -0.9724   -5.2440    1.8220 O.3       1 ATP        -0.5510
     14 C5'        -0.7840   -3.8935    2.2172 C.3       1 ATP         0.2099
     15 C4'        -0.0724   -3.1466    1.1027 C.3       1 ATP         0.0598
     16 O4'        -0.8674   -3.1929   -0.0945 O.3       1 ATP        -0.3455
     17 C3'         0.1338   -1.6715    1.4027 C.3       1 ATP         0.0742
     18 O3'         1.2893   -1.4445    2.1808 O.3       1 ATP        -0.6025
     19 C2'         0.2158   -1.0724    0.0128 C.3       1 ATP         0.1145
     20 O2'         1.5141   -1.2448   -0.5513 O.3       1 ATP        -0.5835
     21 C1'        -0.7897   -1.9176   -0.7583 C.3       1 ATP         0.3776
     22 N9         -2.1040   -1.3333   -0.7704 N.pl3     1 ATP        -0.4429
     23 C8         -3.0590   -1.5123    0.1363 C.ar      1 ATP         0.2964
     24 N7         -4.1655   -0.8354   -0.1554 N.pl3     1 ATP        -0.4957
     25 C5         -3.8852   -0.1874   -1.3253 C.ar      1 ATP        -0.1346
     26 C6         -4.7113    0.7160   -2.1458 C.ar      1 ATP         0.7213
     27 N6         -5.9213    1.0209   -1.8021 N.2       1 ATP        -0.8215
     28 N1         -4.0411    1.1673   -3.2764 N.pl3     1 ATP        -0.8455
     29 C2         -2.7403    0.7865   -3.5638 C.ar      1 ATP         0.6477
     30 N3         -1.9921   -0.0108   -2.8519 N.2       1 ATP        -0.5707
     31 C4         -2.6302   -0.4747   -1.7239 C.ar      1 ATP         0.2637
     32 HOG3        4.8160   -7.1037    5.5989 H         1 ATP         0.4378
     33 H5'1       -1.7618   -3.4448    2.4164 H         1 ATP         0.0340
     34 H5'2       -0.1874   -3.8744    3.1341 H         1 ATP         0.0340
     35 H4'         0.8874   -3.6466    0.8805 H         1 ATP         0.0910
     36 H3'        -0.7376   -1.2333    1.9867 H         1 ATP         0.0656
     37 HO3'        1.3408   -0.4870    2.3219 H         1 ATP         0.4386
     38 H2'        -0.0384   -0.0310    0.0096 H         1 ATP         0.0788
     39 HO2'        2.1463   -0.7958    0.0370 H         1 ATP         0.4363
     40 H1'        -0.4769   -2.1002   -1.8093 H         1 ATP         0.1225
     41 H8         -2.9569   -2.1323    1.0098 H         1 ATP         0.3824
     42 HN62       -6.3169    1.6552   -2.5012 H         1 ATP         0.4018
     43 H2         -2.3612    1.2343   -4.4957 H         1 ATP         0.0652
     44 H44        -4.5223    1.7976   -3.9117 H         1 ATP         0.4503
     45 H45        -5.0218   -0.8132    0.3804 H         1 ATP         0.5209
@<TRIPOS>BOND
     1    1    2 2
     2    1    3 1
     3    1    4 1
     4    1    8 1
     5    4   32 1
     6    5    6 2
     7    5    7 1
     8    5    8 1
     9    5   12 1
    10    9   10 2
    11    9   11 1
    12    9   12 1
    13    9   13 1
    14   13   14 1
    15   14   15 1
    16   14   33 1
    17   14   34 1
    18   15   16 1
    19   15   17 1
    20   15   35 1
    21   16   21 1
    22   17   18 1
    23   17   19 1
    24   17   36 1
    25   18   37 1
    26   19   20 1
    27   19   21 1
    28   19   38 1
    29   20   39 1
    30   21   22 1
    31   21   40 1
    32   22   23 ar
    33   22   31 ar
    34   23   24 ar
    35   23   41 1
    36   24   25 ar
    37   24   45 1
    38   25   26 ar
    39   25   31 ar
    40   26   27 2
    41   26   28 ar
    42   27   42 1
    43   28   29 ar
    44   28   44 1
    45   29   30 ar
    46   29   43 1
    47   30   31 ar
@<TRIPOS>SUBSTRUCTURE
     1 ATP         1 GROUP 0 A     ****
@<TRIPOS>MOLECULE
[[[3,4-dihydroxy-5-(6-imino-7,8-dihydro-1~{H}-purin-8-ylium-9-yl)tetrahydrofuran-2-yl]methoxy-oxido-phosphoryl]oxy-oxido-phosphoryl] hydrogen phosphate
   45    47     1     0     0
SMALL
USER_CHARGES

@<TRIPOS>ATOM
      1 PG          1.3972   -0.8149   -8.1831 P.3       1 ATP         1.5631
      2 O1G         1.3297   -2.1571   -8.8769 O.co2     1 ATP        -0.8806
      3 O2G         2.1072    0.3566   -8.8242 O.co2     1 ATP        -0.8806
      4 O3G        -0.1208   -0.3534   -7.7977 O.3       1 ATP        -0.8165
      5 PB          3.4664   -1.4950   -6.1831 P.3       1 ATP         1.6877
      6 O1B         3.6827   -2.9330   -6.5989 O.co2     1 ATP        -0.8727
      7 O2B         4.4611   -0.4158   -6.5485 O.co2     1 ATP        -0.8727
      8 O3B         1.9815   -1.0260   -6.6738 O.3       1 ATP        -0.8330
      9 PA          2.1372   -2.2718   -3.6563 P.3       1 ATP         1.6036
     10 O1A         2.4859   -3.7437   -3.7017 O.co2     1 ATP        -0.9062
     11 O2A         0.7459   -1.7951   -4.0125 O.co2     1 ATP        -0.9062
     12 O3A         3.2120   -1.4489   -4.5713 O.3       1 ATP        -0.8166
     13 O5'         2.5245   -1.6648   -2.1878 O.3       1 ATP        -0.5510
     14 C5'         2.2816   -0.2918   -1.9206 C.3       1 ATP         0.2099
     15 C4'         2.7248    0.0226   -0.4980 C.3       1 ATP         0.0598
     16 O4'         2.4697    1.4219   -0.2462 O.3       1 ATP        -0.3455
     17 C3'         1.9404   -0.7419    0.5596 C.3       1 ATP         0.0742
     18 O3'         2.7418   -0.8086    1.7389 O.3       1 ATP        -0.6025
     19 C2'         0.7477    0.1630    0.7858 C.3       1 ATP         0.1145
     20 O2'         0.1373   -0.0577    2.0407 O.3       1 ATP        -0.5835
     21 C1'         1.3733    1.5427    0.6747 C.3       1 ATP         0.3776
     22 N9          0.4520    2.5240    0.1767 N.pl3     1 ATP        -0.4429
     23 C8         -0.3347    3.3121    0.9021 C.ar      1 ATP         0.2964
     24 N7         -1.0768    4.1172    0.1479 N.pl3     1 ATP        -0.4957
     25 C5         -0.7318    3.8130   -1.1389 C.ar      1 ATP        -0.1346
     26 C6         -1.2094    4.3661   -2.4187 C.ar      1 ATP         0.7213
     27 N6         -2.1040    5.3007   -2.4569 N.2       1 ATP        -0.8215
     28 N1         -0.5949    3.7732   -3.5151 N.pl3     1 ATP        -0.8455
     29 C2          0.3569    2.7758   -3.3770 C.ar      1 ATP         0.6477
     30 N3          0.7934    2.2726   -2.2552 N.2       1 ATP        -0.5707
     31 C4          0.2019    2.8412   -1.1500 C.ar      1 ATP         0.2637
     32 HOG3       -0.2456    0.5043   -7.3383 H         1 ATP         0.4378
     33 H5'1        2.8432    0.3119   -2.6398 H         1 ATP         0.0340
     34 H5'2        1.2128   -0.0927   -2.0428 H         1 ATP         0.0340
     35 H4'         3.8044   -0.1397   -0.4040 H         1 ATP         0.0910
     36 H3'         1.6764   -1.7639    0.2728 H         1 ATP         0.0656
     37 HO3'        2.2232   -1.2979    2.3953 H         1 ATP         0.4386
     38 H2'        -0.0011    0.0027    0.0003 H         1 ATP         0.0788
     39 HO2'       -0.6141    0.5574    2.1082 H         1 ATP         0.4363
     40 H1'         1.7826    1.9024    1.6451 H         1 ATP         0.1225
     41 H8         -0.3729    3.3063    1.9775 H         1 ATP         0.3824
     42 HN62       -2.2940    5.5408   -3.4335 H         1 ATP         0.4018
     43 H2          0.7413    2.4168   -4.3445 H         1 ATP         0.0652
     44 H44        -0.8531    4.0829   -4.4476 H         1 ATP         0.4503
     45 H45        -1.7471    4.8016    0.4689 H         1 ATP         0.5209
@<TRIPOS>BOND
     1    1    2 2
     2    1    3 1
     3    1    4 1
     4    1    8 1
     5    4   32 1
     6    5    6 2
     7    5    7 1
     8    5    8 1
     9    5   12 1
    10    9   10 2
    11    9   11 1
    12    9   12 1
    13    9   13 1
    14   13   14 1
    15   14   15 1
    16   14   33 1
    17   14   34 1
    18   15   16 1
    19   15   17 1
    20   15   35 1
    21   16   21 1
    22   17   18 1
    23   17   19 1
    24   17   36 1
    25   18   37 1
    26   19   20 1
    27   19   21 1
    28   19   38 1
    29   20   39 1
    30   21   22 1
    31   21   40 1
    32   22   23 ar
    33   22   31 ar
    34   23   24 ar
    35   23   41 1
    36   24   25 ar
    37   24   45 1
    38   25   26 ar
    39   25   31 ar
    40   26   27 2
    41   26   28 ar
    42   27   42 1
    43   28   29 ar
    44   28   44 1
    45   29   30 ar
    46   29   43 1
    47   30   31 ar
@<TRIPOS>SUBSTRUCTURE
     1 ATP         1 GROUP 0 A     ****
@<TRIPOS>MOLECULE
[[[3,4-dihydroxy-5-(6-imino-7,8-dihydro-1~{H}-purin-8-ylium-9-yl)tetrahydrofuran-2-yl]methoxy-oxido-phosphoryl]oxy-oxido-phosphoryl] hydrogen phosphate
   45    47     1     0     0
SMALL
USER_CHARGES

@<TRIPOS>ATOM
      1 PG         -0.7639   -5.5501   -5.6558 P.3       1 ATP         1.5631
      2 O1G        -0.5787   -5.2005   -7.1156 O.co2     1 ATP        -0.8806
      3 O2G        -2.1254   -5.9223   -5.1124 O.co2     1 ATP        -0.8806
      4 O3G         0.2905   -6.7351   -5.2684 O.3       1 ATP        -0.8165
      5 PB         -0.6289   -2.8068   -4.5607 P.3       1 ATP         1.6877
      6 O1B        -0.4217   -2.0779   -5.8696 O.co2     1 ATP        -0.8727
      7 O2B        -1.9720   -2.8019   -3.8654 O.co2     1 ATP        -0.8727
      8 O3B        -0.1376   -4.3535   -4.7395 O.3       1 ATP        -0.8330
      9 PA          2.1372   -2.2718   -3.6563 P.3       1 ATP         1.6036
     10 O1A         2.4977   -1.2667   -4.7287 O.co2     1 ATP        -0.9062
     11 O2A         2.6452   -3.6953   -3.7281 O.co2     1 ATP        -0.9062
     12 O3A         0.5112   -2.3140   -3.5013 O.3       1 ATP        -0.8166
     13 O5'         2.5245   -1.6648   -2.1878 O.3       1 ATP        -0.5510
     14 C5'         2.2816   -0.2918   -1.9206 C.3       1 ATP         0.2099
     15 C4'         2.7248    0.0226   -0.4980 C.3       1 ATP         0.0598
     16 O4'         2.4697    1.4219   -0.2462 O.3       1 ATP        -0.3455
     17 C3'         1.9404   -0.7419    0.5596 C.3       1 ATP         0.0742
     18 O3'         2.7418   -0.8086    1.7389 O.3       1 ATP        -0.6025
     19 C2'         0.7477    0.1630    0.7858 C.3       1 ATP         0.1145
     20 O2'         0.1373   -0.0577    2.0407 O.3       1 ATP        -0.5835
     21 C1'         1.3733    1.5427    0.6747 C.3       1 ATP         0.3776
     22 N9          0.4520    2.5240    0.1767 N.pl3     1 ATP        -0.4429
     23 C8         -0.3347    3.3121    0.9021 C.ar      1 ATP         0.2964
     24 N7         -1.0768    4.1172    0.1479 N.pl3     1 ATP        -0.4957
     25 C5         -0.7318    3.8130   -1.1389 C.ar      1 ATP        -0.1346
     26 C6         -1.2094    4.3661   -2.4187 C.ar      1 ATP         0.7213
     27 N6         -2.1040    5.3007   -2.4569 N.2       1 ATP        -0.8215
     28 N1         -0.5949    3.7732   -3.5151 N.pl3     1 ATP        -0.8455
     29 C2          0.3569    2.7758   -3.3770 C.ar      1 ATP         0.6477
     30 N3          0.7934    2.2726   -2.2552 N.2       1 ATP        -0.5707
     31 C4          0.2019    2.8412   -1.1500 C.ar      1 ATP         0.2637
     32 HOG3        0.2940   -7.0744   -4.3481 H         1 ATP         0.4378
     33 H5'1        2.8432    0.3119   -2.6398 H         1 ATP         0.0340
     34 H5'2        1.2128   -0.0927   -2.0428 H         1 ATP         0.0340
     35 H4'         3.8044   -0.1397   -0.4040 H         1 ATP         0.0910
     36 H3'         1.6764   -1.7639    0.2728 H         1 ATP         0.0656
     37 HO3'        2.2232   -1.2979    2.3953 H         1 ATP         0.4386
     38 H2'        -0.0011    0.0027    0.0003 H         1 ATP         0.0788
     39 HO2'       -0.6141    0.5574    2.1082 H         1 ATP         0.4363
     40 H1'         1.7826    1.9024    1.6451 H         1 ATP         0.1225
     41 H8         -0.3729    3.3063    1.9775 H         1 ATP         0.3824
     42 HN62       -2.2940    5.5408   -3.4335 H         1 ATP         0.4018
     43 H2          0.7413    2.4168   -4.3445 H         1 ATP         0.0652
     44 H44        -0.8531    4.0829   -4.4476 H         1 ATP         0.4503
     45 H45        -1.7471    4.8016    0.4689 H         1 ATP         0.5209
@<TRIPOS>BOND
     1    1    2 2
     2    1    3 1
     3    1    4 1
     4    1    8 1
     5    4   32 1
     6    5    6 2
     7    5    7 1
     8    5    8 1
     9    5   12 1
    10    9   10 2
    11    9   11 1
    12    9   12 1
    13    9   13 1
    14   13   14 1
    15   14   15 1
    16   14   33 1
    17   14   34 1
    18   15   16 1
    19   15   17 1
    20   15   35 1
    21   16   21 1
    22   17   18 1
    23   17   19 1
    24   17   36 1
    25   18   37 1
    26   19   20 1
    27   19   21 1
    28   19   38 1
    29   20   39 1
    30   21   22 1
    31   21   40 1
    32   22   23 ar
    33   22   31 ar
    34   23   24 ar
    35   23   41 1
    36   24   25 ar
    37   24   45 1
    38   25   26 ar
    39   25   31 ar
    40   26   27 2
    41   26   28 ar
    42   27   42 1
    43   28   29 ar
    44   28   44 1
    45   29   30 ar
    46   29   43 1
    47   30   31 ar
@<TRIPOS>SUBSTRUCTURE
     1 ATP         1 GROUP 0 A     ****
@<TRIPOS>MOLECULE
[[[3,4-dihydroxy-5-(6-imino-7,8-dihydro-1~{H}-purin-8-ylium-9-yl)tetrahydrofuran-2-yl]methoxy-oxido-phosphoryl]oxy-oxido-phosphoryl] hydrogen phosphate
   45    47     1     0     0
SMALL
USER_CHARGES

@<TRIPOS>ATOM
      1 PG         -2.3507   -8.3541    3.7222 P.3       1 ATP         1.5631
      2 O1G        -2.0560   -9.3764    2.6473 O.co2     1 ATP        -0.8806
      3 O2G        -2.7628   -6.9441    3.3619 O.co2     1 ATP        -0.8806
      4 O3G        -3.4670   -8.9768    4.7382 O.3       1 ATP        -0.8165
      5 PB          0.4405   -7.7708    4.5046 P.3       1 ATP         1.6877
      6 O1B         1.1709   -7.7602    5.8289 O.co2     1 ATP        -0.8727
      7 O2B         1.0076   -8.4936    3.3030 O.co2     1 ATP        -0.8727
      8 O3B        -1.0876   -8.2887    4.7537 O.3       1 ATP        -0.8330
      9 PA          1.1153   -5.0160    3.6616 P.3       1 ATP         1.6036
     10 O1A         1.7973   -5.3763    2.3595 O.co2     1 ATP        -0.9062
     11 O2A         1.9269   -4.6320    4.8795 O.co2     1 ATP        -0.9062
     12 O3A         0.1056   -6.2308    4.0794 O.3       1 ATP        -0.8166
     13 O5'         0.0118   -3.8395    3.3916 O.3       1 ATP        -0.5510
     14 C5'        -0.7840   -3.8935    2.2172 C.3       1 ATP         0.2099
     15 C4'        -0.0724   -3.1466    1.1027 C.3       1 ATP         0.0598
     16 O4'        -0.8674   -3.1929   -0.0945 O.3       1 ATP        -0.3455
     17 C3'         0.1338   -1.6715    1.4027 C.3       1 ATP         0.0742
     18 O3'         1.2893   -1.4445    2.1808 O.3       1 ATP        -0.6025
     19 C2'         0.2158   -1.0724    0.0128 C.3       1 ATP         0.1145
     20 O2'         1.5141   -1.2448   -0.5513 O.3       1 ATP        -0.5835
     21 C1'        -0.7897   -1.9176   -0.7583 C.3       1 ATP         0.3776
     22 N9         -2.1040   -1.3333   -0.7704 N.pl3     1 ATP        -0.4429
     23 C8         -3.0590   -1.5123    0.1363 C.ar      1 ATP         0.2964
     24 N7         -4.1655   -0.8354   -0.1554 N.pl3     1 ATP        -0.4957
     25 C5         -3.8852   -0.1874   -1.3253 C.ar      1 ATP        -0.1346
     26 C6         -4.7113    0.7160   -2.1458 C.ar      1 ATP         0.7213
     27 N6         -5.9213    1.0209   -1.8021 N.2       1 ATP        -0.8215
     28 N1         -4.0411    1.1673   -3.2764 N.pl3     1 ATP        -0.8455
     29 C2         -2.7403    0.7865   -3.5638 C.ar      1 ATP         0.6477
     30 N3         -1.9921   -0.0108   -2.8519 N.2       1 ATP        -0.5707
     31 C4         -2.6302   -0.4747   -1.7239 C.ar      1 ATP         0.2637
     32 HOG3       -3.7659   -8.4296    5.4955 H         1 ATP         0.4378
     33 H5'1       -0.9348   -4.9415    1.9415 H         1 ATP         0.0340
     34 H5'2       -1.7548   -3.4350    2.4278 H         1 ATP         0.0340
     35 H4'         0.8874   -3.6466    0.8805 H         1 ATP         0.0910
     36 H3'        -0.7376   -1.2333    1.9867 H         1 ATP         0.0656
     37 HO3'        1.1626   -1.9325    3.0084 H         1 ATP         0.4386
     38 H2'        -0.0384   -0.0310    0.0096 H         1 ATP         0.0788
     39 HO2'        2.1463   -0.7958    0.0370 H         1 ATP         0.4363
     40 H1'        -0.4769   -2.1002   -1.8093 H         1 ATP         0.1225
     41 H8         -2.9569   -2.1323    1.0098 H         1 ATP         0.3824
     42 HN62       -6.3169    1.6552   -2.5012 H         1 ATP         0.4018
     43 H2         -2.3612    1.2343   -4.4957 H         1 ATP         0.0652
     44 H44        -4.5223    1.7976   -3.9117 H         1 ATP         0.4503
     45 H45        -5.0218   -0.8132    0.3804 H         1 ATP         0.5209
@<TRIPOS>BOND
     1    1    2 2
     2    1    3 1
     3    1    4 1
     4    1    8 1
     5    4   32 1
     6    5    6 2
     7    5    7 1
     8    5    8 1
     9    5   12 1
    10    9   10 2
    11    9   11 1
    12    9   12 1
    13    9   13 1
    14   13   14 1
    15   14   15 1
    16   14   33 1
    17   14   34 1
    18   15   16 1
    19   15   17 1
    20   15   35 1
    21   16   21 1
    22   17   18 1
    23   17   19 1
    24   17   36 1
    25   18   37 1
    26   19   20 1
    27   19   21 1
    28   19   38 1
    29   20   39 1
    30   21   22 1
    31   21   40 1
    32   22   23 ar
    33   22   31 ar
    34   23   24 ar
    35   23   41 1
    36   24   25 ar
    37   24   45 1
    38   25   26 ar
    39   25   31 ar
    40   26   27 2
    41   26   28 ar
    42   27   42 1
    43   28   29 ar
    44   28   44 1
    45   29   30 ar
    46   29   43 1
    47   30   31 ar
@<TRIPOS>SUBSTRUCTURE
     1 ATP         1 GROUP 0 A     ****
@<TRIPOS>MOLECULE
[[[3,4-dihydroxy-5-(6-imino-7,8-dihydro-1~{H}-purin-8-ylium-9-yl)tetrahydrofuran-2-yl]methoxy-oxido-phosphoryl]oxy-oxido-phosphoryl] hydrogen phosphate
   45    47     1     0     0
SMALL
USER_CHARGES

@<TRIPOS>ATOM
      1 PG         -4.4603   -6.6549    7.0069 P.3       1 ATP         1.5631
      2 O1G        -5.7999   -5.9530    6.9885 O.co2     1 ATP        -0.8806
      3 O2G        -3.5026   -6.4715    8.1632 O.co2     1 ATP        -0.8806
      4 O3G        -4.7093   -8.2537    6.7886 O.3       1 ATP        -0.8165
      5 PB         -4.1678   -6.5186    4.0676 P.3       1 ATP         1.6877
      6 O1B        -4.3263   -7.9952    3.7813 O.co2     1 ATP        -0.8727
      7 O2B        -5.2923   -5.5434    3.7990 O.co2     1 ATP        -0.8727
      8 O3B        -3.6739   -6.3351    5.6130 O.3       1 ATP        -0.8330
      9 PA         -2.4917   -5.8416    1.7251 P.3       1 ATP         1.6036
     10 O1A        -3.4086   -4.7948    1.1303 O.co2     1 ATP        -0.9062
     11 O2A        -2.4158   -7.2311    1.1308 O.co2     1 ATP        -0.9062
     12 O3A        -2.8196   -5.9822    3.3196 O.3       1 ATP        -0.8166
     13 O5'        -0.9724   -5.2440    1.8220 O.3       1 ATP        -0.5510
     14 C5'        -0.7840   -3.8935    2.2172 C.3       1 ATP         0.2099
     15 C4'        -0.0724   -3.1466    1.1027 C.3       1 ATP         0.0598
     16 O4'        -0.8674   -3.1929   -0.0945 O.3       1 ATP        -0.3455
     17 C3'         0.1338   -1.6715    1.4027 C.3       1 ATP         0.0742
     18 O3'         1.2893   -1.4445    2.1808 O.3       1 ATP        -0.6025
     19 C2'         0.2158   -1.0724    0.0128 C.3       1 ATP         0.1145
     20 O2'         1.5141   -1.2448   -0.5513 O.3       1 ATP        -0.5835
     21 C1'        -0.7897   -1.9176   -0.7583 C.3       1 ATP         0.3776
     22 N9         -2.1040   -1.3333   -0.7704 N.pl3     1 ATP        -0.4429
     23 C8         -3.0590   -1.5123    0.1363 C.ar      1 ATP         0.2964
     24 N7         -4.1655   -0.8354   -0.1554 N.pl3     1 ATP        -0.4957
     25 C5         -3.8852   -0.1874   -1.3253 C.ar      1 ATP        -0.1346
     26 C6         -4.7113    0.7160   -2.1458 C.ar      1 ATP         0.7213
     27 N6         -5.9213    1.0209   -1.8021 N.2       1 ATP        -0.8215
     28 N1         -4.0411    1.1673   -3.2764 N.pl3     1 ATP        -0.8455
     29 C2         -2.7403    0.7865   -3.5638 C.ar      1 ATP         0.6477
     30 N3         -1.9921   -0.0108   -2.8519 N.2       1 ATP        -0.5707
     31 C4         -2.6302   -0.4747   -1.7239 C.ar      1 ATP         0.2637
     32 HOG3       -3.9306   -8.8501    6.7759 H         1 ATP         0.4378
     33 H5'1       -1.7618   -3.4448    2.4164 H         1 ATP         0.0340
     34 H5'2       -0.1874   -3.8744    3.1341 H         1 ATP         0.0340
     35 H4'         0.8874   -3.6466    0.8805 H         1 ATP         0.0910
     36 H3'        -0.7376   -1.2333    1.9867 H         1 ATP         0.0656
     37 HO3'        1.1626   -1.9325    3.0084 H         1 ATP         0.4386
     38 H2'        -0.0384   -0.0310    0.0096 H         1 ATP         0.0788
     39 HO2'        2.1463   -0.7958    0.0370 H         1 ATP         0.4363
     40 H1'        -0.4769   -2.1002   -1.8093 H         1 ATP         0.1225
     41 H8         -2.9569   -2.1323    1.0098 H         1 ATP         0.3824
     42 HN62       -6.3169    1.6552   -2.5012 H         1 ATP         0.4018
     43 H2         -2.3612    1.2343   -4.4957 H         1 ATP         0.0652
     44 H44        -4.5223    1.7976   -3.9117 H         1 ATP         0.4503
     45 H45        -5.0218   -0.8132    0.3804 H         1 ATP         0.5209
@<TRIPOS>BOND
     1    1    2 2
     2    1    3 1
     3    1    4 1
     4    1    8 1
     5    4   32 1
     6    5    6 2
     7    5    7 1
     8    5    8 1
     9    5   12 1
    10    9   10 2
    11    9   11 1
    12    9   12 1
    13    9   13 1
    14   13   14 1
    15   14   15 1
    16   14   33 1
    17   14   34 1
    18   15   16 1
    19   15   17 1
    20   15   35 1
    21   16   21 1
    22   17   18 1
    23   17   19 1
    24   17   36 1
    25   18   37 1
    26   19   20 1
    27   19   21 1
    28   19   38 1
    29   20   39 1
    30   21   22 1
    31   21   40 1
    32   22   23 ar
    33   22   31 ar
    34   23   24 ar
    35   23   41 1
    36   24   25 ar
    37   24   45 1
    38   25   26 ar
    39   25   31 ar
    40   26   27 2
    41   26   28 ar
    42   27   42 1
    43   28   29 ar
    44   28   44 1
    45   29   30 ar
    46   29   43 1
    47   30   31 ar
@<TRIPOS>SUBSTRUCTURE
     1 ATP         1 GROUP 0 A     ****
@<TRIPOS>MOLECULE
[[[3,4-dihydroxy-5-(6-imino-7,8-dihydro-1~{H}-purin-8-ylium-9-yl)tetrahydrofuran-2-yl]methoxy-oxido-phosphoryl]oxy-oxido-phosphoryl] hydrogen phosphate
   45    47     1     0     0
SMALL
USER_CHARGES

@<TRIPOS>ATOM
      1 PG         -1.8919    2.5015   -5.7537 P.3       1 ATP         1.5631
      2 O1G        -1.6243    2.7142   -7.2270 O.co2     1 ATP        -0.8806
      3 O2G        -2.5304    3.5862   -4.9151 O.co2     1 ATP        -0.8806
      4 O3G        -2.7609    1.1305   -5.5771 O.3       1 ATP        -0.8165
      5 PB          0.8834    2.8247   -4.7858 P.3       1 ATP         1.6877
      6 O1B         1.5354    3.0792   -6.1265 O.co2     1 ATP        -0.8727
      7 O2B         0.6264    3.9538   -3.8128 O.co2     1 ATP        -0.8727
      8 O3B        -0.5132    2.0147   -5.0283 O.3       1 ATP        -0.8330
      9 PA          3.2344    1.6562   -3.4210 P.3       1 ATP         1.6036
     10 O1A         3.3058    2.6484   -2.2804 O.co2     1 ATP        -0.9062
     11 O2A         4.1989    1.7434   -4.5836 O.co2     1 ATP        -0.9062
     12 O3A         1.7125    1.6481   -4.0156 O.3       1 ATP        -0.8166
     13 O5'         3.2903    0.1346   -2.8241 O.3       1 ATP        -0.5510
     14 C5'         2.2816   -0.2918   -1.9206 C.3       1 ATP         0.2099
     15 C4'         2.7248    0.0226   -0.4980 C.3       1 ATP         0.0598
     16 O4'         2.4697    1.4219   -0.2462 O.3       1 ATP        -0.3455
     17 C3'         1.9404   -0.7419    0.5596 C.3       1 ATP         0.0742
     18 O3'         2.7418   -0.8086    1.7389 O.3       1 ATP        -0.6025
     19 C2'         0.7477    0.1630    0.7858 C.3       1 ATP         0.1145
     20 O2'         0.1373   -0.0577    2.0407 O.3       1 ATP        -0.5835
     21 C1'         1.3733    1.5427    0.6747 C.3       1 ATP         0.3776
     22 N9          0.4520    2.5240    0.1767 N.pl3     1 ATP        -0.4429
     23 C8         -0.2004    2.4829   -0.9804 C.ar      1 ATP         0.2964
     24 N7         -0.9830    3.5431   -1.1568 N.pl3     1 ATP        -0.4957
     25 C5         -0.8095    4.3012   -0.0331 C.ar      1 ATP        -0.1346
     26 C6         -1.4065    5.5904    0.3585 C.ar      1 ATP         0.7213
     27 N6         -2.2501    6.2030   -0.4084 N.2       1 ATP        -0.8215
     28 N1         -0.9585    6.0272    1.5994 N.pl3     1 ATP        -0.8455
     29 C2         -0.0508    5.3009    2.3532 C.ar      1 ATP         0.6477
     30 N3          0.4890    4.1592    2.0257 N.2       1 ATP        -0.5707
     31 C4          0.0637    3.7006    0.7995 C.ar      1 ATP         0.2637
     32 HOG3       -3.0165    0.8531   -4.6715 H         1 ATP         0.4378
     33 H5'1        1.3514    0.2330   -2.1577 H         1 ATP         0.0340
     34 H5'2        2.1280   -1.3678   -2.0460 H         1 ATP         0.0340
     35 H4'         3.8044   -0.1397   -0.4040 H         1 ATP         0.0910
     36 H3'         1.6764   -1.7639    0.2728 H         1 ATP         0.0656
     37 HO3'        2.2232   -1.2979    2.3953 H         1 ATP         0.4386
     38 H2'        -0.0011    0.0027    0.0003 H         1 ATP         0.0788
     39 HO2'       -0.6141    0.5574    2.1082 H         1 ATP         0.4363
     40 H1'         1.7826    1.9024    1.6451 H         1 ATP         0.1225
     41 H8         -0.1116    1.6863   -1.6984 H         1 ATP         0.3824
     42 HN62       -2.5420    7.0730    0.0447 H         1 ATP         0.4018
     43 H2          0.1969    5.7893    3.3086 H         1 ATP         0.0652
     44 H44        -1.3097    6.9080    1.9642 H         1 ATP         0.4503
     45 H45        -1.5735    3.7351   -1.9538 H         1 ATP         0.5209
@<TRIPOS>BOND
     1    1    2 2
     2    1    3 1
     3    1    4 1
     4    1    8 1
     5    4   32 1
     6    5    6 2
     7    5    7 1
     8    5    8 1
     9    5   12 1
    10    9   10 2
    11    9   11 1
    12    9   12 1
    13    9   13 1
    14   13   14 1
    15   14   15 1
    16   14   33 1
    17   14   34 1
    18   15   16 1
    19   15   17 1
    20   15   35 1
    21   16   21 1
    22   17   18 1
    23   17   19 1
    24   17   36 1
    25   18   37 1
    26   19   20 1
    27   19   21 1
    28   19   38 1
    29   20   39 1
    30   21   22 1
    31   21   40 1
    32   22   23 ar
    33   22   31 ar
    34   23   24 ar
    35   23   41 1
    36   24   25 ar
    37   24   45 1
    38   25   26 ar
    39   25   31 ar
    40   26   27 2
    41   26   28 ar
    42   27   42 1
    43   28   29 ar
    44   28   44 1
    45   29   30 ar
    46   29   43 1
    47   30   31 ar
@<TRIPOS>SUBSTRUCTURE
     1 ATP         1 GROUP 0 A     ****
@<TRIPOS>MOLECULE
[[[3,4-dihydroxy-5-(6-imino-7,8-dihydro-1~{H}-purin-8-ylium-9-yl)tetrahydrofuran-2-yl]methoxy-oxido-phosphoryl]oxy-oxido-phosphoryl] hydrogen phosphate
   45    47     1     0     0
SMALL
USER_CHARGES

@<TRIPOS>ATOM
      1 PG         -1.2522   -1.1256    8.7743 P.3       1 ATP         1.5631
      2 O1G        -1.6235    0.3403    8.7473 O.co2     1 ATP        -0.8806
      3 O2G        -0.0548   -1.6098    9.5614 O.co2     1 ATP        -0.8806
      4 O3G        -2.5606   -1.9836    9.2409 O.3       1 ATP        -0.8165
      5 PB         -2.2053   -1.5829    6.0128 P.3       1 ATP         1.6877
      6 O1B        -3.4047   -2.4390    6.3535 O.co2     1 ATP        -0.8727
      7 O2B        -2.3658   -0.1331    5.6132 O.co2     1 ATP        -0.8727
      8 O3B        -1.1332   -1.6717    7.2409 O.3       1 ATP        -0.8330
      9 PA         -0.7215   -3.8652    4.8532 P.3       1 ATP         1.6036
     10 O1A        -1.8735   -4.8461    4.8225 O.co2     1 ATP        -0.9062
     11 O2A         0.3496   -3.9631    5.9175 O.co2     1 ATP        -0.9062
     12 O3A        -1.3248   -2.3468    4.8700 O.3       1 ATP        -0.8166
     13 O5'         0.0118   -3.8395    3.3916 O.3       1 ATP        -0.5510
     14 C5'        -0.7840   -3.8935    2.2172 C.3       1 ATP         0.2099
     15 C4'        -0.0724   -3.1466    1.1027 C.3       1 ATP         0.0598
     16 O4'        -0.8674   -3.1929   -0.0945 O.3       1 ATP        -0.3455
     17 C3'         0.1338   -1.6715    1.4027 C.3       1 ATP         0.0742
     18 O3'         1.2893   -1.4445    2.1808 O.3       1 ATP        -0.6025
     19 C2'         0.2158   -1.0724    0.0128 C.3       1 ATP         0.1145
     20 O2'         1.5141   -1.2448   -0.5513 O.3       1 ATP        -0.5835
     21 C1'        -0.7897   -1.9176   -0.7583 C.3       1 ATP         0.3776
     22 N9         -2.1040   -1.3333   -0.7704 N.pl3     1 ATP        -0.4429
     23 C8         -3.0590   -1.5123    0.1363 C.ar      1 ATP         0.2964
     24 N7         -4.1655   -0.8354   -0.1554 N.pl3     1 ATP        -0.4957
     25 C5         -3.8852   -0.1874   -1.3253 C.ar      1 ATP        -0.1346
     26 C6         -4.7113    0.7160   -2.1458 C.ar      1 ATP         0.7213
     27 N6         -5.9213    1.0209   -1.8021 N.2       1 ATP        -0.8215
     28 N1         -4.0411    1.1673   -3.2764 N.pl3     1 ATP        -0.8455
     29 C2         -2.7403    0.7865   -3.5638 C.ar      1 ATP         0.6477
     30 N3         -1.9921   -0.0108   -2.8519 N.2       1 ATP        -0.5707
     31 C4         -2.6302   -0.4747   -1.7239 C.ar      1 ATP         0.2637
     32 HOG3       -3.3732   -1.9305    8.6938 H         1 ATP         0.4378
     33 H5'1       -0.9348   -4.9415    1.9415 H         1 ATP         0.0340
     34 H5'2       -1.7548   -3.4350    2.4278 H         1 ATP         0.0340
     35 H4'         0.8874   -3.6466    0.8805 H         1 ATP         0.0910
     36 H3'        -0.7376   -1.2333    1.9867 H         1 ATP         0.0656
     37 HO3'        1.3408   -0.4870    2.3219 H         1 ATP         0.4386
     38 H2'        -0.0384   -0.0310    0.0096 H         1 ATP         0.0788
     39 HO2'        2.1463   -0.7958    0.0370 H         1 ATP         0.4363
     40 H1'        -0.4769   -2.1002   -1.8093 H         1 ATP         0.1225
     41 H8         -2.9569   -2.1323    1.0098 H         1 ATP         0.3824
     42 HN62       -6.3169    1.6552   -2.5012 H         1 ATP         0.4018
     43 H2         -2.3612    1.2343   -4.4957 H         1 ATP         0.0652
     44 H44        -4.5223    1.7976   -3.9117 H         1 ATP         0.4503
     45 H45        -5.0218   -0.8132    0.3804 H         1 ATP         0.5209
@<TRIPOS>BOND
     1    1    2 2
     2    1    3 1
     3    1    4 1
     4    1    8 1
     5    4   32 1
     6    5    6 2
     7    5    7 1
     8    5    8 1
     9    5   12 1
    10    9   10 2
    11    9   11 1
    12    9   12 1
    13    9   13 1
    14   13   14 1
    15   14   15 1
    16   14   33 1
    17   14   34 1
    18   15   16 1
    19   15   17 1
    20   15   35 1
    21   16   21 1
    22   17   18 1
    23   17   19 1
    24   17   36 1
    25   18   37 1
    26   19   20 1
    27   19   21 1
    28   19   38 1
    29   20   39 1
    30   21   22 1
    31   21   40 1
    32   22   23 ar
    33   22   31 ar
    34   23   24 ar
    35   23   41 1
    36   24   25 ar
    37   24   45 1
    38   25   26 ar
    39   25   31 ar
    40   26   27 2
    41   26   28 ar
    42   27   42 1
    43   28   29 ar
    44   28   44 1
    45   29   30 ar
    46   29   43 1
    47   30   31 ar
@<TRIPOS>SUBSTRUCTURE
     1 ATP         1 GROUP 0 A     ****
@<TRIPOS>MOLECULE
[[[3,4-dihydroxy-5-(6-imino-7,8-dihydro-1~{H}-purin-8-ylium-9-yl)tetrahydrofuran-2-yl]methoxy-oxido-phosphoryl]oxy-oxido-phosphoryl] hydrogen phosphate
   45    47     1     0     0
SMALL
USER_CHARGES

@<TRIPOS>ATOM
      1 PG         -3.5277   -2.7610   -3.9791 P.3       1 ATP         1.5631
      2 O1G        -4.3622   -2.1845   -2.8572 O.co2     1 ATP        -0.8806
      3 O2G        -3.7236   -4.1885   -4.4390 O.co2     1 ATP        -0.8806
      4 O3G        -3.6512   -1.7768   -5.2760 O.3       1 ATP        -0.8165
      5 PB         -0.6289   -2.8068   -4.5607 P.3       1 ATP         1.6877
      6 O1B        -0.4885   -4.2988   -4.7648 O.co2     1 ATP        -0.8727
      7 O2B        -0.6446   -1.8535   -5.7348 O.co2     1 ATP        -0.8727
      8 O3B        -1.9483   -2.5262   -3.6410 O.3       1 ATP        -0.8330
      9 PA          2.1372   -2.2718   -3.6563 P.3       1 ATP         1.6036
     10 O1A         2.4977   -1.2667   -4.7287 O.co2     1 ATP        -0.9062
     11 O2A         2.6452   -3.6953   -3.7281 O.co2     1 ATP        -0.9062
     12 O3A         0.5112   -2.3140   -3.5013 O.3       1 ATP        -0.8166
     13 O5'         2.5245   -1.6648   -2.1878 O.3       1 ATP        -0.5510
     14 C5'         2.2816   -0.2918   -1.9206 C.3       1 ATP         0.2099
     15 C4'         2.7248    0.0226   -0.4980 C.3       1 ATP         0.0598
     16 O4'         2.4697    1.4219   -0.2462 O.3       1 ATP        -0.3455
     17 C3'         1.9404   -0.7419    0.5596 C.3       1 ATP         0.0742
     18 O3'         2.7418   -0.8086    1.7389 O.3       1 ATP        -0.6025
     19 C2'         0.7477    0.1630    0.7858 C.3       1 ATP         0.1145
     20 O2'         0.1373   -0.0577    2.0407 O.3       1 ATP        -0.5835
     21 C1'         1.3733    1.5427    0.6747 C.3       1 ATP         0.3776
     22 N9          0.4520    2.5240    0.1767 N.pl3     1 ATP        -0.4429
     23 C8         -0.3347    3.3121    0.9021 C.ar      1 ATP         0.2964
     24 N7         -1.0768    4.1172    0.1479 N.pl3     1 ATP        -0.4957
     25 C5         -0.7318    3.8130   -1.1389 C.ar      1 ATP        -0.1346
     26 C6         -1.2094    4.3661   -2.4187 C.ar      1 ATP         0.7213
     27 N6         -2.1040    5.3007   -2.4569 N.2       1 ATP        -0.8215
     28 N1         -0.5949    3.7732   -3.5151 N.pl3     1 ATP        -0.8455
     29 C2          0.3569    2.7758   -3.3770 C.ar      1 ATP         0.6477
     30 N3          0.7934    2.2726   -2.2552 N.2       1 ATP        -0.5707
     31 C4          0.2019    2.8412   -1.1500 C.ar      1 ATP         0.2637
     32 HOG3       -3.1627   -2.0165   -6.0922 H         1 ATP         0.4378
     33 H5'1        2.8432    0.3119   -2.6398 H         1 ATP         0.0340
     34 H5'2        1.2128   -0.0927   -2.0428 H         1 ATP         0.0340
     35 H4'         3.8044   -0.1397   -0.4040 H         1 ATP         0.0910
     36 H3'         1.6764   -1.7639    0.2728 H         1 ATP         0.0656
     37 HO3'        2.2232   -1.2979    2.3953 H         1 ATP         0.4386
     38 H2'        -0.0011    0.0027    0.0003 H         1 ATP         0.0788
     39 HO2'       -0.6141    0.5574    2.1082 H         1 ATP         0.4363
     40 H1'         1.7826    1.9024    1.6451 H         1 ATP         0.1225
     41 H8         -0.3729    3.3063    1.9775 H         1 ATP         0.3824
     42 HN62       -2.2940    5.5408   -3.4335 H         1 ATP         0.4018
     43 H2          0.7413    2.4168   -4.3445 H         1 ATP         0.0652
     44 H44        -0.8531    4.0829   -4.4476 H         1 ATP         0.4503
     45 H45        -1.7471    4.8016    0.4689 H         1 ATP         0.5209
@<TRIPOS>BOND
     1    1    2 2
     2    1    3 1
     3    1    4 1
     4    1    8 1
     5    4   32 1
     6    5    6 2
     7    5    7 1
     8    5    8 1
     9    5   12 1
    10    9   10 2
    11    9   11 1
    12    9   12 1
    13    9   13 1
    14   13   14 1
    15   14   15 1
    16   14   33 1
    17   14   34 1
    18   15   16 1
    19   15   17 1
    20   15   35 1
    21   16   21 1
    22   17   18 1
    23   17   19 1
    24   17   36 1
    25   18   37 1
    26   19   20 1
    27   19   21 1
    28   19   38 1
    29   20   39 1
    30   21   22 1
    31   21   40 1
    32   22   23 ar
    33   22   31 ar
    34   23   24 ar
    35   23   41 1
    36   24   25 ar
    37   24   45 1
    38   25   26 ar
    39   25   31 ar
    40   26   27 2
    41   26   28 ar
    42   27   42 1
    43   28   29 ar
    44   28   44 1
    45   29   30 ar
    46   29   43 1
    47   30   31 ar
@<TRIPOS>SUBSTRUCTURE
     1 ATP         1 GROUP 0 A     ****
@<TRIPOS>MOLECULE
[[[3,4-dihydroxy-5-(6-imino-7,8-dihydro-1~{H}-purin-8-ylium-9-yl)tetrahydrofuran-2-yl]methoxy-oxido-phosphoryl]oxy-oxido-phosphoryl] hydrogen phosphate
   45    47     1     0     0
SMALL
USER_CHARGES

@<TRIPOS>ATOM
      1 PG         -5.2626   -9.2415    3.7062 P.3       1 ATP         1.5631
      2 O1G        -4.7524  -10.4947    3.0304 O.co2     1 ATP        -0.8806
      3 O2G        -6.6613   -8.7304    3.4420 O.co2     1 ATP        -0.8806
      4 O3G        -5.0665   -9.4054    5.3188 O.3       1 ATP        -0.8165
      5 PB         -4.1678   -6.5186    4.0676 P.3       1 ATP         1.6877
      6 O1B        -5.3566   -5.7515    3.5330 O.co2     1 ATP        -0.8727
      7 O2B        -3.8962   -6.6069    5.5529 O.co2     1 ATP        -0.8727
      8 O3B        -4.1995   -8.0298    3.4505 O.3       1 ATP        -0.8330
      9 PA         -2.4917   -5.8416    1.7251 P.3       1 ATP         1.6036
     10 O1A        -3.4086   -4.7948    1.1303 O.co2     1 ATP        -0.9062
     11 O2A        -2.4158   -7.2311    1.1308 O.co2     1 ATP        -0.9062
     12 O3A        -2.8196   -5.9822    3.3196 O.3       1 ATP        -0.8166
     13 O5'        -0.9724   -5.2440    1.8220 O.3       1 ATP        -0.5510
     14 C5'        -0.7840   -3.8935    2.2172 C.3       1 ATP         0.2099
     15 C4'        -0.0724   -3.1466    1.1027 C.3       1 ATP         0.0598
     16 O4'        -0.8674   -3.1929   -0.0945 O.3       1 ATP        -0.3455
     17 C3'         0.1338   -1.6715    1.4027 C.3       1 ATP         0.0742
     18 O3'         1.2893   -1.4445    2.1808 O.3       1 ATP        -0.6025
     19 C2'         0.2158   -1.0724    0.0128 C.3       1 ATP         0.1145
     20 O2'         1.5141   -1.2448   -0.5513 O.3       1 ATP        -0.5835
     21 C1'        -0.7897   -1.9176   -0.7583 C.3       1 ATP         0.3776
     22 N9         -2.1040   -1.3333   -0.7704 N.pl3     1 ATP        -0.4429
     23 C8         -3.0590   -1.5123    0.1363 C.ar      1 ATP         0.2964
     24 N7         -4.1655   -0.8354   -0.1554 N.pl3     1 ATP        -0.4957
     25 C5         -3.8852   -0.1874   -1.3253 C.ar      1 ATP        -0.1346
     26 C6         -4.7113    0.7160   -2.1458 C.ar      1 ATP         0.7213
     27 N6         -5.9213    1.0209   -1.8021 N.2       1 ATP        -0.8215
     28 N1         -4.0411    1.1673   -3.2764 N.pl3     1 ATP        -0.8455
     29 C2         -2.7403    0.7865   -3.5638 C.ar      1 ATP         0.6477
     30 N3         -1.9921   -0.0108   -2.8519 N.2       1 ATP        -0.5707
     31 C4         -2.6302   -0.4747   -1.7239 C.ar      1 ATP         0.2637
     32 HOG3       -5.3521   -8.6694    5.9011 H         1 ATP         0.4378
     33 H5'1       -1.7618   -3.4448    2.4164 H         1 ATP         0.0340
     34 H5'2       -0.1874   -3.8744    3.1341 H         1 ATP         0.0340
     35 H4'         0.8874   -3.6466    0.8805 H         1 ATP         0.0910
     36 H3'        -0.7376   -1.2333    1.9867 H         1 ATP         0.0656
     37 HO3'        1.3408   -0.4870    2.3219 H         1 ATP         0.4386
     38 H2'        -0.0384   -0.0310    0.0096 H         1 ATP         0.0788
     39 HO2'        2.1463   -0.7958    0.0370 H         1 ATP         0.4363
     40 H1'        -0.4769   -2.1002   -1.8093 H         1 ATP         0.1225
     41 H8         -2.9569   -2.1323    1.0098 H         1 ATP         0.3824
     42 HN62       -6.3169    1.6552   -2.5012 H         1 ATP         0.4018
     43 H2         -2.3612    1.2343   -4.4957 H         1 ATP         0.0652
     44 H44        -4.5223    1.7976   -3.9117 H         1 ATP         0.4503
     45 H45        -5.0218   -0.8132    0.3804 H         1 ATP         0.5209
@<TRIPOS>BOND
     1    1    2 2
     2    1    3 1
     3    1    4 1
     4    1    8 1
     5    4   32 1
     6    5    6 2
     7    5    7 1
     8    5    8 1
     9    5   12 1
    10    9   10 2
    11    9   11 1
    12    9   12 1
    13    9   13 1
    14   13   14 1
    15   14   15 1
    16   14   33 1
    17   14   34 1
    18   15   16 1
    19   15   17 1
    20   15   35 1
    21   16   21 1
    22   17   18 1
    23   17   19 1
    24   17   36 1
    25   18   37 1
    26   19   20 1
    27   19   21 1
    28   19   38 1
    29   20   39 1
    30   21   22 1
    31   21   40 1
    32   22   23 ar
    33   22   31 ar
    34   23   24 ar
    35   23   41 1
    36   24   25 ar
    37   24   45 1
    38   25   26 ar
    39   25   31 ar
    40   26   27 2
    41   26   28 ar
    42   27   42 1
    43   28   29 ar
    44   28   44 1
    45   29   30 ar
    46   29   43 1
    47   30   31 ar
@<TRIPOS>SUBSTRUCTURE
     1 ATP         1 GROUP 0 A     ****
@<TRIPOS>MOLECULE
[[[3,4-dihydroxy-5-(6-imino-7,8-dihydro-1~{H}-purin-8-ylium-9-yl)tetrahydrofuran-2-yl]methoxy-oxido-phosphoryl]oxy-oxido-phosphoryl] hydrogen phosphate
   45    47     1     0     0
SMALL
USER_CHARGES

@<TRIPOS>ATOM
      1 PG         -6.8270   -5.2690    3.7348 P.3       1 ATP         1.5631
      2 O1G        -7.3762   -4.2041    2.8118 O.co2     1 ATP        -0.8806
      3 O2G        -7.0731   -5.2074    5.2259 O.co2     1 ATP        -0.8806
      4 O3G        -7.3128   -6.7292    3.1891 O.3       1 ATP        -0.8165
      5 PB         -4.1678   -6.5186    4.0676 P.3       1 ATP         1.6877
      6 O1B        -4.0218   -6.2869    5.5551 O.co2     1 ATP        -0.8727
      7 O2B        -4.5173   -7.8836    3.5181 O.co2     1 ATP        -0.8727
      8 O3B        -5.2245   -5.4272    3.4692 O.3       1 ATP        -0.8330
      9 PA         -2.4917   -5.8416    1.7251 P.3       1 ATP         1.6036
     10 O1A        -3.4086   -4.7948    1.1303 O.co2     1 ATP        -0.9062
     11 O2A        -2.4158   -7.2311    1.1308 O.co2     1 ATP        -0.9062
     12 O3A        -2.8196   -5.9822    3.3196 O.3       1 ATP        -0.8166
     13 O5'        -0.9724   -5.2440    1.8220 O.3       1 ATP        -0.5510
     14 C5'        -0.7840   -3.8935    2.2172 C.3       1 ATP         0.2099
     15 C4'        -0.0724   -3.1466    1.1027 C.3       1 ATP         0.0598
     16 O4'        -0.8674   -3.1929   -0.0945 O.3       1 ATP        -0.3455
     17 C3'         0.1338   -1.6715    1.4027 C.3       1 ATP         0.0742
     18 O3'         1.2893   -1.4445    2.1808 O.3       1 ATP        -0.6025
     19 C2'         0.2158   -1.0724    0.0128 C.3       1 ATP         0.1145
     20 O2'         1.5141   -1.2448   -0.5513 O.3       1 ATP        -0.5835
     21 C1'        -0.7897   -1.9176   -0.7583 C.3       1 ATP         0.3776
     22 N9         -2.1040   -1.3333   -0.7704 N.pl3     1 ATP        -0.4429
     23 C8         -3.0590   -1.5123    0.1363 C.ar      1 ATP         0.2964
     24 N7         -4.1655   -0.8354   -0.1554 N.pl3     1 ATP        -0.4957
     25 C5         -3.8852   -0.1874   -1.3253 C.ar      1 ATP        -0.1346
     26 C6         -4.7113    0.7160   -2.1458 C.ar      1 ATP         0.7213
     27 N6         -5.9213    1.0209   -1.8021 N.2       1 ATP        -0.8215
     28 N1         -4.0411    1.1673   -3.2764 N.pl3     1 ATP        -0.8455
     29 C2         -2.7403    0.7865   -3.5638 C.ar      1 ATP         0.6477
     30 N3         -1.9921   -0.0108   -2.8519 N.2       1 ATP        -0.5707
     31 C4         -2.6302   -0.4747   -1.7239 C.ar      1 ATP         0.2637
     32 HOG3       -7.0354   -7.5289    3.6849 H         1 ATP         0.4378
     33 H5'1       -1.7618   -3.4448    2.4164 H         1 ATP         0.0340
     34 H5'2       -0.1874   -3.8744    3.1341 H         1 ATP         0.0340
     35 H4'         0.8874   -3.6466    0.8805 H         1 ATP         0.0910
     36 H3'        -0.7376   -1.2333    1.9867 H         1 ATP         0.0656
     37 HO3'        1.3408   -0.4870    2.3219 H         1 ATP         0.4386
     38 H2'        -0.0384   -0.0310    0.0096 H         1 ATP         0.0788
     39 HO2'        1.4998   -0.8412   -1.4369 H         1 ATP         0.4363
     40 H1'        -0.4769   -2.1002   -1.8093 H         1 ATP         0.1225
     41 H8         -2.9569   -2.1323    1.0098 H         1 ATP         0.3824
     42 HN62       -6.3169    1.6552   -2.5012 H         1 ATP         0.4018
     43 H2         -2.3612    1.2343   -4.4957 H         1 ATP         0.0652
     44 H44        -4.5223    1.7976   -3.9117 H         1 ATP         0.4503
     45 H45        -5.0218   -0.8132    0.3804 H         1 ATP         0.5209
@<TRIPOS>BOND
     1    1    2 2
     2    1    3 1
     3    1    4 1
     4    1    8 1
     5    4   32 1
     6    5    6 2
     7    5    7 1
     8    5    8 1
     9    5   12 1
    10    9   10 2
    11    9   11 1
    12    9   12 1
    13    9   13 1
    14   13   14 1
    15   14   15 1
    16   14   33 1
    17   14   34 1
    18   15   16 1
    19   15   17 1
    20   15   35 1
    21   16   21 1
    22   17   18 1
    23   17   19 1
    24   17   36 1
    25   18   37 1
    26   19   20 1
    27   19   21 1
    28   19   38 1
    29   20   39 1
    30   21   22 1
    31   21   40 1
    32   22   23 ar
    33   22   31 ar
    34   23   24 ar
    35   23   41 1
    36   24   25 ar
    37   24   45 1
    38   25   26 ar
    39   25   31 ar
    40   26   27 2
    41   26   28 ar
    42   27   42 1
    43   28   29 ar
    44   28   44 1
    45   29   30 ar
    46   29   43 1
    47   30   31 ar
@<TRIPOS>SUBSTRUCTURE
     1 ATP         1 GROUP 0 A     ****
@<TRIPOS>MOLECULE
[[[3,4-dihydroxy-5-(6-imino-7,8-dihydro-1~{H}-purin-8-ylium-9-yl)tetrahydrofuran-2-yl]methoxy-oxido-phosphoryl]oxy-oxido-phosphoryl] hydrogen phosphate
   45    47     1     0     0
SMALL
USER_CHARGES

@<TRIPOS>ATOM
      1 PG          4.4018    0.9641   -7.8063 P.3       1 ATP         1.5631
      2 O1G         5.2965    2.0833   -7.3221 O.co2     1 ATP        -0.8806
      3 O2G         3.2743    1.2351   -8.7773 O.co2     1 ATP        -0.8806
      4 O3G         5.3411   -0.2220   -8.4204 O.3       1 ATP        -0.8165
      5 PB          2.9208   -1.2067   -6.4505 P.3       1 ATP         1.6877
      6 O1B         1.5638   -0.9357   -7.0610 O.co2     1 ATP        -0.8727
      7 O2B         3.7768   -2.3600   -6.9244 O.co2     1 ATP        -0.8727
      8 O3B         3.8065    0.1634   -6.5147 O.3       1 ATP        -0.8330
      9 PA          3.8940   -1.4358   -3.6657 P.3       1 ATP         1.6036
     10 O1A         4.7102   -0.1616   -3.6432 O.co2     1 ATP        -0.9062
     11 O2A         4.5677   -2.7836   -3.8041 O.co2     1 ATP        -0.9062
     12 O3A         2.7545   -1.3091   -4.8299 O.3       1 ATP        -0.8166
     13 O5'         2.9216   -1.4836   -2.3516 O.3       1 ATP        -0.5510
     14 C5'         2.2816   -0.2918   -1.9206 C.3       1 ATP         0.2099
     15 C4'         2.7248    0.0226   -0.4980 C.3       1 ATP         0.0598
     16 O4'         2.4697    1.4219   -0.2462 O.3       1 ATP        -0.3455
     17 C3'         1.9404   -0.7419    0.5596 C.3       1 ATP         0.0742
     18 O3'         2.7418   -0.8086    1.7389 O.3       1 ATP        -0.6025
     19 C2'         0.7477    0.1630    0.7858 C.3       1 ATP         0.1145
     20 O2'         0.1373   -0.0577    2.0407 O.3       1 ATP        -0.5835
     21 C1'         1.3733    1.5427    0.6747 C.3       1 ATP         0.3776
     22 N9          0.4520    2.5240    0.1767 N.pl3     1 ATP        -0.4429
     23 C8         -0.2004    2.4829   -0.9804 C.ar      1 ATP         0.2964
     24 N7         -0.9830    3.5431   -1.1568 N.pl3     1 ATP        -0.4957
     25 C5         -0.8095    4.3012   -0.0331 C.ar      1 ATP        -0.1346
     26 C6         -1.4065    5.5904    0.3585 C.ar      1 ATP         0.7213
     27 N6         -2.2501    6.2030   -0.4084 N.2       1 ATP        -0.8215
     28 N1         -0.9585    6.0272    1.5994 N.pl3     1 ATP        -0.8455
     29 C2         -0.0508    5.3009    2.3532 C.ar      1 ATP         0.6477
     30 N3          0.4890    4.1592    2.0257 N.2       1 ATP        -0.5707
     31 C4          0.0637    3.7006    0.7995 C.ar      1 ATP         0.2637
     32 HOG3        4.9051   -1.0245   -8.7785 H         1 ATP         0.4378
     33 H5'1        2.5589    0.5217   -2.5976 H         1 ATP         0.0340
     34 H5'2        1.1982   -0.4388   -1.9617 H         1 ATP         0.0340
     35 H4'         3.8044   -0.1397   -0.4040 H         1 ATP         0.0910
     36 H3'         1.6764   -1.7639    0.2728 H         1 ATP         0.0656
     37 HO3'        2.2232   -1.2979    2.3953 H         1 ATP         0.4386
     38 H2'        -0.0011    0.0027    0.0003 H         1 ATP         0.0788
     39 HO2'       -0.6141    0.5574    2.1082 H         1 ATP         0.4363
     40 H1'         1.7826    1.9024    1.6451 H         1 ATP         0.1225
     41 H8         -0.1116    1.6863   -1.6984 H         1 ATP         0.3824
     42 HN62       -2.5420    7.0730    0.0447 H         1 ATP         0.4018
     43 H2          0.1969    5.7893    3.3086 H         1 ATP         0.0652
     44 H44        -1.3097    6.9080    1.9642 H         1 ATP         0.4503
     45 H45        -1.5735    3.7351   -1.9538 H         1 ATP         0.5209
@<TRIPOS>BOND
     1    1    2 2
     2    1    3 1
     3    1    4 1
     4    1    8 1
     5    4   32 1
     6    5    6 2
     7    5    7 1
     8    5    8 1
     9    5   12 1
    10    9   10 2
    11    9   11 1
    12    9   12 1
    13    9   13 1
    14   13   14 1
    15   14   15 1
    16   14   33 1
    17   14   34 1
    18   15   16 1
    19   15   17 1
    20   15   35 1
    21   16   21 1
    22   17   18 1
    23   17   19 1
    24   17   36 1
    25   18   37 1
    26   19   20 1
    27   19   21 1
    28   19   38 1
    29   20   39 1
    30   21   22 1
    31   21   40 1
    32   22   23 ar
    33   22   31 ar
    34   23   24 ar
    35   23   41 1
    36   24   25 ar
    37   24   45 1
    38   25   26 ar
    39   25   31 ar
    40   26   27 2
    41   26   28 ar
    42   27   42 1
    43   28   29 ar
    44   28   44 1
    45   29   30 ar
    46   29   43 1
    47   30   31 ar
@<TRIPOS>SUBSTRUCTURE
     1 ATP         1 GROUP 0 A     ****
@<TRIPOS>MOLECULE
[[[3,4-dihydroxy-5-(6-imino-7,8-dihydro-1~{H}-purin-8-ylium-9-yl)tetrahydrofuran-2-yl]methoxy-oxido-phosphoryl]oxy-oxido-phosphoryl] hydrogen phosphate
   45    47     1     0     0
SMALL
USER_CHARGES

@<TRIPOS>ATOM
      1 PG          5.8055   -4.1736   -6.7570 P.3       1 ATP         1.5631
      2 O1G         5.4455   -3.7812   -8.1726 O.co2     1 ATP        -0.8806
      3 O2G         5.7491   -5.6183   -6.3127 O.co2     1 ATP        -0.8806
      4 O3G         7.2897   -3.5842   -6.4169 O.3       1 ATP        -0.8165
      5 PB          4.7775   -1.6435   -5.6233 P.3       1 ATP         1.6877
      6 O1B         6.1081   -1.0494   -5.2186 O.co2     1 ATP        -0.8727
      7 O2B         4.0434   -1.1563   -6.8526 O.co2     1 ATP        -0.8727
      8 O3B         4.9353   -3.2659   -5.7165 O.3       1 ATP        -0.8330
      9 PA          3.9668   -2.1116   -2.8163 P.3       1 ATP         1.6036
     10 O1A         5.0719   -1.3107   -2.1623 O.co2     1 ATP        -0.9062
     11 O2A         4.0210   -3.6235   -2.8465 O.co2     1 ATP        -0.9062
     12 O3A         3.7633   -1.5743   -4.3459 O.3       1 ATP        -0.8166
     13 O5'         2.5245   -1.6648   -2.1878 O.3       1 ATP        -0.5510
     14 C5'         2.2816   -0.2918   -1.9206 C.3       1 ATP         0.2099
     15 C4'         2.7248    0.0226   -0.4980 C.3       1 ATP         0.0598
     16 O4'         2.4697    1.4219   -0.2462 O.3       1 ATP        -0.3455
     17 C3'         1.9404   -0.7419    0.5596 C.3       1 ATP         0.0742
     18 O3'         2.7418   -0.8086    1.7389 O.3       1 ATP        -0.6025
     19 C2'         0.7477    0.1630    0.7858 C.3       1 ATP         0.1145
     20 O2'         0.1373   -0.0577    2.0407 O.3       1 ATP        -0.5835
     21 C1'         1.3733    1.5427    0.6747 C.3       1 ATP         0.3776
     22 N9          0.4520    2.5240    0.1767 N.pl3     1 ATP        -0.4429
     23 C8          0.2216    2.8192   -1.0985 C.ar      1 ATP         0.2964
     24 N7         -0.6906    3.7763   -1.2384 N.pl3     1 ATP        -0.4957
     25 C5         -1.0575    4.1037    0.0366 C.ar      1 ATP        -0.1346
     26 C6         -2.0291    5.0943    0.5330 C.ar      1 ATP         0.7213
     27 N6         -2.7093    5.8371   -0.2800 N.2       1 ATP        -0.8215
     28 N1         -2.1051    5.1136    1.9204 N.pl3     1 ATP        -0.8455
     29 C2         -1.3354    4.2774    2.7129 C.ar      1 ATP         0.6477
     30 N3         -0.4707    3.3945    2.2944 N.2       1 ATP        -0.5707
     31 C4         -0.3734    3.3525    0.9220 C.ar      1 ATP         0.2637
     32 HOG3        7.4284   -2.6141   -6.4618 H         1 ATP         0.4378
     33 H5'1        2.8432    0.3119   -2.6398 H         1 ATP         0.0340
     34 H5'2        1.2128   -0.0927   -2.0428 H         1 ATP         0.0340
     35 H4'         3.8044   -0.1397   -0.4040 H         1 ATP         0.0910
     36 H3'         1.6764   -1.7639    0.2728 H         1 ATP         0.0656
     37 HO3'        3.5554   -1.2733    1.4914 H         1 ATP         0.4386
     38 H2'        -0.0011    0.0027    0.0003 H         1 ATP         0.0788
     39 HO2'       -0.6141    0.5574    2.1082 H         1 ATP         0.4363
     40 H1'         1.7826    1.9024    1.6451 H         1 ATP         0.1225
     41 H8          0.7125    2.3429   -1.9292 H         1 ATP         0.3824
     42 HN62       -3.3217    6.4517    0.2629 H         1 ATP         0.4018
     43 H2         -1.5188    4.4223    3.7890 H         1 ATP         0.0652
     44 H44        -2.7470    5.7626    2.3665 H         1 ATP         0.4503
     45 H45        -1.0305    4.1680   -2.1054 H         1 ATP         0.5209
@<TRIPOS>BOND
     1    1    2 2
     2    1    3 1
     3    1    4 1
     4    1    8 1
     5    4   32 1
     6    5    6 2
     7    5    7 1
     8    5    8 1
     9    5   12 1
    10    9   10 2
    11    9   11 1
    12    9   12 1
    13    9   13 1
    14   13   14 1
    15   14   15 1
    16   14   33 1
    17   14   34 1
    18   15   16 1
    19   15   17 1
    20   15   35 1
    21   16   21 1
    22   17   18 1
    23   17   19 1
    24   17   36 1
    25   18   37 1
    26   19   20 1
    27   19   21 1
    28   19   38 1
    29   20   39 1
    30   21   22 1
    31   21   40 1
    32   22   23 ar
    33   22   31 ar
    34   23   24 ar
    35   23   41 1
    36   24   25 ar
    37   24   45 1
    38   25   26 ar
    39   25   31 ar
    40   26   27 2
    41   26   28 ar
    42   27   42 1
    43   28   29 ar
    44   28   44 1
    45   29   30 ar
    46   29   43 1
    47   30   31 ar
@<TRIPOS>SUBSTRUCTURE
     1 ATP         1 GROUP 0 A     ****
@<TRIPOS>MOLECULE
[[[3,4-dihydroxy-5-(6-imino-7,8-dihydro-1~{H}-purin-8-ylium-9-yl)tetrahydrofuran-2-yl]methoxy-oxido-phosphoryl]oxy-oxido-phosphoryl] hydrogen phosphate
   45    47     1     0     0
SMALL
USER_CHARGES

@<TRIPOS>ATOM
      1 PG         -4.0630   -8.0771    5.7469 P.3       1 ATP         1.5631
      2 O1G        -4.0002   -9.4214    5.0567 O.co2     1 ATP        -0.8806
      3 O2G        -5.2867   -7.6639    6.5340 O.co2     1 ATP        -0.8806
      4 O3G        -2.7524   -7.9263    6.7090 O.3       1 ATP        -0.8165
      5 PB         -4.5438   -6.4122    3.3509 P.3       1 ATP         1.6877
      6 O1B        -4.5443   -7.5268    2.3286 O.co2     1 ATP        -0.8727
      7 O2B        -5.8337   -5.7689    3.8091 O.co2     1 ATP        -0.8727
      8 O3B        -3.7104   -6.9073    4.6647 O.3       1 ATP        -0.8330
      9 PA         -3.0195   -3.8900    3.6158 P.3       1 ATP         1.6036
     10 O1A        -2.1890   -4.2938    4.8148 O.co2     1 ATP        -0.9062
     11 O2A        -4.2037   -2.9613    3.7725 O.co2     1 ATP        -0.9062
     12 O3A        -3.5243   -5.2409    2.8476 O.3       1 ATP        -0.8166
     13 O5'        -2.0415   -3.2792    2.4560 O.3       1 ATP        -0.5510
     14 C5'        -0.7840   -3.8935    2.2172 C.3       1 ATP         0.2099
     15 C4'        -0.0724   -3.1466    1.1027 C.3       1 ATP         0.0598
     16 O4'        -0.8674   -3.1929   -0.0945 O.3       1 ATP        -0.3455
     17 C3'         0.1338   -1.6715    1.4027 C.3       1 ATP         0.0742
     18 O3'         1.2893   -1.4445    2.1808 O.3       1 ATP        -0.6025
     19 C2'         0.2158   -1.0724    0.0128 C.3       1 ATP         0.1145
     20 O2'         1.5141   -1.2448   -0.5513 O.3       1 ATP        -0.5835
     21 C1'        -0.7897   -1.9176   -0.7583 C.3       1 ATP         0.3776
     22 N9         -2.1040   -1.3333   -0.7704 N.pl3     1 ATP        -0.4429
     23 C8         -3.2114   -1.8635   -0.2619 C.ar      1 ATP         0.2964
     24 N7         -4.2711   -1.0786   -0.4314 N.pl3     1 ATP        -0.4957
     25 C5         -3.7955    0.0193   -1.0917 C.ar      1 ATP        -0.1346
     26 C6         -4.4862    1.2344   -1.5586 C.ar      1 ATP         0.7213
     27 N6         -5.7554    1.4030   -1.3689 N.2       1 ATP        -0.8215
     28 N1         -3.6267    2.1218   -2.1949 N.pl3     1 ATP        -0.8455
     29 C2         -2.2761    1.8558   -2.3521 C.ar      1 ATP         0.6477
     30 N3         -1.6453    0.7881   -1.9466 N.2       1 ATP        -0.5707
     31 C4         -2.4722   -0.1108   -1.3117 C.ar      1 ATP         0.2637
     32 HOG3       -2.6475   -7.1011    7.2290 H         1 ATP         0.4378
     33 H5'1       -0.1949   -3.8603    3.1385 H         1 ATP         0.0340
     34 H5'2       -0.9496   -4.9375    1.9351 H         1 ATP         0.0340
     35 H4'         0.8874   -3.6466    0.8805 H         1 ATP         0.0910
     36 H3'        -0.7376   -1.2333    1.9867 H         1 ATP         0.0656
     37 HO3'        1.3408   -0.4870    2.3219 H         1 ATP         0.4386
     38 H2'        -0.0384   -0.0310    0.0096 H         1 ATP         0.0788
     39 HO2'        2.1463   -0.7958    0.0370 H         1 ATP         0.4363
     40 H1'        -0.4769   -2.1002   -1.8093 H         1 ATP         0.1225
     41 H8         -3.2547   -2.8183    0.2325 H         1 ATP         0.3824
     42 HN62       -6.0352    2.3041   -1.7656 H         1 ATP         0.4018
     43 H2         -1.7412    2.6624   -2.8773 H         1 ATP         0.0652
     44 H44        -4.0029    2.9939   -2.5557 H         1 ATP         0.4503
     45 H45        -5.2179   -1.2649   -0.1322 H         1 ATP         0.5209
@<TRIPOS>BOND
     1    1    2 2
     2    1    3 1
     3    1    4 1
     4    1    8 1
     5    4   32 1
     6    5    6 2
     7    5    7 1
     8    5    8 1
     9    5   12 1
    10    9   10 2
    11    9   11 1
    12    9   12 1
    13    9   13 1
    14   13   14 1
    15   14   15 1
    16   14   33 1
    17   14   34 1
    18   15   16 1
    19   15   17 1
    20   15   35 1
    21   16   21 1
    22   17   18 1
    23   17   19 1
    24   17   36 1
    25   18   37 1
    26   19   20 1
    27   19   21 1
    28   19   38 1
    29   20   39 1
    30   21   22 1
    31   21   40 1
    32   22   23 ar
    33   22   31 ar
    34   23   24 ar
    35   23   41 1
    36   24   25 ar
    37   24   45 1
    38   25   26 ar
    39   25   31 ar
    40   26   27 2
    41   26   28 ar
    42   27   42 1
    43   28   29 ar
    44   28   44 1
    45   29   30 ar
    46   29   43 1
    47   30   31 ar
@<TRIPOS>SUBSTRUCTURE
     1 ATP         1 GROUP 0 A     ****
@<TRIPOS>MOLECULE
[[[3,4-dihydroxy-5-(6-imino-7,8-dihydro-1~{H}-purin-8-ylium-9-yl)tetrahydrofuran-2-yl]methoxy-oxido-phosphoryl]oxy-oxido-phosphoryl] hydrogen phosphate
   45    47     1     0     0
SMALL
USER_CHARGES

@<TRIPOS>ATOM
      1 PG         -7.3584   -5.9133    4.1076 P.3       1 ATP         1.5631
      2 O1G        -7.2695   -6.3645    5.5484 O.co2     1 ATP        -0.8806
      3 O2G        -8.0117   -6.7856    3.0588 O.co2     1 ATP        -0.8806
      4 O3G        -8.0616   -4.4402    4.0679 O.3       1 ATP        -0.8165
      5 PB         -4.5438   -6.4122    3.3509 P.3       1 ATP         1.6877
      6 O1B        -4.0648   -6.9298    4.6889 O.co2     1 ATP        -0.8727
      7 O2B        -4.8099   -7.3528    2.1968 O.co2     1 ATP        -0.8727
      8 O3B        -5.8694   -5.4897    3.5907 O.3       1 ATP        -0.8330
      9 PA         -3.0195   -3.8900    3.6158 P.3       1 ATP         1.6036
     10 O1A        -2.1890   -4.2938    4.8148 O.co2     1 ATP        -0.9062
     11 O2A        -4.2037   -2.9613    3.7725 O.co2     1 ATP        -0.9062
     12 O3A        -3.5243   -5.2409    2.8476 O.3       1 ATP        -0.8166
     13 O5'        -2.0415   -3.2792    2.4560 O.3       1 ATP        -0.5510
     14 C5'        -0.7840   -3.8935    2.2172 C.3       1 ATP         0.2099
     15 C4'        -0.0724   -3.1466    1.1027 C.3       1 ATP         0.0598
     16 O4'        -0.8674   -3.1929   -0.0945 O.3       1 ATP        -0.3455
     17 C3'         0.1338   -1.6715    1.4027 C.3       1 ATP         0.0742
     18 O3'         1.2893   -1.4445    2.1808 O.3       1 ATP        -0.6025
     19 C2'         0.2158   -1.0724    0.0128 C.3       1 ATP         0.1145
     20 O2'         1.5141   -1.2448   -0.5513 O.3       1 ATP        -0.5835
     21 C1'        -0.7897   -1.9176   -0.7583 C.3       1 ATP         0.3776
     22 N9         -2.1040   -1.3333   -0.7704 N.pl3     1 ATP        -0.4429
     23 C8         -3.2114   -1.8635   -0.2619 C.ar      1 ATP         0.2964
     24 N7         -4.2711   -1.0786   -0.4314 N.pl3     1 ATP        -0.4957
     25 C5         -3.7955    0.0193   -1.0917 C.ar      1 ATP        -0.1346
     26 C6         -4.4862    1.2344   -1.5586 C.ar      1 ATP         0.7213
     27 N6         -5.7554    1.4030   -1.3689 N.2       1 ATP        -0.8215
     28 N1         -3.6267    2.1218   -2.1949 N.pl3     1 ATP        -0.8455
     29 C2         -2.2761    1.8558   -2.3521 C.ar      1 ATP         0.6477
     30 N3         -1.6453    0.7881   -1.9466 N.2       1 ATP        -0.5707
     31 C4         -2.4722   -0.1108   -1.3117 C.ar      1 ATP         0.2637
     32 HOG3       -8.1917   -4.0082    3.1969 H         1 ATP         0.4378
     33 H5'1       -0.1949   -3.8603    3.1385 H         1 ATP         0.0340
     34 H5'2       -0.9496   -4.9375    1.9351 H         1 ATP         0.0340
     35 H4'         0.8874   -3.6466    0.8805 H         1 ATP         0.0910
     36 H3'        -0.7376   -1.2333    1.9867 H         1 ATP         0.0656
     37 HO3'        1.3408   -0.4870    2.3219 H         1 ATP         0.4386
     38 H2'        -0.0384   -0.0310    0.0096 H         1 ATP         0.0788
     39 HO2'        2.1463   -0.7958    0.0370 H         1 ATP         0.4363
     40 H1'        -0.4769   -2.1002   -1.8093 H         1 ATP         0.1225
     41 H8         -3.2547   -2.8183    0.2325 H         1 ATP         0.3824
     42 HN62       -6.0352    2.3041   -1.7656 H         1 ATP         0.4018
     43 H2         -1.7412    2.6624   -2.8773 H         1 ATP         0.0652
     44 H44        -4.0029    2.9939   -2.5557 H         1 ATP         0.4503
     45 H45        -5.2179   -1.2649   -0.1322 H         1 ATP         0.5209
@<TRIPOS>BOND
     1    1    2 2
     2    1    3 1
     3    1    4 1
     4    1    8 1
     5    4   32 1
     6    5    6 2
     7    5    7 1
     8    5    8 1
     9    5   12 1
    10    9   10 2
    11    9   11 1
    12    9   12 1
    13    9   13 1
    14   13   14 1
    15   14   15 1
    16   14   33 1
    17   14   34 1
    18   15   16 1
    19   15   17 1
    20   15   35 1
    21   16   21 1
    22   17   18 1
    23   17   19 1
    24   17   36 1
    25   18   37 1
    26   19   20 1
    27   19   21 1
    28   19   38 1
    29   20   39 1
    30   21   22 1
    31   21   40 1
    32   22   23 ar
    33   22   31 ar
    34   23   24 ar
    35   23   41 1
    36   24   25 ar
    37   24   45 1
    38   25   26 ar
    39   25   31 ar
    40   26   27 2
    41   26   28 ar
    42   27   42 1
    43   28   29 ar
    44   28   44 1
    45   29   30 ar
    46   29   43 1
    47   30   31 ar
@<TRIPOS>SUBSTRUCTURE
     1 ATP         1 GROUP 0 A     ****
@<TRIPOS>MOLECULE
[[[3,4-dihydroxy-5-(6-imino-7,8-dihydro-1~{H}-purin-8-ylium-9-yl)tetrahydrofuran-2-yl]methoxy-oxido-phosphoryl]oxy-oxido-phosphoryl] hydrogen phosphate
   45    47     1     0     0
SMALL
USER_CHARGES

@<TRIPOS>ATOM
      1 PG          2.7236    1.7487   -8.7410 P.3       1 ATP         1.5631
      2 O1G         2.0596    0.7607   -9.6740 O.co2     1 ATP        -0.8806
      3 O2G         4.1401    2.2186   -8.9867 O.co2     1 ATP        -0.8806
      4 O3G         1.7595    3.0590   -8.6017 O.3       1 ATP        -0.8165
      5 PB          1.2948    0.7130   -6.3683 P.3       1 ATP         1.6877
      6 O1B         0.4061    1.9132   -6.1293 O.co2     1 ATP        -0.8727
      7 O2B         0.7518   -0.5510   -6.9969 O.co2     1 ATP        -0.8727
      8 O3B         2.6083    1.1938   -7.2104 O.3       1 ATP        -0.8330
      9 PA          2.9232    1.2546   -3.9579 P.3       1 ATP         1.6036
     10 O1A         2.0227    2.3093   -3.3521 O.co2     1 ATP        -0.9062
     11 O2A         4.2011    1.6439   -4.6686 O.co2     1 ATP        -0.9062
     12 O3A         2.0371    0.3242   -4.9674 O.3       1 ATP        -0.8166
     13 O5'         3.2903    0.1346   -2.8241 O.3       1 ATP        -0.5510
     14 C5'         2.2816   -0.2918   -1.9206 C.3       1 ATP         0.2099
     15 C4'         2.7248    0.0226   -0.4980 C.3       1 ATP         0.0598
     16 O4'         2.4697    1.4219   -0.2462 O.3       1 ATP        -0.3455
     17 C3'         1.9404   -0.7419    0.5596 C.3       1 ATP         0.0742
     18 O3'         2.7418   -0.8086    1.7389 O.3       1 ATP        -0.6025
     19 C2'         0.7477    0.1630    0.7858 C.3       1 ATP         0.1145
     20 O2'         0.1373   -0.0577    2.0407 O.3       1 ATP        -0.5835
     21 C1'         1.3733    1.5427    0.6747 C.3       1 ATP         0.3776
     22 N9          0.4520    2.5240    0.1767 N.pl3     1 ATP        -0.4429
     23 C8         -0.2004    2.4829   -0.9804 C.ar      1 ATP         0.2964
     24 N7         -0.9830    3.5431   -1.1568 N.pl3     1 ATP        -0.4957
     25 C5         -0.8095    4.3012   -0.0331 C.ar      1 ATP        -0.1346
     26 C6         -1.4065    5.5904    0.3585 C.ar      1 ATP         0.7213
     27 N6         -2.2501    6.2030   -0.4084 N.2       1 ATP        -0.8215
     28 N1         -0.9585    6.0272    1.5994 N.pl3     1 ATP        -0.8455
     29 C2         -0.0508    5.3009    2.3532 C.ar      1 ATP         0.6477
     30 N3          0.4890    4.1592    2.0257 N.2       1 ATP        -0.5707
     31 C4          0.0637    3.7006    0.7995 C.ar      1 ATP         0.2637
     32 HOG3        0.8526    2.9360   -8.2486 H         1 ATP         0.4378
     33 H5'1        1.3514    0.2330   -2.1577 H         1 ATP         0.0340
     34 H5'2        2.1280   -1.3678   -2.0460 H         1 ATP         0.0340
     35 H4'         3.8044   -0.1397   -0.4040 H         1 ATP         0.0910
     36 H3'         1.6764   -1.7639    0.2728 H         1 ATP         0.0656
     37 HO3'        2.2232   -1.2979    2.3953 H         1 ATP         0.4386
     38 H2'        -0.0011    0.0027    0.0003 H         1 ATP         0.0788
     39 HO2'       -0.1563   -0.9855    2.0596 H         1 ATP         0.4363
     40 H1'         1.7826    1.9024    1.6451 H         1 ATP         0.1225
     41 H8         -0.1116    1.6863   -1.6984 H         1 ATP         0.3824
     42 HN62       -2.5420    7.0730    0.0447 H         1 ATP         0.4018
     43 H2          0.1969    5.7893    3.3086 H         1 ATP         0.0652
     44 H44        -1.3097    6.9080    1.9642 H         1 ATP         0.4503
     45 H45        -1.5735    3.7351   -1.9538 H         1 ATP         0.5209
@<TRIPOS>BOND
     1    1    2 2
     2    1    3 1
     3    1    4 1
     4    1    8 1
     5    4   32 1
     6    5    6 2
     7    5    7 1
     8    5    8 1
     9    5   12 1
    10    9   10 2
    11    9   11 1
    12    9   12 1
    13    9   13 1
    14   13   14 1
    15   14   15 1
    16   14   33 1
    17   14   34 1
    18   15   16 1
    19   15   17 1
    20   15   35 1
    21   16   21 1
    22   17   18 1
    23   17   19 1
    24   17   36 1
    25   18   37 1
    26   19   20 1
    27   19   21 1
    28   19   38 1
    29   20   39 1
    30   21   22 1
    31   21   40 1
    32   22   23 ar
    33   22   31 ar
    34   23   24 ar
    35   23   41 1
    36   24   25 ar
    37   24   45 1
    38   25   26 ar
    39   25   31 ar
    40   26   27 2
    41   26   28 ar
    42   27   42 1
    43   28   29 ar
    44   28   44 1
    45   29   30 ar
    46   29   43 1
    47   30   31 ar
@<TRIPOS>SUBSTRUCTURE
     1 ATP         1 GROUP 0 A     ****
@<TRIPOS>MOLECULE
[[[3,4-dihydroxy-5-(6-imino-7,8-dihydro-1~{H}-purin-8-ylium-9-yl)tetrahydrofuran-2-yl]methoxy-oxido-phosphoryl]oxy-oxido-phosphoryl] hydrogen phosphate
   45    47     1     0     0
SMALL
USER_CHARGES

@<TRIPOS>ATOM
      1 PG          5.3111   -6.4914    1.7897 P.3       1 ATP         1.5631
      2 O1G         5.8930   -6.4715    3.1855 O.co2     1 ATP        -0.8806
      3 O2G         5.8646   -5.5956    0.7039 O.co2     1 ATP        -0.8806
      4 O3G         5.3197   -8.0310    1.2461 O.3       1 ATP        -0.8165
      5 PB          2.5812   -7.0783    2.7628 P.3       1 ATP         1.6877
      6 O1B         2.4809   -8.4933    2.2383 O.co2     1 ATP        -0.8727
      7 O2B         2.8272   -6.8021    4.2294 O.co2     1 ATP        -0.8727
      8 O3B         3.6965   -6.2723    1.8841 O.3       1 ATP        -0.8330
      9 PA         -0.3072   -6.4376    2.7205 P.3       1 ATP         1.6036
     10 O1A        -0.4500   -6.1027    4.1894 O.co2     1 ATP        -0.9062
     11 O2A        -0.7938   -7.7640    2.1787 O.co2     1 ATP        -0.9062
     12 O3A         1.2573   -6.2493    2.2886 O.3       1 ATP        -0.8166
     13 O5'        -0.9724   -5.2440    1.8220 O.3       1 ATP        -0.5510
     14 C5'        -0.7840   -3.8935    2.2172 C.3       1 ATP         0.2099
     15 C4'        -0.0724   -3.1466    1.1027 C.3       1 ATP         0.0598
     16 O4'        -0.8674   -3.1929   -0.0945 O.3       1 ATP        -0.3455
     17 C3'         0.1338   -1.6715    1.4027 C.3       1 ATP         0.0742
     18 O3'         1.2893   -1.4445    2.1808 O.3       1 ATP        -0.6025
     19 C2'         0.2158   -1.0724    0.0128 C.3       1 ATP         0.1145
     20 O2'         1.5141   -1.2448   -0.5513 O.3       1 ATP        -0.5835
     21 C1'        -0.7897   -1.9176   -0.7583 C.3       1 ATP         0.3776
     22 N9         -2.1040   -1.3333   -0.7704 N.pl3     1 ATP        -0.4429
     23 C8         -3.0590   -1.5123    0.1363 C.ar      1 ATP         0.2964
     24 N7         -4.1655   -0.8354   -0.1554 N.pl3     1 ATP        -0.4957
     25 C5         -3.8852   -0.1874   -1.3253 C.ar      1 ATP        -0.1346
     26 C6         -4.7113    0.7160   -2.1458 C.ar      1 ATP         0.7213
     27 N6         -5.9213    1.0209   -1.8021 N.2       1 ATP        -0.8215
     28 N1         -4.0411    1.1673   -3.2764 N.pl3     1 ATP        -0.8455
     29 C2         -2.7403    0.7865   -3.5638 C.ar      1 ATP         0.6477
     30 N3         -1.9921   -0.0108   -2.8519 N.2       1 ATP        -0.5707
     31 C4         -2.6302   -0.4747   -1.7239 C.ar      1 ATP         0.2637
     32 HOG3        4.9705   -8.2107    0.3471 H         1 ATP         0.4378
     33 H5'1       -1.7618   -3.4448    2.4164 H         1 ATP         0.0340
     34 H5'2       -0.1874   -3.8744    3.1341 H         1 ATP         0.0340
     35 H4'         0.8874   -3.6466    0.8805 H         1 ATP         0.0910
     36 H3'        -0.7376   -1.2333    1.9867 H         1 ATP         0.0656
     37 HO3'        1.3408   -0.4870    2.3219 H         1 ATP         0.4386
     38 H2'        -0.0384   -0.0310    0.0096 H         1 ATP         0.0788
     39 HO2'        2.1463   -0.7958    0.0370 H         1 ATP         0.4363
     40 H1'        -0.4769   -2.1002   -1.8093 H         1 ATP         0.1225
     41 H8         -2.9569   -2.1323    1.0098 H         1 ATP         0.3824
     42 HN62       -6.3169    1.6552   -2.5012 H         1 ATP         0.4018
     43 H2         -2.3612    1.2343   -4.4957 H         1 ATP         0.0652
     44 H44        -4.5223    1.7976   -3.9117 H         1 ATP         0.4503
     45 H45        -5.0218   -0.8132    0.3804 H         1 ATP         0.5209
@<TRIPOS>BOND
     1    1    2 2
     2    1    3 1
     3    1    4 1
     4    1    8 1
     5    4   32 1
     6    5    6 2
     7    5    7 1
     8    5    8 1
     9    5   12 1
    10    9   10 2
    11    9   11 1
    12    9   12 1
    13    9   13 1
    14   13   14 1
    15   14   15 1
    16   14   33 1
    17   14   34 1
    18   15   16 1
    19   15   17 1
    20   15   35 1
    21   16   21 1
    22   17   18 1
    23   17   19 1
    24   17   36 1
    25   18   37 1
    26   19   20 1
    27   19   21 1
    28   19   38 1
    29   20   39 1
    30   21   22 1
    31   21   40 1
    32   22   23 ar
    33   22   31 ar
    34   23   24 ar
    35   23   41 1
    36   24   25 ar
    37   24   45 1
    38   25   26 ar
    39   25   31 ar
    40   26   27 2
    41   26   28 ar
    42   27   42 1
    43   28   29 ar
    44   28   44 1
    45   29   30 ar
    46   29   43 1
    47   30   31 ar
@<TRIPOS>SUBSTRUCTURE
     1 ATP         1 GROUP 0 A     ****
@<TRIPOS>MOLECULE
[[[3,4-dihydroxy-5-(6-imino-7,8-dihydro-1~{H}-purin-8-ylium-9-yl)tetrahydrofuran-2-yl]methoxy-oxido-phosphoryl]oxy-oxido-phosphoryl] hydrogen phosphate
   45    47     1     0     0
SMALL
USER_CHARGES

@<TRIPOS>ATOM
      1 PG          6.5300    0.1830   -6.3230 P.3       1 ATP         1.5631
      2 O1G         7.2819   -0.9560   -6.9748 O.co2     1 ATP        -0.8806
      3 O2G         7.1900    1.0509   -5.2747 O.co2     1 ATP        -0.8806
      4 O3G         5.9341    1.1497   -7.4961 O.3       1 ATP        -0.8165
      5 PB          4.8431   -1.4299   -4.5074 P.3       1 ATP         1.6877
      6 O1B         5.3599   -2.7929   -4.9108 O.co2     1 ATP        -0.8727
      7 O2B         5.2704   -0.7830   -3.2088 O.co2     1 ATP        -0.8727
      8 O3B         5.1189   -0.3828   -5.7294 O.3       1 ATP        -0.8330
      9 PA          2.1372   -2.2718   -3.6563 P.3       1 ATP         1.6036
     10 O1A         2.4859   -3.7437   -3.7017 O.co2     1 ATP        -0.9062
     11 O2A         0.7459   -1.7951   -4.0125 O.co2     1 ATP        -0.9062
     12 O3A         3.2120   -1.4489   -4.5713 O.3       1 ATP        -0.8166
     13 O5'         2.5245   -1.6648   -2.1878 O.3       1 ATP        -0.5510
     14 C5'         2.2816   -0.2918   -1.9206 C.3       1 ATP         0.2099
     15 C4'         2.7248    0.0226   -0.4980 C.3       1 ATP         0.0598
     16 O4'         2.4697    1.4219   -0.2462 O.3       1 ATP        -0.3455
     17 C3'         1.9404   -0.7419    0.5596 C.3       1 ATP         0.0742
     18 O3'         2.7418   -0.8086    1.7389 O.3       1 ATP        -0.6025
     19 C2'         0.7477    0.1630    0.7858 C.3       1 ATP         0.1145
     20 O2'         0.1373   -0.0577    2.0407 O.3       1 ATP        -0.5835
     21 C1'         1.3733    1.5427    0.6747 C.3       1 ATP         0.3776
     22 N9          0.4520    2.5240    0.1767 N.pl3     1 ATP        -0.4429
     23 C8         -0.8620    2.5492    0.3743 C.ar      1 ATP         0.2964
     24 N7         -1.4419    3.5886   -0.2183 N.pl3     1 ATP        -0.4957
     25 C5         -0.4215    4.2614   -0.8294 C.ar      1 ATP        -0.1346
     26 C6         -0.4310    5.4918   -1.6405 C.ar      1 ATP         0.7213
     27 N6         -1.5302    6.1308   -1.8826 N.2       1 ATP        -0.8215
     28 N1          0.8382    5.8461   -2.0817 N.pl3     1 ATP        -0.8455
     29 C2          1.9625    5.0982   -1.7709 C.ar      1 ATP         0.6477
     30 N3          1.9930    4.0077   -1.0554 N.2       1 ATP        -0.5707
     31 C4          0.7483    3.6314   -0.6038 C.ar      1 ATP         0.2637
     32 HOG3        5.4169    1.9402   -7.2318 H         1 ATP         0.4378
     33 H5'1        2.8432    0.3119   -2.6398 H         1 ATP         0.0340
     34 H5'2        1.2128   -0.0927   -2.0428 H         1 ATP         0.0340
     35 H4'         3.8044   -0.1397   -0.4040 H         1 ATP         0.0910
     36 H3'         1.6764   -1.7639    0.2728 H         1 ATP         0.0656
     37 HO3'        2.2232   -1.2979    2.3953 H         1 ATP         0.4386
     38 H2'        -0.0011    0.0027    0.0003 H         1 ATP         0.0788
     39 HO2'       -0.1563   -0.9855    2.0596 H         1 ATP         0.4363
     40 H1'         1.7826    1.9024    1.6451 H         1 ATP         0.1225
     41 H8         -1.4030    1.8165    0.9473 H         1 ATP         0.3824
     42 HN62       -1.3197    6.9504   -2.4583 H         1 ATP         0.4018
     43 H2          2.8857    5.5186   -2.1994 H         1 ATP         0.0652
     44 H44         0.9433    6.6815   -2.6502 H         1 ATP         0.4503
     45 H45        -2.4254    3.8199   -0.2108 H         1 ATP         0.5209
@<TRIPOS>BOND
     1    1    2 2
     2    1    3 1
     3    1    4 1
     4    1    8 1
     5    4   32 1
     6    5    6 2
     7    5    7 1
     8    5    8 1
     9    5   12 1
    10    9   10 2
    11    9   11 1
    12    9   12 1
    13    9   13 1
    14   13   14 1
    15   14   15 1
    16   14   33 1
    17   14   34 1
    18   15   16 1
    19   15   17 1
    20   15   35 1
    21   16   21 1
    22   17   18 1
    23   17   19 1
    24   17   36 1
    25   18   37 1
    26   19   20 1
    27   19   21 1
    28   19   38 1
    29   20   39 1
    30   21   22 1
    31   21   40 1
    32   22   23 ar
    33   22   31 ar
    34   23   24 ar
    35   23   41 1
    36   24   25 ar
    37   24   45 1
    38   25   26 ar
    39   25   31 ar
    40   26   27 2
    41   26   28 ar
    42   27   42 1
    43   28   29 ar
    44   28   44 1
    45   29   30 ar
    46   29   43 1
    47   30   31 ar
@<TRIPOS>SUBSTRUCTURE
     1 ATP         1 GROUP 0 A     ****
@<TRIPOS>MOLECULE
[[[3,4-dihydroxy-5-(6-imino-7,8-dihydro-1~{H}-purin-8-ylium-9-yl)tetrahydrofuran-2-yl]methoxy-oxido-phosphoryl]oxy-oxido-phosphoryl] hydrogen phosphate
   45    47     1     0     0
SMALL
USER_CHARGES

@<TRIPOS>ATOM
      1 PG         -2.2924   -8.4141    3.6888 P.3       1 ATP         1.5631
      2 O1G        -1.3174   -8.4318    2.5328 O.co2     1 ATP        -0.8806
      3 O2G        -3.6425   -7.7452    3.5568 O.co2     1 ATP        -0.8806
      4 O3G        -2.5216   -9.9485    4.1976 O.3       1 ATP        -0.8165
      5 PB         -0.9649   -6.3263    5.3082 P.3       1 ATP         1.6877
      6 O1B        -2.0733   -5.3266    5.0643 O.co2     1 ATP        -0.8727
      7 O2B        -0.2032   -6.3481    6.6147 O.co2     1 ATP        -0.8727
      8 O3B        -1.5378   -7.8260    5.0112 O.3       1 ATP        -0.8330
      9 PA          1.1153   -5.0160    3.6616 P.3       1 ATP         1.6036
     10 O1A         1.7973   -5.3763    2.3595 O.co2     1 ATP        -0.9062
     11 O2A         1.9269   -4.6320    4.8795 O.co2     1 ATP        -0.9062
     12 O3A         0.1056   -6.2308    4.0794 O.3       1 ATP        -0.8166
     13 O5'         0.0118   -3.8395    3.3916 O.3       1 ATP        -0.5510
     14 C5'        -0.7840   -3.8935    2.2172 C.3       1 ATP         0.2099
     15 C4'        -0.0724   -3.1466    1.1027 C.3       1 ATP         0.0598
     16 O4'        -0.8674   -3.1929   -0.0945 O.3       1 ATP        -0.3455
     17 C3'         0.1338   -1.6715    1.4027 C.3       1 ATP         0.0742
     18 O3'         1.2893   -1.4445    2.1808 O.3       1 ATP        -0.6025
     19 C2'         0.2158   -1.0724    0.0128 C.3       1 ATP         0.1145
     20 O2'         1.5141   -1.2448   -0.5513 O.3       1 ATP        -0.5835
     21 C1'        -0.7897   -1.9176   -0.7583 C.3       1 ATP         0.3776
     22 N9         -2.1040   -1.3333   -0.7704 N.pl3     1 ATP        -0.4429
     23 C8         -3.0590   -1.5123    0.1363 C.ar      1 ATP         0.2964
     24 N7         -4.1655   -0.8354   -0.1554 N.pl3     1 ATP        -0.4957
     25 C5         -3.8852   -0.1874   -1.3253 C.ar      1 ATP        -0.1346
     26 C6         -4.7113    0.7160   -2.1458 C.ar      1 ATP         0.7213
     27 N6         -5.9213    1.0209   -1.8021 N.2       1 ATP        -0.8215
     28 N1         -4.0411    1.1673   -3.2764 N.pl3     1 ATP        -0.8455
     29 C2         -2.7403    0.7865   -3.5638 C.ar      1 ATP         0.6477
     30 N3         -1.9921   -0.0108   -2.8519 N.2       1 ATP        -0.5707
     31 C4         -2.6302   -0.4747   -1.7239 C.ar      1 ATP         0.2637
     32 HOG3       -3.1331  -10.1051    4.9485 H         1 ATP         0.4378
     33 H5'1       -0.9348   -4.9415    1.9415 H         1 ATP         0.0340
     34 H5'2       -1.7548   -3.4350    2.4278 H         1 ATP         0.0340
     35 H4'         0.8874   -3.6466    0.8805 H         1 ATP         0.0910
     36 H3'        -0.7376   -1.2333    1.9867 H         1 ATP         0.0656
     37 HO3'        1.1626   -1.9325    3.0084 H         1 ATP         0.4386
     38 H2'        -0.0384   -0.0310    0.0096 H         1 ATP         0.0788
     39 HO2'        2.1463   -0.7958    0.0370 H         1 ATP         0.4363
     40 H1'        -0.4769   -2.1002   -1.8093 H         1 ATP         0.1225
     41 H8         -2.9569   -2.1323    1.0098 H         1 ATP         0.3824
     42 HN62       -6.3169    1.6552   -2.5012 H         1 ATP         0.4018
     43 H2         -2.3612    1.2343   -4.4957 H         1 ATP         0.0652
     44 H44        -4.5223    1.7976   -3.9117 H         1 ATP         0.4503
     45 H45        -5.0218   -0.8132    0.3804 H         1 ATP         0.5209
@<TRIPOS>BOND
     1    1    2 2
     2    1    3 1
     3    1    4 1
     4    1    8 1
     5    4   32 1
     6    5    6 2
     7    5    7 1
     8    5    8 1
     9    5   12 1
    10    9   10 2
    11    9   11 1
    12    9   12 1
    13    9   13 1
    14   13   14 1
    15   14   15 1
    16   14   33 1
    17   14   34 1
    18   15   16 1
    19   15   17 1
    20   15   35 1
    21   16   21 1
    22   17   18 1
    23   17   19 1
    24   17   36 1
    25   18   37 1
    26   19   20 1
    27   19   21 1
    28   19   38 1
    29   20   39 1
    30   21   22 1
    31   21   40 1
    32   22   23 ar
    33   22   31 ar
    34   23   24 ar
    35   23   41 1
    36   24   25 ar
    37   24   45 1
    38   25   26 ar
    39   25   31 ar
    40   26   27 2
    41   26   28 ar
    42   27   42 1
    43   28   29 ar
    44   28   44 1
    45   29   30 ar
    46   29   43 1
    47   30   31 ar
@<TRIPOS>SUBSTRUCTURE
     1 ATP         1 GROUP 0 A     ****
@<TRIPOS>MOLECULE
[[[3,4-dihydroxy-5-(6-imino-7,8-dihydro-1~{H}-purin-8-ylium-9-yl)tetrahydrofuran-2-yl]methoxy-oxido-phosphoryl]oxy-oxido-phosphoryl] hydrogen phosphate
   45    47     1     0     0
SMALL
USER_CHARGES

@<TRIPOS>ATOM
      1 PG         -2.8529   -6.5060    7.8145 P.3       1 ATP         1.5631
      2 O1G        -3.2501   -7.9555    7.9831 O.co2     1 ATP        -0.8806
      3 O2G        -3.8204   -5.3914    8.1455 O.co2     1 ATP        -0.8806
      4 O3G        -1.4656   -6.2493    8.6364 O.3       1 ATP        -0.8165
      5 PB         -1.1169   -7.0849    5.4919 P.3       1 ATP         1.6877
      6 O1B         0.2114   -6.8064    6.1595 O.co2     1 ATP        -0.8727
      7 O2B        -1.5850   -8.5007    5.2394 O.co2     1 ATP        -0.8727
      8 O3B        -2.2872   -6.2829    6.2999 O.3       1 ATP        -0.8330
      9 PA         -0.3072   -6.4376    2.7205 P.3       1 ATP         1.6036
     10 O1A        -0.6428   -7.7790    2.1053 O.co2     1 ATP        -0.9062
     11 O2A         1.1276   -6.0607    3.0189 O.co2     1 ATP        -0.9062
     12 O3A        -1.1816   -6.2536    4.0885 O.3       1 ATP        -0.8166
     13 O5'        -0.9724   -5.2440    1.8220 O.3       1 ATP        -0.5510
     14 C5'        -0.7840   -3.8935    2.2172 C.3       1 ATP         0.2099
     15 C4'        -0.0724   -3.1466    1.1027 C.3       1 ATP         0.0598
     16 O4'        -0.8674   -3.1929   -0.0945 O.3       1 ATP        -0.3455
     17 C3'         0.1338   -1.6715    1.4027 C.3       1 ATP         0.0742
     18 O3'         1.2893   -1.4445    2.1808 O.3       1 ATP        -0.6025
     19 C2'         0.2158   -1.0724    0.0128 C.3       1 ATP         0.1145
     20 O2'         1.5141   -1.2448   -0.5513 O.3       1 ATP        -0.5835
     21 C1'        -0.7897   -1.9176   -0.7583 C.3       1 ATP         0.3776
     22 N9         -2.1040   -1.3333   -0.7704 N.pl3     1 ATP        -0.4429
     23 C8         -3.0590   -1.5123    0.1363 C.ar      1 ATP         0.2964
     24 N7         -4.1655   -0.8354   -0.1554 N.pl3     1 ATP        -0.4957
     25 C5         -3.8852   -0.1874   -1.3253 C.ar      1 ATP        -0.1346
     26 C6         -4.7113    0.7160   -2.1458 C.ar      1 ATP         0.7213
     27 N6         -5.9213    1.0209   -1.8021 N.2       1 ATP        -0.8215
     28 N1         -4.0411    1.1673   -3.2764 N.pl3     1 ATP        -0.8455
     29 C2         -2.7403    0.7865   -3.5638 C.ar      1 ATP         0.6477
     30 N3         -1.9921   -0.0108   -2.8519 N.2       1 ATP        -0.5707
     31 C4         -2.6302   -0.4747   -1.7239 C.ar      1 ATP         0.2637
     32 HOG3       -1.0755   -5.3493    8.6245 H         1 ATP         0.4378
     33 H5'1       -1.7618   -3.4448    2.4164 H         1 ATP         0.0340
     34 H5'2       -0.1874   -3.8744    3.1341 H         1 ATP         0.0340
     35 H4'         0.8874   -3.6466    0.8805 H         1 ATP         0.0910
     36 H3'        -0.7376   -1.2333    1.9867 H         1 ATP         0.0656
     37 HO3'        1.3408   -0.4870    2.3219 H         1 ATP         0.4386
     38 H2'        -0.0384   -0.0310    0.0096 H         1 ATP         0.0788
     39 HO2'        2.1463   -0.7958    0.0370 H         1 ATP         0.4363
     40 H1'        -0.4769   -2.1002   -1.8093 H         1 ATP         0.1225
     41 H8         -2.9569   -2.1323    1.0098 H         1 ATP         0.3824
     42 HN62       -6.3169    1.6552   -2.5012 H         1 ATP         0.4018
     43 H2         -2.3612    1.2343   -4.4957 H         1 ATP         0.0652
     44 H44        -4.5223    1.7976   -3.9117 H         1 ATP         0.4503
     45 H45        -5.0218   -0.8132    0.3804 H         1 ATP         0.5209
@<TRIPOS>BOND
     1    1    2 2
     2    1    3 1
     3    1    4 1
     4    1    8 1
     5    4   32 1
     6    5    6 2
     7    5    7 1
     8    5    8 1
     9    5   12 1
    10    9   10 2
    11    9   11 1
    12    9   12 1
    13    9   13 1
    14   13   14 1
    15   14   15 1
    16   14   33 1
    17   14   34 1
    18   15   16 1
    19   15   17 1
    20   15   35 1
    21   16   21 1
    22   17   18 1
    23   17   19 1
    24   17   36 1
    25   18   37 1
    26   19   20 1
    27   19   21 1
    28   19   38 1
    29   20   39 1
    30   21   22 1
    31   21   40 1
    32   22   23 ar
    33   22   31 ar
    34   23   24 ar
    35   23   41 1
    36   24   25 ar
    37   24   45 1
    38   25   26 ar
    39   25   31 ar
    40   26   27 2
    41   26   28 ar
    42   27   42 1
    43   28   29 ar
    44   28   44 1
    45   29   30 ar
    46   29   43 1
    47   30   31 ar
@<TRIPOS>SUBSTRUCTURE
     1 ATP         1 GROUP 0 A     ****
@<TRIPOS>MOLECULE
[[[3,4-dihydroxy-5-(6-imino-7,8-dihydro-1~{H}-purin-8-ylium-9-yl)tetrahydrofuran-2-yl]methoxy-oxido-phosphoryl]oxy-oxido-phosphoryl] hydrogen phosphate
   45    47     1     0     0
SMALL
USER_CHARGES

@<TRIPOS>ATOM
      1 PG         -1.5922   -0.9695   -5.1275 P.3       1 ATP         1.5631
      2 O1G        -1.2949   -0.8712   -3.6479 O.co2     1 ATP        -0.8806
      3 O2G        -2.2521   -2.2007   -5.7076 O.co2     1 ATP        -0.8806
      4 O3G        -2.4596    0.3409   -5.5705 O.3       1 ATP        -0.8165
      5 PB          1.1611   -1.5105   -6.0602 P.3       1 ATP         1.6877
      6 O1B         0.8293   -2.9335   -6.4509 O.co2     1 ATP        -0.8727
      7 O2B         2.1761   -0.7014   -6.8366 O.co2     1 ATP        -0.8727
      8 O3B        -0.2272   -0.6565   -5.9656 O.3       1 ATP        -0.8330
      9 PA          2.8603   -2.1317   -3.7189 P.3       1 ATP         1.6036
     10 O1A         4.1110   -1.4272   -4.1983 O.co2     1 ATP        -0.9062
     11 O2A         2.7464   -3.6389   -3.7889 O.co2     1 ATP        -0.9062
     12 O3A         1.5678   -1.4831   -4.4795 O.3       1 ATP        -0.8166
     13 O5'         2.5245   -1.6648   -2.1878 O.3       1 ATP        -0.5510
     14 C5'         2.2816   -0.2918   -1.9206 C.3       1 ATP         0.2099
     15 C4'         2.7248    0.0226   -0.4980 C.3       1 ATP         0.0598
     16 O4'         2.4697    1.4219   -0.2462 O.3       1 ATP        -0.3455
     17 C3'         1.9404   -0.7419    0.5596 C.3       1 ATP         0.0742
     18 O3'         2.7418   -0.8086    1.7389 O.3       1 ATP        -0.6025
     19 C2'         0.7477    0.1630    0.7858 C.3       1 ATP         0.1145
     20 O2'         0.1373   -0.0577    2.0407 O.3       1 ATP        -0.5835
     21 C1'         1.3733    1.5427    0.6747 C.3       1 ATP         0.3776
     22 N9          0.4520    2.5240    0.1767 N.pl3     1 ATP        -0.4429
     23 C8         -0.8620    2.5492    0.3743 C.ar      1 ATP         0.2964
     24 N7         -1.4419    3.5886   -0.2183 N.pl3     1 ATP        -0.4957
     25 C5         -0.4215    4.2614   -0.8294 C.ar      1 ATP        -0.1346
     26 C6         -0.4310    5.4918   -1.6405 C.ar      1 ATP         0.7213
     27 N6         -1.5302    6.1308   -1.8826 N.2       1 ATP        -0.8215
     28 N1          0.8382    5.8461   -2.0817 N.pl3     1 ATP        -0.8455
     29 C2          1.9625    5.0982   -1.7709 C.ar      1 ATP         0.6477
     30 N3          1.9930    4.0077   -1.0554 N.2       1 ATP        -0.5707
     31 C4          0.7483    3.6314   -0.6038 C.ar      1 ATP         0.2637
     32 HOG3       -2.7330    0.4245   -6.5088 H         1 ATP         0.4378
     33 H5'1        2.8432    0.3119   -2.6398 H         1 ATP         0.0340
     34 H5'2        1.2128   -0.0927   -2.0428 H         1 ATP         0.0340
     35 H4'         3.8044   -0.1397   -0.4040 H         1 ATP         0.0910
     36 H3'         1.6764   -1.7639    0.2728 H         1 ATP         0.0656
     37 HO3'        2.2232   -1.2979    2.3953 H         1 ATP         0.4386
     38 H2'        -0.0011    0.0027    0.0003 H         1 ATP         0.0788
     39 HO2'       -0.1563   -0.9855    2.0596 H         1 ATP         0.4363
     40 H1'         1.7826    1.9024    1.6451 H         1 ATP         0.1225
     41 H8         -1.4030    1.8165    0.9473 H         1 ATP         0.3824
     42 HN62       -1.3197    6.9504   -2.4583 H         1 ATP         0.4018
     43 H2          2.8857    5.5186   -2.1994 H         1 ATP         0.0652
     44 H44         0.9433    6.6815   -2.6502 H         1 ATP         0.4503
     45 H45        -2.4254    3.8199   -0.2108 H         1 ATP         0.5209
@<TRIPOS>BOND
     1    1    2 2
     2    1    3 1
     3    1    4 1
     4    1    8 1
     5    4   32 1
     6    5    6 2
     7    5    7 1
     8    5    8 1
     9    5   12 1
    10    9   10 2
    11    9   11 1
    12    9   12 1
    13    9   13 1
    14   13   14 1
    15   14   15 1
    16   14   33 1
    17   14   34 1
    18   15   16 1
    19   15   17 1
    20   15   35 1
    21   16   21 1
    22   17   18 1
    23   17   19 1
    24   17   36 1
    25   18   37 1
    26   19   20 1
    27   19   21 1
    28   19   38 1
    29   20   39 1
    30   21   22 1
    31   21   40 1
    32   22   23 ar
    33   22   31 ar
    34   23   24 ar
    35   23   41 1
    36   24   25 ar
    37   24   45 1
    38   25   26 ar
    39   25   31 ar
    40   26   27 2
    41   26   28 ar
    42   27   42 1
    43   28   29 ar
    44   28   44 1
    45   29   30 ar
    46   29   43 1
    47   30   31 ar
@<TRIPOS>SUBSTRUCTURE
     1 ATP         1 GROUP 0 A     ****
@<TRIPOS>MOLECULE
[[[3,4-dihydroxy-5-(6-imino-7,8-dihydro-1~{H}-purin-8-ylium-9-yl)tetrahydrofuran-2-yl]methoxy-oxido-phosphoryl]oxy-oxido-phosphoryl] hydrogen phosphate
   45    47     1     0     0
SMALL
USER_CHARGES

@<TRIPOS>ATOM
      1 PG          2.6166   -8.7124    6.1129 P.3       1 ATP         1.5631
      2 O1G         3.3096   -7.9980    7.2517 O.co2     1 ATP        -0.8806
      3 O2G         3.3702   -9.6828    5.2308 O.co2     1 ATP        -0.8806
      4 O3G         1.2942   -9.4671    6.7023 O.3       1 ATP        -0.8165
      5 PB          0.8612   -7.8261    3.9046 P.3       1 ATP         1.6877
      6 O1B         1.6361   -8.4540    2.7676 O.co2     1 ATP        -0.8727
      7 O2B        -0.4243   -8.4418    4.4106 O.co2     1 ATP        -0.8727
      8 O3B         1.8709   -7.6092    5.1692 O.3       1 ATP        -0.8330
      9 PA         -0.0649   -5.0721    4.4638 P.3       1 ATP         1.6036
     10 O1A         0.8648   -4.7899    5.6242 O.co2     1 ATP        -0.9062
     11 O2A        -1.5225   -5.4005    4.7026 O.co2     1 ATP        -0.9062
     12 O3A         0.5851   -6.2576    3.5463 O.3       1 ATP        -0.8166
     13 O5'         0.0118   -3.8395    3.3916 O.3       1 ATP        -0.5510
     14 C5'        -0.7840   -3.8935    2.2172 C.3       1 ATP         0.2099
     15 C4'        -0.0724   -3.1466    1.1027 C.3       1 ATP         0.0598
     16 O4'        -0.8674   -3.1929   -0.0945 O.3       1 ATP        -0.3455
     17 C3'         0.1338   -1.6715    1.4027 C.3       1 ATP         0.0742
     18 O3'         1.2893   -1.4445    2.1808 O.3       1 ATP        -0.6025
     19 C2'         0.2158   -1.0724    0.0128 C.3       1 ATP         0.1145
     20 O2'         1.5141   -1.2448   -0.5513 O.3       1 ATP        -0.5835
     21 C1'        -0.7897   -1.9176   -0.7583 C.3       1 ATP         0.3776
     22 N9         -2.1040   -1.3333   -0.7704 N.pl3     1 ATP        -0.4429
     23 C8         -3.0590   -1.5123    0.1363 C.ar      1 ATP         0.2964
     24 N7         -4.1655   -0.8354   -0.1554 N.pl3     1 ATP        -0.4957
     25 C5         -3.8852   -0.1874   -1.3253 C.ar      1 ATP        -0.1346
     26 C6         -4.7113    0.7160   -2.1458 C.ar      1 ATP         0.7213
     27 N6         -5.9213    1.0209   -1.8021 N.2       1 ATP        -0.8215
     28 N1         -4.0411    1.1673   -3.2764 N.pl3     1 ATP        -0.8455
     29 C2         -2.7403    0.7865   -3.5638 C.ar      1 ATP         0.6477
     30 N3         -1.9921   -0.0108   -2.8519 N.2       1 ATP        -0.5707
     31 C4         -2.6302   -0.4747   -1.7239 C.ar      1 ATP         0.2637
     32 HOG3        0.7332   -9.9791    6.0814 H         1 ATP         0.4378
     33 H5'1       -0.9348   -4.9415    1.9415 H         1 ATP         0.0340
     34 H5'2       -1.7548   -3.4350    2.4278 H         1 ATP         0.0340
     35 H4'         0.8874   -3.6466    0.8805 H         1 ATP         0.0910
     36 H3'        -0.7376   -1.2333    1.9867 H         1 ATP         0.0656
     37 HO3'        1.3408   -0.4870    2.3219 H         1 ATP         0.4386
     38 H2'        -0.0384   -0.0310    0.0096 H         1 ATP         0.0788
     39 HO2'        1.4998   -0.8412   -1.4369 H         1 ATP         0.4363
     40 H1'        -0.4769   -2.1002   -1.8093 H         1 ATP         0.1225
     41 H8         -2.9569   -2.1323    1.0098 H         1 ATP         0.3824
     42 HN62       -6.3169    1.6552   -2.5012 H         1 ATP         0.4018
     43 H2         -2.3612    1.2343   -4.4957 H         1 ATP         0.0652
     44 H44        -4.5223    1.7976   -3.9117 H         1 ATP         0.4503
     45 H45        -5.0218   -0.8132    0.3804 H         1 ATP         0.5209
@<TRIPOS>BOND
     1    1    2 2
     2    1    3 1
     3    1    4 1
     4    1    8 1
     5    4   32 1
     6    5    6 2
     7    5    7 1
     8    5    8 1
     9    5   12 1
    10    9   10 2
    11    9   11 1
    12    9   12 1
    13    9   13 1
    14   13   14 1
    15   14   15 1
    16   14   33 1
    17   14   34 1
    18   15   16 1
    19   15   17 1
    20   15   35 1
    21   16   21 1
    22   17   18 1
    23   17   19 1
    24   17   36 1
    25   18   37 1
    26   19   20 1
    27   19   21 1
    28   19   38 1
    29   20   39 1
    30   21   22 1
    31   21   40 1
    32   22   23 ar
    33   22   31 ar
    34   23   24 ar
    35   23   41 1
    36   24   25 ar
    37   24   45 1
    38   25   26 ar
    39   25   31 ar
    40   26   27 2
    41   26   28 ar
    42   27   42 1
    43   28   29 ar
    44   28   44 1
    45   29   30 ar
    46   29   43 1
    47   30   31 ar
@<TRIPOS>SUBSTRUCTURE
     1 ATP         1 GROUP 0 A     ****
@<TRIPOS>MOLECULE
[[[3,4-dihydroxy-5-(6-imino-7,8-dihydro-1~{H}-purin-8-ylium-9-yl)tetrahydrofuran-2-yl]methoxy-oxido-phosphoryl]oxy-oxido-phosphoryl] hydrogen phosphate
   45    47     1     0     0
SMALL
USER_CHARGES

@<TRIPOS>ATOM
      1 PG         -6.6624   -6.1823    2.0791 P.3       1 ATP         1.5631
      2 O1G        -7.4502   -5.3152    3.0356 O.co2     1 ATP        -0.8806
      3 O2G        -6.9514   -7.6616    1.9530 O.co2     1 ATP        -0.8806
      4 O3G        -6.7338   -5.5116    0.5922 O.3       1 ATP        -0.8165
      5 PB         -4.1792   -6.3908    3.6709 P.3       1 ATP         1.6877
      6 O1B        -4.6230   -5.5494    4.8467 O.co2     1 ATP        -0.8727
      7 O2B        -4.1259   -7.8995    3.7630 O.co2     1 ATP        -0.8727
      8 O3B        -5.0688   -5.9772    2.3658 O.3       1 ATP        -0.8330
      9 PA         -1.8564   -6.2730    1.8416 P.3       1 ATP         1.6036
     10 O1A        -2.6131   -5.8576    0.5986 O.co2     1 ATP        -0.9062
     11 O2A        -1.3919   -7.7016    2.0231 O.co2     1 ATP        -0.9062
     12 O3A        -2.7293   -5.8460    3.1552 O.3       1 ATP        -0.8166
     13 O5'        -0.5687   -5.2869    2.0510 O.3       1 ATP        -0.5510
     14 C5'        -0.7840   -3.8935    2.2172 C.3       1 ATP         0.2099
     15 C4'        -0.0724   -3.1466    1.1027 C.3       1 ATP         0.0598
     16 O4'        -0.8674   -3.1929   -0.0945 O.3       1 ATP        -0.3455
     17 C3'         0.1338   -1.6715    1.4027 C.3       1 ATP         0.0742
     18 O3'         1.2893   -1.4445    2.1808 O.3       1 ATP        -0.6025
     19 C2'         0.2158   -1.0724    0.0128 C.3       1 ATP         0.1145
     20 O2'         1.5141   -1.2448   -0.5513 O.3       1 ATP        -0.5835
     21 C1'        -0.7897   -1.9176   -0.7583 C.3       1 ATP         0.3776
     22 N9         -2.1040   -1.3333   -0.7704 N.pl3     1 ATP        -0.4429
     23 C8         -3.0590   -1.5123    0.1363 C.ar      1 ATP         0.2964
     24 N7         -4.1655   -0.8354   -0.1554 N.pl3     1 ATP        -0.4957
     25 C5         -3.8852   -0.1874   -1.3253 C.ar      1 ATP        -0.1346
     26 C6         -4.7113    0.7160   -2.1458 C.ar      1 ATP         0.7213
     27 N6         -5.9213    1.0209   -1.8021 N.2       1 ATP        -0.8215
     28 N1         -4.0411    1.1673   -3.2764 N.pl3     1 ATP        -0.8455
     29 C2         -2.7403    0.7865   -3.5638 C.ar      1 ATP         0.6477
     30 N3         -1.9921   -0.0108   -2.8519 N.2       1 ATP        -0.5707
     31 C4         -2.6302   -0.4747   -1.7239 C.ar      1 ATP         0.2637
     32 HOG3       -6.2677   -5.9601   -0.1452 H         1 ATP         0.4378
     33 H5'1       -1.8598   -3.6968    2.1850 H         1 ATP         0.0340
     34 H5'2       -0.3933   -3.5903    3.1931 H         1 ATP         0.0340
     35 H4'         0.8874   -3.6466    0.8805 H         1 ATP         0.0910
     36 H3'        -0.7376   -1.2333    1.9867 H         1 ATP         0.0656
     37 HO3'        2.0374   -1.7816    1.6652 H         1 ATP         0.4386
     38 H2'        -0.0384   -0.0310    0.0096 H         1 ATP         0.0788
     39 HO2'        1.4998   -0.8412   -1.4369 H         1 ATP         0.4363
     40 H1'        -0.4769   -2.1002   -1.8093 H         1 ATP         0.1225
     41 H8         -2.9569   -2.1323    1.0098 H         1 ATP         0.3824
     42 HN62       -6.3169    1.6552   -2.5012 H         1 ATP         0.4018
     43 H2         -2.3612    1.2343   -4.4957 H         1 ATP         0.0652
     44 H44        -4.5223    1.7976   -3.9117 H         1 ATP         0.4503
     45 H45        -5.0218   -0.8132    0.3804 H         1 ATP         0.5209
@<TRIPOS>BOND
     1    1    2 2
     2    1    3 1
     3    1    4 1
     4    1    8 1
     5    4   32 1
     6    5    6 2
     7    5    7 1
     8    5    8 1
     9    5   12 1
    10    9   10 2
    11    9   11 1
    12    9   12 1
    13    9   13 1
    14   13   14 1
    15   14   15 1
    16   14   33 1
    17   14   34 1
    18   15   16 1
    19   15   17 1
    20   15   35 1
    21   16   21 1
    22   17   18 1
    23   17   19 1
    24   17   36 1
    25   18   37 1
    26   19   20 1
    27   19   21 1
    28   19   38 1
    29   20   39 1
    30   21   22 1
    31   21   40 1
    32   22   23 ar
    33   22   31 ar
    34   23   24 ar
    35   23   41 1
    36   24   25 ar
    37   24   45 1
    38   25   26 ar
    39   25   31 ar
    40   26   27 2
    41   26   28 ar
    42   27   42 1
    43   28   29 ar
    44   28   44 1
    45   29   30 ar
    46   29   43 1
    47   30   31 ar
@<TRIPOS>SUBSTRUCTURE
     1 ATP         1 GROUP 0 A     ****
@<TRIPOS>MOLECULE
[[[3,4-dihydroxy-5-(6-imino-7,8-dihydro-1~{H}-purin-8-ylium-9-yl)tetrahydrofuran-2-yl]methoxy-oxido-phosphoryl]oxy-oxido-phosphoryl] hydrogen phosphate
   45    47     1     0     0
SMALL
USER_CHARGES

@<TRIPOS>ATOM
      1 PG          1.8401   -0.9031   -7.7866 P.3       1 ATP         1.5631
      2 O1G         0.4611   -0.9598   -7.1680 O.co2     1 ATP        -0.8806
      3 O2G         2.3510   -2.0336   -8.6518 O.co2     1 ATP        -0.8806
      4 O3G         1.9763    0.4924   -8.6232 O.3       1 ATP        -0.8165
      5 PB          3.4026   -1.5202   -5.3532 P.3       1 ATP         1.6877
      6 O1B         3.8174   -2.8785   -5.8733 O.co2     1 ATP        -0.8727
      7 O2B         4.3215   -0.7054   -4.4704 O.co2     1 ATP        -0.8727
      8 O3B         2.9352   -0.5967   -6.6158 O.3       1 ATP        -0.8330
      9 PA          1.5544   -2.4558   -3.2404 P.3       1 ATP         1.6036
     10 O1A         2.0071   -3.8949   -3.3601 O.co2     1 ATP        -0.9062
     11 O2A         0.1180   -2.1225   -2.9010 O.co2     1 ATP        -0.9062
     12 O3A         1.9553   -1.6633   -4.6119 O.3       1 ATP        -0.8166
     13 O5'         2.5245   -1.6648   -2.1878 O.3       1 ATP        -0.5510
     14 C5'         2.2816   -0.2918   -1.9206 C.3       1 ATP         0.2099
     15 C4'         2.7248    0.0226   -0.4980 C.3       1 ATP         0.0598
     16 O4'         2.4697    1.4219   -0.2462 O.3       1 ATP        -0.3455
     17 C3'         1.9404   -0.7419    0.5596 C.3       1 ATP         0.0742
     18 O3'         2.7418   -0.8086    1.7389 O.3       1 ATP        -0.6025
     19 C2'         0.7477    0.1630    0.7858 C.3       1 ATP         0.1145
     20 O2'         0.1373   -0.0577    2.0407 O.3       1 ATP        -0.5835
     21 C1'         1.3733    1.5427    0.6747 C.3       1 ATP         0.3776
     22 N9          0.4520    2.5240    0.1767 N.pl3     1 ATP        -0.4429
     23 C8          0.5691    3.2215   -0.9485 C.ar      1 ATP         0.2964
     24 N7         -0.4499    4.0551   -1.1342 N.pl3     1 ATP        -0.4957
     25 C5         -1.2618    3.8674   -0.0512 C.ar      1 ATP        -0.1346
     26 C6         -2.5420    4.5007    0.3120 C.ar      1 ATP         0.7213
     27 N6         -3.0874    5.3993   -0.4432 N.2       1 ATP        -0.8215
     28 N1         -3.0494    4.0205    1.5133 N.pl3     1 ATP        -0.8455
     29 C2         -2.3933    3.0527    2.2567 C.ar      1 ATP         0.6477
     30 N3         -1.2611    2.4796    1.9536 N.2       1 ATP        -0.5707
     31 C4         -0.7334    2.9358    0.7669 C.ar      1 ATP         0.2637
     32 HOG3        2.8208    0.6785   -9.0864 H         1 ATP         0.4378
     33 H5'1        2.8432    0.3119   -2.6398 H         1 ATP         0.0340
     34 H5'2        1.2128   -0.0927   -2.0428 H         1 ATP         0.0340
     35 H4'         3.8044   -0.1397   -0.4040 H         1 ATP         0.0910
     36 H3'         1.6764   -1.7639    0.2728 H         1 ATP         0.0656
     37 HO3'        3.5554   -1.2733    1.4914 H         1 ATP         0.4386
     38 H2'        -0.0011    0.0027    0.0003 H         1 ATP         0.0788
     39 HO2'       -0.1563   -0.9855    2.0596 H         1 ATP         0.4363
     40 H1'         1.7826    1.9024    1.6451 H         1 ATP         0.1225
     41 H8          1.3912    3.1285   -1.6365 H         1 ATP         0.3824
     42 HN62       -3.9637    5.7083   -0.0142 H         1 ATP         0.4018
     43 H2         -2.9317    2.7866    3.1796 H         1 ATP         0.0652
     44 H44        -3.9307    4.3923    1.8558 H         1 ATP         0.4503
     45 H45        -0.5835    4.6857   -1.9122 H         1 ATP         0.5209
@<TRIPOS>BOND
     1    1    2 2
     2    1    3 1
     3    1    4 1
     4    1    8 1
     5    4   32 1
     6    5    6 2
     7    5    7 1
     8    5    8 1
     9    5   12 1
    10    9   10 2
    11    9   11 1
    12    9   12 1
    13    9   13 1
    14   13   14 1
    15   14   15 1
    16   14   33 1
    17   14   34 1
    18   15   16 1
    19   15   17 1
    20   15   35 1
    21   16   21 1
    22   17   18 1
    23   17   19 1
    24   17   36 1
    25   18   37 1
    26   19   20 1
    27   19   21 1
    28   19   38 1
    29   20   39 1
    30   21   22 1
    31   21   40 1
    32   22   23 ar
    33   22   31 ar
    34   23   24 ar
    35   23   41 1
    36   24   25 ar
    37   24   45 1
    38   25   26 ar
    39   25   31 ar
    40   26   27 2
    41   26   28 ar
    42   27   42 1
    43   28   29 ar
    44   28   44 1
    45   29   30 ar
    46   29   43 1
    47   30   31 ar
@<TRIPOS>SUBSTRUCTURE
     1 ATP         1 GROUP 0 A     ****
@<TRIPOS>MOLECULE
[[[3,4-dihydroxy-5-(6-imino-7,8-dihydro-1~{H}-purin-8-ylium-9-yl)tetrahydrofuran-2-yl]methoxy-oxido-phosphoryl]oxy-oxido-phosphoryl] hydrogen phosphate
   45    47     1     0     0
SMALL
USER_CHARGES

@<TRIPOS>ATOM
      1 PG          4.2521   -3.9434   -7.6431 P.3       1 ATP         1.5631
      2 O1G         5.5831   -3.4538   -8.1687 O.co2     1 ATP        -0.8806
      3 O2G         3.0457   -4.0387   -8.5503 O.co2     1 ATP        -0.8806
      4 O3G         4.4787   -5.3935   -6.9277 O.3       1 ATP        -0.8165
      5 PB          3.4664   -1.4950   -6.1831 P.3       1 ATP         1.6877
      6 O1B         4.6910   -0.6677   -6.5046 O.co2     1 ATP        -0.8727
      7 O2B         2.1507   -1.2539   -6.8891 O.co2     1 ATP        -0.8727
      8 O3B         3.8518   -3.0756   -6.3200 O.3       1 ATP        -0.8330
      9 PA          2.1372   -2.2718   -3.6563 P.3       1 ATP         1.6036
     10 O1A         2.4859   -3.7437   -3.7017 O.co2     1 ATP        -0.9062
     11 O2A         0.7459   -1.7951   -4.0125 O.co2     1 ATP        -0.9062
     12 O3A         3.2120   -1.4489   -4.5713 O.3       1 ATP        -0.8166
     13 O5'         2.5245   -1.6648   -2.1878 O.3       1 ATP        -0.5510
     14 C5'         2.2816   -0.2918   -1.9206 C.3       1 ATP         0.2099
     15 C4'         2.7248    0.0226   -0.4980 C.3       1 ATP         0.0598
     16 O4'         2.4697    1.4219   -0.2462 O.3       1 ATP        -0.3455
     17 C3'         1.9404   -0.7419    0.5596 C.3       1 ATP         0.0742
     18 O3'         2.7418   -0.8086    1.7389 O.3       1 ATP        -0.6025
     19 C2'         0.7477    0.1630    0.7858 C.3       1 ATP         0.1145
     20 O2'         0.1373   -0.0577    2.0407 O.3       1 ATP        -0.5835
     21 C1'         1.3733    1.5427    0.6747 C.3       1 ATP         0.3776
     22 N9          0.4520    2.5240    0.1767 N.pl3     1 ATP        -0.4429
     23 C8         -0.8620    2.5492    0.3743 C.ar      1 ATP         0.2964
     24 N7         -1.4419    3.5886   -0.2183 N.pl3     1 ATP        -0.4957
     25 C5         -0.4215    4.2614   -0.8294 C.ar      1 ATP        -0.1346
     26 C6         -0.4310    5.4918   -1.6405 C.ar      1 ATP         0.7213
     27 N6         -1.5302    6.1308   -1.8826 N.2       1 ATP        -0.8215
     28 N1          0.8382    5.8461   -2.0817 N.pl3     1 ATP        -0.8455
     29 C2          1.9625    5.0982   -1.7709 C.ar      1 ATP         0.6477
     30 N3          1.9930    4.0077   -1.0554 N.2       1 ATP        -0.5707
     31 C4          0.7483    3.6314   -0.6038 C.ar      1 ATP         0.2637
     32 HOG3        3.7027   -5.8460   -6.5336 H         1 ATP         0.4378
     33 H5'1        2.8432    0.3119   -2.6398 H         1 ATP         0.0340
     34 H5'2        1.2128   -0.0927   -2.0428 H         1 ATP         0.0340
     35 H4'         3.8044   -0.1397   -0.4040 H         1 ATP         0.0910
     36 H3'         1.6764   -1.7639    0.2728 H         1 ATP         0.0656
     37 HO3'        2.2232   -1.2979    2.3953 H         1 ATP         0.4386
     38 H2'        -0.0011    0.0027    0.0003 H         1 ATP         0.0788
     39 HO2'       -0.1563   -0.9855    2.0596 H         1 ATP         0.4363
     40 H1'         1.7826    1.9024    1.6451 H         1 ATP         0.1225
     41 H8         -1.4030    1.8165    0.9473 H         1 ATP         0.3824
     42 HN62       -1.3197    6.9504   -2.4583 H         1 ATP         0.4018
     43 H2          2.8857    5.5186   -2.1994 H         1 ATP         0.0652
     44 H44         0.9433    6.6815   -2.6502 H         1 ATP         0.4503
     45 H45        -2.4254    3.8199   -0.2108 H         1 ATP         0.5209
@<TRIPOS>BOND
     1    1    2 2
     2    1    3 1
     3    1    4 1
     4    1    8 1
     5    4   32 1
     6    5    6 2
     7    5    7 1
     8    5    8 1
     9    5   12 1
    10    9   10 2
    11    9   11 1
    12    9   12 1
    13    9   13 1
    14   13   14 1
    15   14   15 1
    16   14   33 1
    17   14   34 1
    18   15   16 1
    19   15   17 1
    20   15   35 1
    21   16   21 1
    22   17   18 1
    23   17   19 1
    24   17   36 1
    25   18   37 1
    26   19   20 1
    27   19   21 1
    28   19   38 1
    29   20   39 1
    30   21   22 1
    31   21   40 1
    32   22   23 ar
    33   22   31 ar
    34   23   24 ar
    35   23   41 1
    36   24   25 ar
    37   24   45 1
    38   25   26 ar
    39   25   31 ar
    40   26   27 2
    41   26   28 ar
    42   27   42 1
    43   28   29 ar
    44   28   44 1
    45   29   30 ar
    46   29   43 1
    47   30   31 ar
@<TRIPOS>SUBSTRUCTURE
     1 ATP         1 GROUP 0 A     ****
@<TRIPOS>MOLECULE
[[[3,4-dihydroxy-5-(6-imino-7,8-dihydro-1~{H}-purin-8-ylium-9-yl)tetrahydrofuran-2-yl]methoxy-oxido-phosphoryl]oxy-oxido-phosphoryl] hydrogen phosphate
   45    47     1     0     0
SMALL
USER_CHARGES

@<TRIPOS>ATOM
      1 PG         -4.3381   -6.0952    6.7089 P.3       1 ATP         1.5631
      2 O1G        -4.6207   -7.5520    7.0007 O.co2     1 ATP        -0.8806
      3 O2G        -5.3630   -5.2292    6.0109 O.co2     1 ATP        -0.8806
      4 O3G        -3.9023   -5.3624    8.1014 O.3       1 ATP        -0.8165
      5 PB         -2.5125   -6.4868    4.4160 P.3       1 ATP         1.6877
      6 O1B        -2.5404   -7.9988    4.3930 O.co2     1 ATP        -0.8727
      7 O2B        -3.2861   -5.6734    3.4023 O.co2     1 ATP        -0.8727
      8 O3B        -2.9175   -5.9786    5.9138 O.3       1 ATP        -0.8330
      9 PA          0.1785   -6.1253    3.2400 P.3       1 ATP         1.6036
     10 O1A         0.2930   -7.5794    2.8365 O.co2     1 ATP        -0.9062
     11 O2A         1.4000   -5.3442    3.6730 O.co2     1 ATP        -0.9062
     12 O3A        -0.9569   -5.9919    4.4074 O.3       1 ATP        -0.8166
     13 O5'        -0.5687   -5.2869    2.0510 O.3       1 ATP        -0.5510
     14 C5'        -0.7840   -3.8935    2.2172 C.3       1 ATP         0.2099
     15 C4'        -0.0724   -3.1466    1.1027 C.3       1 ATP         0.0598
     16 O4'        -0.8674   -3.1929   -0.0945 O.3       1 ATP        -0.3455
     17 C3'         0.1338   -1.6715    1.4027 C.3       1 ATP         0.0742
     18 O3'         1.2893   -1.4445    2.1808 O.3       1 ATP        -0.6025
     19 C2'         0.2158   -1.0724    0.0128 C.3       1 ATP         0.1145
     20 O2'         1.5141   -1.2448   -0.5513 O.3       1 ATP        -0.5835
     21 C1'        -0.7897   -1.9176   -0.7583 C.3       1 ATP         0.3776
     22 N9         -2.1040   -1.3333   -0.7704 N.pl3     1 ATP        -0.4429
     23 C8         -3.0590   -1.5123    0.1363 C.ar      1 ATP         0.2964
     24 N7         -4.1655   -0.8354   -0.1554 N.pl3     1 ATP        -0.4957
     25 C5         -3.8852   -0.1874   -1.3253 C.ar      1 ATP        -0.1346
     26 C6         -4.7113    0.7160   -2.1458 C.ar      1 ATP         0.7213
     27 N6         -5.9213    1.0209   -1.8021 N.2       1 ATP        -0.8215
     28 N1         -4.0411    1.1673   -3.2764 N.pl3     1 ATP        -0.8455
     29 C2         -2.7403    0.7865   -3.5638 C.ar      1 ATP         0.6477
     30 N3         -1.9921   -0.0108   -2.8519 N.2       1 ATP        -0.5707
     31 C4         -2.6302   -0.4747   -1.7239 C.ar      1 ATP         0.2637
     32 HOG3       -3.6847   -4.4061    8.0775 H         1 ATP         0.4378
     33 H5'1       -1.8598   -3.6968    2.1850 H         1 ATP         0.0340
     34 H5'2       -0.3933   -3.5903    3.1931 H         1 ATP         0.0340
     35 H4'         0.8874   -3.6466    0.8805 H         1 ATP         0.0910
     36 H3'        -0.7376   -1.2333    1.9867 H         1 ATP         0.0656
     37 HO3'        1.3408   -0.4870    2.3219 H         1 ATP         0.4386
     38 H2'        -0.0384   -0.0310    0.0096 H         1 ATP         0.0788
     39 HO2'        2.1463   -0.7958    0.0370 H         1 ATP         0.4363
     40 H1'        -0.4769   -2.1002   -1.8093 H         1 ATP         0.1225
     41 H8         -2.9569   -2.1323    1.0098 H         1 ATP         0.3824
     42 HN62       -6.3169    1.6552   -2.5012 H         1 ATP         0.4018
     43 H2         -2.3612    1.2343   -4.4957 H         1 ATP         0.0652
     44 H44        -4.5223    1.7976   -3.9117 H         1 ATP         0.4503
     45 H45        -5.0218   -0.8132    0.3804 H         1 ATP         0.5209
@<TRIPOS>BOND
     1    1    2 2
     2    1    3 1
     3    1    4 1
     4    1    8 1
     5    4   32 1
     6    5    6 2
     7    5    7 1
     8    5    8 1
     9    5   12 1
    10    9   10 2
    11    9   11 1
    12    9   12 1
    13    9   13 1
    14   13   14 1
    15   14   15 1
    16   14   33 1
    17   14   34 1
    18   15   16 1
    19   15   17 1
    20   15   35 1
    21   16   21 1
    22   17   18 1
    23   17   19 1
    24   17   36 1
    25   18   37 1
    26   19   20 1
    27   19   21 1
    28   19   38 1
    29   20   39 1
    30   21   22 1
    31   21   40 1
    32   22   23 ar
    33   22   31 ar
    34   23   24 ar
    35   23   41 1
    36   24   25 ar
    37   24   45 1
    38   25   26 ar
    39   25   31 ar
    40   26   27 2
    41   26   28 ar
    42   27   42 1
    43   28   29 ar
    44   28   44 1
    45   29   30 ar
    46   29   43 1
    47   30   31 ar
@<TRIPOS>SUBSTRUCTURE
     1 ATP         1 GROUP 0 A     ****
@<TRIPOS>MOLECULE
[[[3,4-dihydroxy-5-(6-imino-7,8-dihydro-1~{H}-purin-8-ylium-9-yl)tetrahydrofuran-2-yl]methoxy-oxido-phosphoryl]oxy-oxido-phosphoryl] hydrogen phosphate
   45    47     1     0     0
SMALL
USER_CHARGES

@<TRIPOS>ATOM
      1 PG         -1.0165   -1.5881   -7.2268 P.3       1 ATP         1.5631
      2 O1G        -0.2340   -0.5843   -8.0438 O.co2     1 ATP        -0.8806
      3 O2G        -2.5080   -1.4347   -7.0279 O.co2     1 ATP        -0.8806
      4 O3G        -0.7235   -3.0808   -7.8200 O.3       1 ATP        -0.8165
      5 PB         -0.6289   -2.8068   -4.5607 P.3       1 ATP         1.6877
      6 O1B        -1.9921   -2.4827   -3.9915 O.co2     1 ATP        -0.8727
      7 O2B        -0.2866   -4.2044   -5.0266 O.co2     1 ATP        -0.8727
      8 O3B        -0.3032   -1.7578   -5.7687 O.3       1 ATP        -0.8330
      9 PA          2.1372   -2.2718   -3.6563 P.3       1 ATP         1.6036
     10 O1A         2.4977   -1.2667   -4.7287 O.co2     1 ATP        -0.9062
     11 O2A         2.6452   -3.6953   -3.7281 O.co2     1 ATP        -0.9062
     12 O3A         0.5112   -2.3140   -3.5013 O.3       1 ATP        -0.8166
     13 O5'         2.5245   -1.6648   -2.1878 O.3       1 ATP        -0.5510
     14 C5'         2.2816   -0.2918   -1.9206 C.3       1 ATP         0.2099
     15 C4'         2.7248    0.0226   -0.4980 C.3       1 ATP         0.0598
     16 O4'         2.4697    1.4219   -0.2462 O.3       1 ATP        -0.3455
     17 C3'         1.9404   -0.7419    0.5596 C.3       1 ATP         0.0742
     18 O3'         2.7418   -0.8086    1.7389 O.3       1 ATP        -0.6025
     19 C2'         0.7477    0.1630    0.7858 C.3       1 ATP         0.1145
     20 O2'         0.1373   -0.0577    2.0407 O.3       1 ATP        -0.5835
     21 C1'         1.3733    1.5427    0.6747 C.3       1 ATP         0.3776
     22 N9          0.4520    2.5240    0.1767 N.pl3     1 ATP        -0.4429
     23 C8         -0.3347    3.3121    0.9021 C.ar      1 ATP         0.2964
     24 N7         -1.0768    4.1172    0.1479 N.pl3     1 ATP        -0.4957
     25 C5         -0.7318    3.8130   -1.1389 C.ar      1 ATP        -0.1346
     26 C6         -1.2094    4.3661   -2.4187 C.ar      1 ATP         0.7213
     27 N6         -2.1040    5.3007   -2.4569 N.2       1 ATP        -0.8215
     28 N1         -0.5949    3.7732   -3.5151 N.pl3     1 ATP        -0.8455
     29 C2          0.3569    2.7758   -3.3770 C.ar      1 ATP         0.6477
     30 N3          0.7934    2.2726   -2.2552 N.2       1 ATP        -0.5707
     31 C4          0.2019    2.8412   -1.1500 C.ar      1 ATP         0.2637
     32 HOG3       -1.1623   -3.8473   -7.3932 H         1 ATP         0.4378
     33 H5'1        2.8432    0.3119   -2.6398 H         1 ATP         0.0340
     34 H5'2        1.2128   -0.0927   -2.0428 H         1 ATP         0.0340
     35 H4'         3.8044   -0.1397   -0.4040 H         1 ATP         0.0910
     36 H3'         1.6764   -1.7639    0.2728 H         1 ATP         0.0656
     37 HO3'        2.2232   -1.2979    2.3953 H         1 ATP         0.4386
     38 H2'        -0.0011    0.0027    0.0003 H         1 ATP         0.0788
     39 HO2'       -0.6141    0.5574    2.1082 H         1 ATP         0.4363
     40 H1'         1.7826    1.9024    1.6451 H         1 ATP         0.1225
     41 H8         -0.3729    3.3063    1.9775 H         1 ATP         0.3824
     42 HN62       -2.2940    5.5408   -3.4335 H         1 ATP         0.4018
     43 H2          0.7413    2.4168   -4.3445 H         1 ATP         0.0652
     44 H44        -0.8531    4.0829   -4.4476 H         1 ATP         0.4503
     45 H45        -1.7471    4.8016    0.4689 H         1 ATP         0.5209
@<TRIPOS>BOND
     1    1    2 2
     2    1    3 1
     3    1    4 1
     4    1    8 1
     5    4   32 1
     6    5    6 2
     7    5    7 1
     8    5    8 1
     9    5   12 1
    10    9   10 2
    11    9   11 1
    12    9   12 1
    13    9   13 1
    14   13   14 1
    15   14   15 1
    16   14   33 1
    17   14   34 1
    18   15   16 1
    19   15   17 1
    20   15   35 1
    21   16   21 1
    22   17   18 1
    23   17   19 1
    24   17   36 1
    25   18   37 1
    26   19   20 1
    27   19   21 1
    28   19   38 1
    29   20   39 1
    30   21   22 1
    31   21   40 1
    32   22   23 ar
    33   22   31 ar
    34   23   24 ar
    35   23   41 1
    36   24   25 ar
    37   24   45 1
    38   25   26 ar
    39   25   31 ar
    40   26   27 2
    41   26   28 ar
    42   27   42 1
    43   28   29 ar
    44   28   44 1
    45   29   30 ar
    46   29   43 1
    47   30   31 ar
@<TRIPOS>SUBSTRUCTURE
     1 ATP         1 GROUP 0 A     ****
@<TRIPOS>MOLECULE
[[[3,4-dihydroxy-5-(6-imino-7,8-dihydro-1~{H}-purin-8-ylium-9-yl)tetrahydrofuran-2-yl]methoxy-oxido-phosphoryl]oxy-oxido-phosphoryl] hydrogen phosphate
   45    47     1     0     0
SMALL
USER_CHARGES

@<TRIPOS>ATOM
      1 PG         -2.7980   -6.5688    7.6079 P.3       1 ATP         1.5631
      2 O1G        -4.2072   -6.3788    8.1231 O.co2     1 ATP        -0.8806
      3 O2G        -1.6193   -6.5835    8.5556 O.co2     1 ATP        -0.8806
      4 O3G        -2.7547   -7.9290    6.7056 O.3       1 ATP        -0.8165
      5 PB         -2.3976   -3.8533    6.5084 P.3       1 ATP         1.6877
      6 O1B        -3.7535   -3.2886    6.8691 O.co2     1 ATP        -0.8727
      7 O2B        -1.1626   -3.4945    7.3044 O.co2     1 ATP        -0.8727
      8 O3B        -2.5131   -5.4798    6.4262 O.3       1 ATP        -0.8330
      9 PA         -3.0195   -3.8900    3.6158 P.3       1 ATP         1.6036
     10 O1A        -4.2922   -3.0740    3.6837 O.co2     1 ATP        -0.9062
     11 O2A        -3.0722   -5.3927    3.4462 O.co2     1 ATP        -0.9062
     12 O3A        -2.1088   -3.5532    4.9300 O.3       1 ATP        -0.8166
     13 O5'        -2.0415   -3.2792    2.4560 O.3       1 ATP        -0.5510
     14 C5'        -0.7840   -3.8935    2.2172 C.3       1 ATP         0.2099
     15 C4'        -0.0724   -3.1466    1.1027 C.3       1 ATP         0.0598
     16 O4'        -0.8674   -3.1929   -0.0945 O.3       1 ATP        -0.3455
     17 C3'         0.1338   -1.6715    1.4027 C.3       1 ATP         0.0742
     18 O3'         1.2893   -1.4445    2.1808 O.3       1 ATP        -0.6025
     19 C2'         0.2158   -1.0724    0.0128 C.3       1 ATP         0.1145
     20 O2'         1.5141   -1.2448   -0.5513 O.3       1 ATP        -0.5835
     21 C1'        -0.7897   -1.9176   -0.7583 C.3       1 ATP         0.3776
     22 N9         -2.1040   -1.3333   -0.7704 N.pl3     1 ATP        -0.4429
     23 C8         -3.2114   -1.8635   -0.2619 C.ar      1 ATP         0.2964
     24 N7         -4.2711   -1.0786   -0.4314 N.pl3     1 ATP        -0.4957
     25 C5         -3.7955    0.0193   -1.0917 C.ar      1 ATP        -0.1346
     26 C6         -4.4862    1.2344   -1.5586 C.ar      1 ATP         0.7213
     27 N6         -5.7554    1.4030   -1.3689 N.2       1 ATP        -0.8215
     28 N1         -3.6267    2.1218   -2.1949 N.pl3     1 ATP        -0.8455
     29 C2         -2.2761    1.8558   -2.3521 C.ar      1 ATP         0.6477
     30 N3         -1.6453    0.7881   -1.9466 N.2       1 ATP        -0.5707
     31 C4         -2.4722   -0.1108   -1.3117 C.ar      1 ATP         0.2637
     32 HOG3       -1.9022   -8.1915    6.2974 H         1 ATP         0.4378
     33 H5'1       -0.1949   -3.8603    3.1385 H         1 ATP         0.0340
     34 H5'2       -0.9496   -4.9375    1.9351 H         1 ATP         0.0340
     35 H4'         0.8874   -3.6466    0.8805 H         1 ATP         0.0910
     36 H3'        -0.7376   -1.2333    1.9867 H         1 ATP         0.0656
     37 HO3'        1.3408   -0.4870    2.3219 H         1 ATP         0.4386
     38 H2'        -0.0384   -0.0310    0.0096 H         1 ATP         0.0788
     39 HO2'        2.1463   -0.7958    0.0370 H         1 ATP         0.4363
     40 H1'        -0.4769   -2.1002   -1.8093 H         1 ATP         0.1225
     41 H8         -3.2547   -2.8183    0.2325 H         1 ATP         0.3824
     42 HN62       -6.0352    2.3041   -1.7656 H         1 ATP         0.4018
     43 H2         -1.7412    2.6624   -2.8773 H         1 ATP         0.0652
     44 H44        -4.0029    2.9939   -2.5557 H         1 ATP         0.4503
     45 H45        -5.2179   -1.2649   -0.1322 H         1 ATP         0.5209
@<TRIPOS>BOND
     1    1    2 2
     2    1    3 1
     3    1    4 1
     4    1    8 1
     5    4   32 1
     6    5    6 2
     7    5    7 1
     8    5    8 1
     9    5   12 1
    10    9   10 2
    11    9   11 1
    12    9   12 1
    13    9   13 1
    14   13   14 1
    15   14   15 1
    16   14   33 1
    17   14   34 1
    18   15   16 1
    19   15   17 1
    20   15   35 1
    21   16   21 1
    22   17   18 1
    23   17   19 1
    24   17   36 1
    25   18   37 1
    26   19   20 1
    27   19   21 1
    28   19   38 1
    29   20   39 1
    30   21   22 1
    31   21   40 1
    32   22   23 ar
    33   22   31 ar
    34   23   24 ar
    35   23   41 1
    36   24   25 ar
    37   24   45 1
    38   25   26 ar
    39   25   31 ar
    40   26   27 2
    41   26   28 ar
    42   27   42 1
    43   28   29 ar
    44   28   44 1
    45   29   30 ar
    46   29   43 1
    47   30   31 ar
@<TRIPOS>SUBSTRUCTURE
     1 ATP         1 GROUP 0 A     ****
@<TRIPOS>MOLECULE
[[[3,4-dihydroxy-5-(6-imino-7,8-dihydro-1~{H}-purin-8-ylium-9-yl)tetrahydrofuran-2-yl]methoxy-oxido-phosphoryl]oxy-oxido-phosphoryl] hydrogen phosphate
   45    47     1     0     0
SMALL
USER_CHARGES

@<TRIPOS>ATOM
      1 PG          5.9584   -5.6800   -3.1579 P.3       1 ATP         1.5631
      2 O1G         5.0595   -6.6686   -3.8664 O.co2     1 ATP        -0.8806
      3 O2G         6.4519   -5.9463   -1.7531 O.co2     1 ATP        -0.8806
      4 O3G         7.2484   -5.3759   -4.1116 O.3       1 ATP        -0.8165
      5 PB          4.7053   -3.3497   -4.4781 P.3       1 ATP         1.6877
      6 O1B         5.8765   -2.9602   -5.3521 O.co2     1 ATP        -0.8727
      7 O2B         3.5036   -4.0666   -5.0524 O.co2     1 ATP        -0.8727
      8 O3B         5.2644   -4.2035   -3.2037 O.3       1 ATP        -0.8330
      9 PA          3.4844   -0.6652   -4.2374 P.3       1 ATP         1.6036
     10 O1A         2.1278   -1.0207   -4.8063 O.co2     1 ATP        -0.9062
     11 O2A         4.4996    0.0867   -5.0702 O.co2     1 ATP        -0.9062
     12 O3A         4.1903   -2.0264   -3.6729 O.3       1 ATP        -0.8166
     13 O5'         3.2903    0.1346   -2.8241 O.3       1 ATP        -0.5510
     14 C5'         2.2816   -0.2918   -1.9206 C.3       1 ATP         0.2099
     15 C4'         2.7248    0.0226   -0.4980 C.3       1 ATP         0.0598
     16 O4'         2.4697    1.4219   -0.2462 O.3       1 ATP        -0.3455
     17 C3'         1.9404   -0.7419    0.5596 C.3       1 ATP         0.0742
     18 O3'         2.7418   -0.8086    1.7389 O.3       1 ATP        -0.6025
     19 C2'         0.7477    0.1630    0.7858 C.3       1 ATP         0.1145
     20 O2'         0.1373   -0.0577    2.0407 O.3       1 ATP        -0.5835
     21 C1'         1.3733    1.5427    0.6747 C.3       1 ATP         0.3776
     22 N9          0.4520    2.5240    0.1767 N.pl3     1 ATP        -0.4429
     23 C8         -0.8620    2.5492    0.3743 C.ar      1 ATP         0.2964
     24 N7         -1.4419    3.5886   -0.2183 N.pl3     1 ATP        -0.4957
     25 C5         -0.4215    4.2614   -0.8294 C.ar      1 ATP        -0.1346
     26 C6         -0.4310    5.4918   -1.6405 C.ar      1 ATP         0.7213
     27 N6         -1.5302    6.1308   -1.8826 N.2       1 ATP        -0.8215
     28 N1          0.8382    5.8461   -2.0817 N.pl3     1 ATP        -0.8455
     29 C2          1.9625    5.0982   -1.7709 C.ar      1 ATP         0.6477
     30 N3          1.9930    4.0077   -1.0554 N.2       1 ATP        -0.5707
     31 C4          0.7483    3.6314   -0.6038 C.ar      1 ATP         0.2637
     32 HOG3        7.9297   -4.7481   -3.7892 H         1 ATP         0.4378
     33 H5'1        1.3514    0.2330   -2.1577 H         1 ATP         0.0340
     34 H5'2        2.1280   -1.3678   -2.0460 H         1 ATP         0.0340
     35 H4'         3.8044   -0.1397   -0.4040 H         1 ATP         0.0910
     36 H3'         1.6764   -1.7639    0.2728 H         1 ATP         0.0656
     37 HO3'        2.2232   -1.2979    2.3953 H         1 ATP         0.4386
     38 H2'        -0.0011    0.0027    0.0003 H         1 ATP         0.0788
     39 HO2'       -0.1563   -0.9855    2.0596 H         1 ATP         0.4363
     40 H1'         1.7826    1.9024    1.6451 H         1 ATP         0.1225
     41 H8         -1.4030    1.8165    0.9473 H         1 ATP         0.3824
     42 HN62       -1.3197    6.9504   -2.4583 H         1 ATP         0.4018
     43 H2          2.8857    5.5186   -2.1994 H         1 ATP         0.0652
     44 H44         0.9433    6.6815   -2.6502 H         1 ATP         0.4503
     45 H45        -2.4254    3.8199   -0.2108 H         1 ATP         0.5209
@<TRIPOS>BOND
     1    1    2 2
     2    1    3 1
     3    1    4 1
     4    1    8 1
     5    4   32 1
     6    5    6 2
     7    5    7 1
     8    5    8 1
     9    5   12 1
    10    9   10 2
    11    9   11 1
    12    9   12 1
    13    9   13 1
    14   13   14 1
    15   14   15 1
    16   14   33 1
    17   14   34 1
    18   15   16 1
    19   15   17 1
    20   15   35 1
    21   16   21 1
    22   17   18 1
    23   17   19 1
    24   17   36 1
    25   18   37 1
    26   19   20 1
    27   19   21 1
    28   19   38 1
    29   20   39 1
    30   21   22 1
    31   21   40 1
    32   22   23 ar
    33   22   31 ar
    34   23   24 ar
    35   23   41 1
    36   24   25 ar
    37   24   45 1
    38   25   26 ar
    39   25   31 ar
    40   26   27 2
    41   26   28 ar
    42   27   42 1
    43   28   29 ar
    44   28   44 1
    45   29   30 ar
    46   29   43 1
    47   30   31 ar
@<TRIPOS>SUBSTRUCTURE
     1 ATP         1 GROUP 0 A     ****
@<TRIPOS>MOLECULE
[[[3,4-dihydroxy-5-(6-imino-7,8-dihydro-1~{H}-purin-8-ylium-9-yl)tetrahydrofuran-2-yl]methoxy-oxido-phosphoryl]oxy-oxido-phosphoryl] hydrogen phosphate
   45    47     1     0     0
SMALL
USER_CHARGES

@<TRIPOS>ATOM
      1 PG          2.9292   -5.0665   -6.1035 P.3       1 ATP         1.5631
      2 O1G         3.1099   -6.3497   -5.3236 O.co2     1 ATP        -0.8806
      3 O2G         3.6124   -4.8652   -7.4378 O.co2     1 ATP        -0.8806
      4 O3G         1.3303   -4.7958   -6.2937 O.3       1 ATP        -0.8165
      5 PB          4.7053   -3.3497   -4.4781 P.3       1 ATP         1.6877
      6 O1B         5.1291   -4.3956   -3.4711 O.co2     1 ATP        -0.8727
      7 O2B         5.6327   -2.9112   -5.5895 O.co2     1 ATP        -0.8727
      8 O3B         3.2798   -3.8016   -5.1336 O.3       1 ATP        -0.8330
      9 PA          3.4844   -0.6652   -4.2374 P.3       1 ATP         1.6036
     10 O1A         2.1278   -1.0207   -4.8063 O.co2     1 ATP        -0.9062
     11 O2A         4.4996    0.0867   -5.0702 O.co2     1 ATP        -0.9062
     12 O3A         4.1903   -2.0264   -3.6729 O.3       1 ATP        -0.8166
     13 O5'         3.2903    0.1346   -2.8241 O.3       1 ATP        -0.5510
     14 C5'         2.2816   -0.2918   -1.9206 C.3       1 ATP         0.2099
     15 C4'         2.7248    0.0226   -0.4980 C.3       1 ATP         0.0598
     16 O4'         2.4697    1.4219   -0.2462 O.3       1 ATP        -0.3455
     17 C3'         1.9404   -0.7419    0.5596 C.3       1 ATP         0.0742
     18 O3'         2.7418   -0.8086    1.7389 O.3       1 ATP        -0.6025
     19 C2'         0.7477    0.1630    0.7858 C.3       1 ATP         0.1145
     20 O2'         0.1373   -0.0577    2.0407 O.3       1 ATP        -0.5835
     21 C1'         1.3733    1.5427    0.6747 C.3       1 ATP         0.3776
     22 N9          0.4520    2.5240    0.1767 N.pl3     1 ATP        -0.4429
     23 C8         -0.8620    2.5492    0.3743 C.ar      1 ATP         0.2964
     24 N7         -1.4419    3.5886   -0.2183 N.pl3     1 ATP        -0.4957
     25 C5         -0.4215    4.2614   -0.8294 C.ar      1 ATP        -0.1346
     26 C6         -0.4310    5.4918   -1.6405 C.ar      1 ATP         0.7213
     27 N6         -1.5302    6.1308   -1.8826 N.2       1 ATP        -0.8215
     28 N1          0.8382    5.8461   -2.0817 N.pl3     1 ATP        -0.8455
     29 C2          1.9625    5.0982   -1.7709 C.ar      1 ATP         0.6477
     30 N3          1.9930    4.0077   -1.0554 N.2       1 ATP        -0.5707
     31 C4          0.7483    3.6314   -0.6038 C.ar      1 ATP         0.2637
     32 HOG3        1.0475   -3.9944   -6.7836 H         1 ATP         0.4378
     33 H5'1        1.3514    0.2330   -2.1577 H         1 ATP         0.0340
     34 H5'2        2.1280   -1.3678   -2.0460 H         1 ATP         0.0340
     35 H4'         3.8044   -0.1397   -0.4040 H         1 ATP         0.0910
     36 H3'         1.6764   -1.7639    0.2728 H         1 ATP         0.0656
     37 HO3'        3.5554   -1.2733    1.4914 H         1 ATP         0.4386
     38 H2'        -0.0011    0.0027    0.0003 H         1 ATP         0.0788
     39 HO2'       -0.1563   -0.9855    2.0596 H         1 ATP         0.4363
     40 H1'         1.7826    1.9024    1.6451 H         1 ATP         0.1225
     41 H8         -1.4030    1.8165    0.9473 H         1 ATP         0.3824
     42 HN62       -1.3197    6.9504   -2.4583 H         1 ATP         0.4018
     43 H2          2.8857    5.5186   -2.1994 H         1 ATP         0.0652
     44 H44         0.9433    6.6815   -2.6502 H         1 ATP         0.4503
     45 H45        -2.4254    3.8199   -0.2108 H         1 ATP         0.5209
@<TRIPOS>BOND
     1    1    2 2
     2    1    3 1
     3    1    4 1
     4    1    8 1
     5    4   32 1
     6    5    6 2
     7    5    7 1
     8    5    8 1
     9    5   12 1
    10    9   10 2
    11    9   11 1
    12    9   12 1
    13    9   13 1
    14   13   14 1
    15   14   15 1
    16   14   33 1
    17   14   34 1
    18   15   16 1
    19   15   17 1
    20   15   35 1
    21   16   21 1
    22   17   18 1
    23   17   19 1
    24   17   36 1
    25   18   37 1
    26   19   20 1
    27   19   21 1
    28   19   38 1
    29   20   39 1
    30   21   22 1
    31   21   40 1
    32   22   23 ar
    33   22   31 ar
    34   23   24 ar
    35   23   41 1
    36   24   25 ar
    37   24   45 1
    38   25   26 ar
    39   25   31 ar
    40   26   27 2
    41   26   28 ar
    42   27   42 1
    43   28   29 ar
    44   28   44 1
    45   29   30 ar
    46   29   43 1
    47   30   31 ar
@<TRIPOS>SUBSTRUCTURE
     1 ATP         1 GROUP 0 A     ****
@<TRIPOS>MOLECULE
[[[3,4-dihydroxy-5-(6-imino-7,8-dihydro-1~{H}-purin-8-ylium-9-yl)tetrahydrofuran-2-yl]methoxy-oxido-phosphoryl]oxy-oxido-phosphoryl] hydrogen phosphate
   45    47     1     0     0
SMALL
USER_CHARGES

@<TRIPOS>ATOM
      1 PG         -0.6224   -4.5575    9.3171 P.3       1 ATP         1.5631
      2 O1G         0.8086   -4.8005    9.7422 O.co2     1 ATP        -0.8806
      3 O2G        -1.7203   -5.5275    9.6933 O.co2     1 ATP        -0.8806
      4 O3G        -1.0617   -3.0626    9.8050 O.3       1 ATP        -0.8165
      5 PB         -1.9052   -3.8605    6.7457 P.3       1 ATP         1.6877
      6 O1B        -2.9308   -4.9719    6.7251 O.co2     1 ATP        -0.8727
      7 O2B        -2.2949   -2.4412    7.0940 O.co2     1 ATP        -0.8727
      8 O3B        -0.6630   -4.3124    7.7040 O.3       1 ATP        -0.8330
      9 PA         -0.3427   -5.0626    4.5392 P.3       1 ATP         1.6036
     10 O1A        -1.3607   -6.1049    4.1300 O.co2     1 ATP        -0.9062
     11 O2A         0.8758   -5.4478    5.3495 O.co2     1 ATP        -0.9062
     12 O3A        -1.1150   -3.8511    5.3173 O.3       1 ATP        -0.8166
     13 O5'         0.1618   -4.2444    3.2161 O.3       1 ATP        -0.5510
     14 C5'        -0.7840   -3.8935    2.2172 C.3       1 ATP         0.2099
     15 C4'        -0.0724   -3.1466    1.1027 C.3       1 ATP         0.0598
     16 O4'        -0.8674   -3.1929   -0.0945 O.3       1 ATP        -0.3455
     17 C3'         0.1338   -1.6715    1.4027 C.3       1 ATP         0.0742
     18 O3'         1.2893   -1.4445    2.1808 O.3       1 ATP        -0.6025
     19 C2'         0.2158   -1.0724    0.0128 C.3       1 ATP         0.1145
     20 O2'         1.5141   -1.2448   -0.5513 O.3       1 ATP        -0.5835
     21 C1'        -0.7897   -1.9176   -0.7583 C.3       1 ATP         0.3776
     22 N9         -2.1040   -1.3333   -0.7704 N.pl3     1 ATP        -0.4429
     23 C8         -3.0590   -1.5123    0.1363 C.ar      1 ATP         0.2964
     24 N7         -4.1655   -0.8354   -0.1554 N.pl3     1 ATP        -0.4957
     25 C5         -3.8852   -0.1874   -1.3253 C.ar      1 ATP        -0.1346
     26 C6         -4.7113    0.7160   -2.1458 C.ar      1 ATP         0.7213
     27 N6         -5.9213    1.0209   -1.8021 N.2       1 ATP        -0.8215
     28 N1         -4.0411    1.1673   -3.2764 N.pl3     1 ATP        -0.8455
     29 C2         -2.7403    0.7865   -3.5638 C.ar      1 ATP         0.6477
     30 N3         -1.9921   -0.0108   -2.8519 N.2       1 ATP        -0.5707
     31 C4         -2.6302   -0.4747   -1.7239 C.ar      1 ATP         0.2637
     32 HOG3       -1.9704   -2.7536    9.6024 H         1 ATP         0.4378
     33 H5'1       -1.2460   -4.8076    1.8325 H         1 ATP         0.0340
     34 H5'2       -1.5566   -3.2641    2.6688 H         1 ATP         0.0340
     35 H4'         0.8874   -3.6466    0.8805 H         1 ATP         0.0910
     36 H3'        -0.7376   -1.2333    1.9867 H         1 ATP         0.0656
     37 HO3'        1.1626   -1.9325    3.0084 H         1 ATP         0.4386
     38 H2'        -0.0384   -0.0310    0.0096 H         1 ATP         0.0788
     39 HO2'        2.1463   -0.7958    0.0370 H         1 ATP         0.4363
     40 H1'        -0.4769   -2.1002   -1.8093 H         1 ATP         0.1225
     41 H8         -2.9569   -2.1323    1.0098 H         1 ATP         0.3824
     42 HN62       -6.3169    1.6552   -2.5012 H         1 ATP         0.4018
     43 H2         -2.3612    1.2343   -4.4957 H         1 ATP         0.0652
     44 H44        -4.5223    1.7976   -3.9117 H         1 ATP         0.4503
     45 H45        -5.0218   -0.8132    0.3804 H         1 ATP         0.5209
@<TRIPOS>BOND
     1    1    2 2
     2    1    3 1
     3    1    4 1
     4    1    8 1
     5    4   32 1
     6    5    6 2
     7    5    7 1
     8    5    8 1
     9    5   12 1
    10    9   10 2
    11    9   11 1
    12    9   12 1
    13    9   13 1
    14   13   14 1
    15   14   15 1
    16   14   33 1
    17   14   34 1
    18   15   16 1
    19   15   17 1
    20   15   35 1
    21   16   21 1
    22   17   18 1
    23   17   19 1
    24   17   36 1
    25   18   37 1
    26   19   20 1
    27   19   21 1
    28   19   38 1
    29   20   39 1
    30   21   22 1
    31   21   40 1
    32   22   23 ar
    33   22   31 ar
    34   23   24 ar
    35   23   41 1
    36   24   25 ar
    37   24   45 1
    38   25   26 ar
    39   25   31 ar
    40   26   27 2
    41   26   28 ar
    42   27   42 1
    43   28   29 ar
    44   28   44 1
    45   29   30 ar
    46   29   43 1
    47   30   31 ar
@<TRIPOS>SUBSTRUCTURE
     1 ATP         1 GROUP 0 A     ****
@<TRIPOS>MOLECULE
[[[3,4-dihydroxy-5-(6-imino-7,8-dihydro-1~{H}-purin-8-ylium-9-yl)tetrahydrofuran-2-yl]methoxy-oxido-phosphoryl]oxy-oxido-phosphoryl] hydrogen phosphate
   45    47     1     0     0
SMALL
USER_CHARGES

@<TRIPOS>ATOM
      1 PG          4.2226   -3.2920   -8.0938 P.3       1 ATP         1.5631
      2 O1G         4.7151   -4.6936   -7.8103 O.co2     1 ATP        -0.8806
      3 O2G         5.0990   -2.2909   -8.8130 O.co2     1 ATP        -0.8806
      4 O3G         2.7963   -3.3929   -8.8820 O.3       1 ATP        -0.8165
      5 PB          2.9208   -1.2067   -6.4505 P.3       1 ATP         1.6877
      6 O1B         3.8732   -0.0759   -6.7697 O.co2     1 ATP        -0.8727
      7 O2B         1.5496   -1.2784   -7.0846 O.co2     1 ATP        -0.8727
      8 O3B         3.6891   -2.6250   -6.7030 O.3       1 ATP        -0.8330
      9 PA          3.8940   -1.4358   -3.6657 P.3       1 ATP         1.6036
     10 O1A         4.7102   -0.1616   -3.6432 O.co2     1 ATP        -0.9062
     11 O2A         4.5677   -2.7836   -3.8041 O.co2     1 ATP        -0.9062
     12 O3A         2.7545   -1.3091   -4.8299 O.3       1 ATP        -0.8166
     13 O5'         2.9216   -1.4836   -2.3516 O.3       1 ATP        -0.5510
     14 C5'         2.2816   -0.2918   -1.9206 C.3       1 ATP         0.2099
     15 C4'         2.7248    0.0226   -0.4980 C.3       1 ATP         0.0598
     16 O4'         2.4697    1.4219   -0.2462 O.3       1 ATP        -0.3455
     17 C3'         1.9404   -0.7419    0.5596 C.3       1 ATP         0.0742
     18 O3'         2.7418   -0.8086    1.7389 O.3       1 ATP        -0.6025
     19 C2'         0.7477    0.1630    0.7858 C.3       1 ATP         0.1145
     20 O2'         0.1373   -0.0577    2.0407 O.3       1 ATP        -0.5835
     21 C1'         1.3733    1.5427    0.6747 C.3       1 ATP         0.3776
     22 N9          0.4520    2.5240    0.1767 N.pl3     1 ATP        -0.4429
     23 C8         -0.2004    2.4829   -0.9804 C.ar      1 ATP         0.2964
     24 N7         -0.9830    3.5431   -1.1568 N.pl3     1 ATP        -0.4957
     25 C5         -0.8095    4.3012   -0.0331 C.ar      1 ATP        -0.1346
     26 C6         -1.4065    5.5904    0.3585 C.ar      1 ATP         0.7213
     27 N6         -2.2501    6.2030   -0.4084 N.2       1 ATP        -0.8215
     28 N1         -0.9585    6.0272    1.5994 N.pl3     1 ATP        -0.8455
     29 C2         -0.0508    5.3009    2.3532 C.ar      1 ATP         0.6477
     30 N3          0.4890    4.1592    2.0257 N.2       1 ATP        -0.5707
     31 C4          0.0637    3.7006    0.7995 C.ar      1 ATP         0.2637
     32 HOG3        2.3446   -2.5608   -9.1384 H         1 ATP         0.4378
     33 H5'1        2.5589    0.5217   -2.5976 H         1 ATP         0.0340
     34 H5'2        1.1982   -0.4388   -1.9617 H         1 ATP         0.0340
     35 H4'         3.8044   -0.1397   -0.4040 H         1 ATP         0.0910
     36 H3'         1.6764   -1.7639    0.2728 H         1 ATP         0.0656
     37 HO3'        2.2232   -1.2979    2.3953 H         1 ATP         0.4386
     38 H2'        -0.0011    0.0027    0.0003 H         1 ATP         0.0788
     39 HO2'       -0.1563   -0.9855    2.0596 H         1 ATP         0.4363
     40 H1'         1.7826    1.9024    1.6451 H         1 ATP         0.1225
     41 H8         -0.1116    1.6863   -1.6984 H         1 ATP         0.3824
     42 HN62       -2.5420    7.0730    0.0447 H         1 ATP         0.4018
     43 H2          0.1969    5.7893    3.3086 H         1 ATP         0.0652
     44 H44        -1.3097    6.9080    1.9642 H         1 ATP         0.4503
     45 H45        -1.5735    3.7351   -1.9538 H         1 ATP         0.5209
@<TRIPOS>BOND
     1    1    2 2
     2    1    3 1
     3    1    4 1
     4    1    8 1
     5    4   32 1
     6    5    6 2
     7    5    7 1
     8    5    8 1
     9    5   12 1
    10    9   10 2
    11    9   11 1
    12    9   12 1
    13    9   13 1
    14   13   14 1
    15   14   15 1
    16   14   33 1
    17   14   34 1
    18   15   16 1
    19   15   17 1
    20   15   35 1
    21   16   21 1
    22   17   18 1
    23   17   19 1
    24   17   36 1
    25   18   37 1
    26   19   20 1
    27   19   21 1
    28   19   38 1
    29   20   39 1
    30   21   22 1
    31   21   40 1
    32   22   23 ar
    33   22   31 ar
    34   23   24 ar
    35   23   41 1
    36   24   25 ar
    37   24   45 1
    38   25   26 ar
    39   25   31 ar
    40   26   27 2
    41   26   28 ar
    42   27   42 1
    43   28   29 ar
    44   28   44 1
    45   29   30 ar
    46   29   43 1
    47   30   31 ar
@<TRIPOS>SUBSTRUCTURE
     1 ATP         1 GROUP 0 A     ****
@<TRIPOS>MOLECULE
[[[3,4-dihydroxy-5-(6-imino-7,8-dihydro-1~{H}-purin-8-ylium-9-yl)tetrahydrofuran-2-yl]methoxy-oxido-phosphoryl]oxy-oxido-phosphoryl] hydrogen phosphate
   45    47     1     0     0
SMALL
USER_CHARGES

@<TRIPOS>ATOM
      1 PG         -1.5868   -0.4978   -7.1579 P.3       1 ATP         1.5631
      2 O1G        -1.3082    0.2328   -8.4526 O.co2     1 ATP        -0.8806
      3 O2G        -2.8733   -0.2674   -6.3966 O.co2     1 ATP        -0.8806
      4 O3G        -1.4197   -2.1006   -7.4205 O.3       1 ATP        -0.8165
      5 PB          1.2668   -0.5462   -6.3844 P.3       1 ATP         1.6877
      6 O1B         1.4926   -2.0333   -6.5426 O.co2     1 ATP        -0.8727
      7 O2B         1.7714    0.4370   -7.4171 O.co2     1 ATP        -0.8727
      8 O3B        -0.3262   -0.2814   -6.1440 O.3       1 ATP        -0.8330
      9 PA          3.3343   -0.0514   -4.3264 P.3       1 ATP         1.6036
     10 O1A         4.1298    0.9787   -5.0986 O.co2     1 ATP        -0.9062
     11 O2A         3.8296   -1.4756   -4.2002 O.co2     1 ATP        -0.9062
     12 O3A         1.8106   -0.0877   -4.9151 O.3       1 ATP        -0.8166
     13 O5'         3.0213    0.5153   -2.8245 O.3       1 ATP        -0.5510
     14 C5'         2.2816   -0.2918   -1.9206 C.3       1 ATP         0.2099
     15 C4'         2.7248    0.0226   -0.4980 C.3       1 ATP         0.0598
     16 O4'         2.4697    1.4219   -0.2462 O.3       1 ATP        -0.3455
     17 C3'         1.9404   -0.7419    0.5596 C.3       1 ATP         0.0742
     18 O3'         2.7418   -0.8086    1.7389 O.3       1 ATP        -0.6025
     19 C2'         0.7477    0.1630    0.7858 C.3       1 ATP         0.1145
     20 O2'         0.1373   -0.0577    2.0407 O.3       1 ATP        -0.5835
     21 C1'         1.3733    1.5427    0.6747 C.3       1 ATP         0.3776
     22 N9          0.4520    2.5240    0.1767 N.pl3     1 ATP        -0.4429
     23 C8         -0.6821    2.9098    0.7521 C.ar      1 ATP         0.2964
     24 N7         -1.3175    3.8384    0.0437 N.pl3     1 ATP        -0.4957
     25 C5         -0.5274    4.0494   -1.0512 C.ar      1 ATP        -0.1346
     26 C6         -0.6966    4.9597   -2.1977 C.ar      1 ATP         0.7213
     27 N6         -1.7259    5.7385   -2.2937 N.2       1 ATP        -0.8215
     28 N1          0.3493    4.8663   -3.1079 N.pl3     1 ATP        -0.8455
     29 C2          1.4148    4.0005   -2.9208 C.ar      1 ATP         0.6477
     30 N3          1.5838    3.1876   -1.9144 N.2       1 ATP        -0.5707
     31 C4          0.5619    3.2578   -0.9949 C.ar      1 ATP         0.2637
     32 HOG3       -1.5691   -2.7148   -6.6703 H         1 ATP         0.4378
     33 H5'1        1.2163   -0.0770   -2.0471 H         1 ATP         0.0340
     34 H5'2        2.4655   -1.3443   -2.1563 H         1 ATP         0.0340
     35 H4'         3.8044   -0.1397   -0.4040 H         1 ATP         0.0910
     36 H3'         1.6764   -1.7639    0.2728 H         1 ATP         0.0656
     37 HO3'        2.2232   -1.2979    2.3953 H         1 ATP         0.4386
     38 H2'        -0.0011    0.0027    0.0003 H         1 ATP         0.0788
     39 HO2'       -0.1563   -0.9855    2.0596 H         1 ATP         0.4363
     40 H1'         1.7826    1.9024    1.6451 H         1 ATP         0.1225
     41 H8         -1.0516    2.5207    1.6849 H         1 ATP         0.3824
     42 HN62       -1.6520    6.2842   -3.1564 H         1 ATP         0.4018
     43 H2          2.1542    4.0525   -3.7351 H         1 ATP         0.0652
     44 H44         0.3306    5.4533   -3.9370 H         1 ATP         0.4503
     45 H45        -2.1941    4.2838    0.2756 H         1 ATP         0.5209
@<TRIPOS>BOND
     1    1    2 2
     2    1    3 1
     3    1    4 1
     4    1    8 1
     5    4   32 1
     6    5    6 2
     7    5    7 1
     8    5    8 1
     9    5   12 1
    10    9   10 2
    11    9   11 1
    12    9   12 1
    13    9   13 1
    14   13   14 1
    15   14   15 1
    16   14   33 1
    17   14   34 1
    18   15   16 1
    19   15   17 1
    20   15   35 1
    21   16   21 1
    22   17   18 1
    23   17   19 1
    24   17   36 1
    25   18   37 1
    26   19   20 1
    27   19   21 1
    28   19   38 1
    29   20   39 1
    30   21   22 1
    31   21   40 1
    32   22   23 ar
    33   22   31 ar
    34   23   24 ar
    35   23   41 1
    36   24   25 ar
    37   24   45 1
    38   25   26 ar
    39   25   31 ar
    40   26   27 2
    41   26   28 ar
    42   27   42 1
    43   28   29 ar
    44   28   44 1
    45   29   30 ar
    46   29   43 1
    47   30   31 ar
@<TRIPOS>SUBSTRUCTURE
     1 ATP         1 GROUP 0 A     ****
@<TRIPOS>MOLECULE
[[[3,4-dihydroxy-5-(6-imino-7,8-dihydro-1~{H}-purin-8-ylium-9-yl)tetrahydrofuran-2-yl]methoxy-oxido-phosphoryl]oxy-oxido-phosphoryl] hydrogen phosphate
   45    47     1     0     0
SMALL
USER_CHARGES

@<TRIPOS>ATOM
      1 PG         -3.1937   -6.1593    7.8292 P.3       1 ATP         1.5631
      2 O1G        -2.4283   -5.3952    8.8864 O.co2     1 ATP        -0.8806
      3 O2G        -3.5626   -7.6118    8.0342 O.co2     1 ATP        -0.8806
      4 O3G        -4.5503   -5.3260    7.4670 O.3       1 ATP        -0.8165
      5 PB         -0.9632   -6.5736    5.9326 P.3       1 ATP         1.6877
      6 O1B         0.1103   -5.8635    6.7268 O.co2     1 ATP        -0.8727
      7 O2B        -1.0259   -8.0837    5.8758 O.co2     1 ATP        -0.8727
      8 O3B        -2.4213   -6.0064    6.3996 O.3       1 ATP        -0.8330
      9 PA          0.1785   -6.1253    3.2400 P.3       1 ATP         1.6036
     10 O1A         0.2930   -7.5794    2.8365 O.co2     1 ATP        -0.9062
     11 O2A         1.4000   -5.3442    3.6730 O.co2     1 ATP        -0.9062
     12 O3A        -0.9569   -5.9919    4.4074 O.3       1 ATP        -0.8166
     13 O5'        -0.5687   -5.2869    2.0510 O.3       1 ATP        -0.5510
     14 C5'        -0.7840   -3.8935    2.2172 C.3       1 ATP         0.2099
     15 C4'        -0.0724   -3.1466    1.1027 C.3       1 ATP         0.0598
     16 O4'        -0.8674   -3.1929   -0.0945 O.3       1 ATP        -0.3455
     17 C3'         0.1338   -1.6715    1.4027 C.3       1 ATP         0.0742
     18 O3'         1.2893   -1.4445    2.1808 O.3       1 ATP        -0.6025
     19 C2'         0.2158   -1.0724    0.0128 C.3       1 ATP         0.1145
     20 O2'         1.5141   -1.2448   -0.5513 O.3       1 ATP        -0.5835
     21 C1'        -0.7897   -1.9176   -0.7583 C.3       1 ATP         0.3776
     22 N9         -2.1040   -1.3333   -0.7704 N.pl3     1 ATP        -0.4429
     23 C8         -3.0590   -1.5123    0.1363 C.ar      1 ATP         0.2964
     24 N7         -4.1655   -0.8354   -0.1554 N.pl3     1 ATP        -0.4957
     25 C5         -3.8852   -0.1874   -1.3253 C.ar      1 ATP        -0.1346
     26 C6         -4.7113    0.7160   -2.1458 C.ar      1 ATP         0.7213
     27 N6         -5.9213    1.0209   -1.8021 N.2       1 ATP        -0.8215
     28 N1         -4.0411    1.1673   -3.2764 N.pl3     1 ATP        -0.8455
     29 C2         -2.7403    0.7865   -3.5638 C.ar      1 ATP         0.6477
     30 N3         -1.9921   -0.0108   -2.8519 N.2       1 ATP        -0.5707
     31 C4         -2.6302   -0.4747   -1.7239 C.ar      1 ATP         0.2637
     32 HOG3       -5.1585   -5.6949    6.7916 H         1 ATP         0.4378
     33 H5'1       -1.8598   -3.6968    2.1850 H         1 ATP         0.0340
     34 H5'2       -0.3933   -3.5903    3.1931 H         1 ATP         0.0340
     35 H4'         0.8874   -3.6466    0.8805 H         1 ATP         0.0910
     36 H3'        -0.7376   -1.2333    1.9867 H         1 ATP         0.0656
     37 HO3'        1.1626   -1.9325    3.0084 H         1 ATP         0.4386
     38 H2'        -0.0384   -0.0310    0.0096 H         1 ATP         0.0788
     39 HO2'        1.4998   -0.8412   -1.4369 H         1 ATP         0.4363
     40 H1'        -0.4769   -2.1002   -1.8093 H         1 ATP         0.1225
     41 H8         -2.9569   -2.1323    1.0098 H         1 ATP         0.3824
     42 HN62       -6.3169    1.6552   -2.5012 H         1 ATP         0.4018
     43 H2         -2.3612    1.2343   -4.4957 H         1 ATP         0.0652
     44 H44        -4.5223    1.7976   -3.9117 H         1 ATP         0.4503
     45 H45        -5.0218   -0.8132    0.3804 H         1 ATP         0.5209
@<TRIPOS>BOND
     1    1    2 2
     2    1    3 1
     3    1    4 1
     4    1    8 1
     5    4   32 1
     6    5    6 2
     7    5    7 1
     8    5    8 1
     9    5   12 1
    10    9   10 2
    11    9   11 1
    12    9   12 1
    13    9   13 1
    14   13   14 1
    15   14   15 1
    16   14   33 1
    17   14   34 1
    18   15   16 1
    19   15   17 1
    20   15   35 1
    21   16   21 1
    22   17   18 1
    23   17   19 1
    24   17   36 1
    25   18   37 1
    26   19   20 1
    27   19   21 1
    28   19   38 1
    29   20   39 1
    30   21   22 1
    31   21   40 1
    32   22   23 ar
    33   22   31 ar
    34   23   24 ar
    35   23   41 1
    36   24   25 ar
    37   24   45 1
    38   25   26 ar
    39   25   31 ar
    40   26   27 2
    41   26   28 ar
    42   27   42 1
    43   28   29 ar
    44   28   44 1
    45   29   30 ar
    46   29   43 1
    47   30   31 ar
@<TRIPOS>SUBSTRUCTURE
     1 ATP         1 GROUP 0 A     ****
@<TRIPOS>MOLECULE
[[[3,4-dihydroxy-5-(6-imino-7,8-dihydro-1~{H}-purin-8-ylium-9-yl)tetrahydrofuran-2-yl]methoxy-oxido-phosphoryl]oxy-oxido-phosphoryl] hydrogen phosphate
   45    47     1     0     0
SMALL
USER_CHARGES

@<TRIPOS>ATOM
      1 PG         -4.3396   -6.2514    6.8276 P.3       1 ATP         1.5631
      2 O1G        -5.2867   -5.1652    6.3685 O.co2     1 ATP        -0.8806
      3 O2G        -3.9469   -6.3763    8.2829 O.co2     1 ATP        -0.8806
      4 O3G        -4.9179   -7.6919    6.3211 O.3       1 ATP        -0.8165
      5 PB         -1.8282   -5.0472    5.8344 P.3       1 ATP         1.6877
      6 O1B        -2.4291   -3.7953    5.2349 O.co2     1 ATP        -0.8727
      7 O2B        -1.0893   -5.0073    7.1534 O.co2     1 ATP        -0.8727
      8 O3B        -2.9860   -6.1954    5.9174 O.3       1 ATP        -0.8330
      9 PA          0.5355   -5.2351    4.0645 P.3       1 ATP         1.6036
     10 O1A         0.9487   -6.1978    2.9723 O.co2     1 ATP        -0.9062
     11 O2A         1.4850   -4.8893    5.1908 O.co2     1 ATP        -0.9062
     12 O3A        -0.8693   -5.7537    4.7180 O.3       1 ATP        -0.8166
     13 O5'         0.0118   -3.8395    3.3916 O.3       1 ATP        -0.5510
     14 C5'        -0.7840   -3.8935    2.2172 C.3       1 ATP         0.2099
     15 C4'        -0.0724   -3.1466    1.1027 C.3       1 ATP         0.0598
     16 O4'        -0.8674   -3.1929   -0.0945 O.3       1 ATP        -0.3455
     17 C3'         0.1338   -1.6715    1.4027 C.3       1 ATP         0.0742
     18 O3'         1.2893   -1.4445    2.1808 O.3       1 ATP        -0.6025
     19 C2'         0.2158   -1.0724    0.0128 C.3       1 ATP         0.1145
     20 O2'         1.5141   -1.2448   -0.5513 O.3       1 ATP        -0.5835
     21 C1'        -0.7897   -1.9176   -0.7583 C.3       1 ATP         0.3776
     22 N9         -2.1040   -1.3333   -0.7704 N.pl3     1 ATP        -0.4429
     23 C8         -3.0590   -1.5123    0.1363 C.ar      1 ATP         0.2964
     24 N7         -4.1655   -0.8354   -0.1554 N.pl3     1 ATP        -0.4957
     25 C5         -3.8852   -0.1874   -1.3253 C.ar      1 ATP        -0.1346
     26 C6         -4.7113    0.7160   -2.1458 C.ar      1 ATP         0.7213
     27 N6         -5.9213    1.0209   -1.8021 N.2       1 ATP        -0.8215
     28 N1         -4.0411    1.1673   -3.2764 N.pl3     1 ATP        -0.8455
     29 C2         -2.7403    0.7865   -3.5638 C.ar      1 ATP         0.6477
     30 N3         -1.9921   -0.0108   -2.8519 N.2       1 ATP        -0.5707
     31 C4         -2.6302   -0.4747   -1.7239 C.ar      1 ATP         0.2637
     32 HOG3       -4.4111   -8.5022    6.5421 H         1 ATP         0.4378
     33 H5'1       -0.9348   -4.9415    1.9415 H         1 ATP         0.0340
     34 H5'2       -1.7548   -3.4350    2.4278 H         1 ATP         0.0340
     35 H4'         0.8874   -3.6466    0.8805 H         1 ATP         0.0910
     36 H3'        -0.7376   -1.2333    1.9867 H         1 ATP         0.0656
     37 HO3'        1.3408   -0.4870    2.3219 H         1 ATP         0.4386
     38 H2'        -0.0384   -0.0310    0.0096 H         1 ATP         0.0788
     39 HO2'        2.1463   -0.7958    0.0370 H         1 ATP         0.4363
     40 H1'        -0.4769   -2.1002   -1.8093 H         1 ATP         0.1225
     41 H8         -2.9569   -2.1323    1.0098 H         1 ATP         0.3824
     42 HN62       -6.3169    1.6552   -2.5012 H         1 ATP         0.4018
     43 H2         -2.3612    1.2343   -4.4957 H         1 ATP         0.0652
     44 H44        -4.5223    1.7976   -3.9117 H         1 ATP         0.4503
     45 H45        -5.0218   -0.8132    0.3804 H         1 ATP         0.5209
@<TRIPOS>BOND
     1    1    2 2
     2    1    3 1
     3    1    4 1
     4    1    8 1
     5    4   32 1
     6    5    6 2
     7    5    7 1
     8    5    8 1
     9    5   12 1
    10    9   10 2
    11    9   11 1
    12    9   12 1
    13    9   13 1
    14   13   14 1
    15   14   15 1
    16   14   33 1
    17   14   34 1
    18   15   16 1
    19   15   17 1
    20   15   35 1
    21   16   21 1
    22   17   18 1
    23   17   19 1
    24   17   36 1
    25   18   37 1
    26   19   20 1
    27   19   21 1
    28   19   38 1
    29   20   39 1
    30   21   22 1
    31   21   40 1
    32   22   23 ar
    33   22   31 ar
    34   23   24 ar
    35   23   41 1
    36   24   25 ar
    37   24   45 1
    38   25   26 ar
    39   25   31 ar
    40   26   27 2
    41   26   28 ar
    42   27   42 1
    43   28   29 ar
    44   28   44 1
    45   29   30 ar
    46   29   43 1
    47   30   31 ar
@<TRIPOS>SUBSTRUCTURE
     1 ATP         1 GROUP 0 A     ****
@<TRIPOS>MOLECULE
[[[3,4-dihydroxy-5-(6-imino-7,8-dihydro-1~{H}-purin-8-ylium-9-yl)tetrahydrofuran-2-yl]methoxy-oxido-phosphoryl]oxy-oxido-phosphoryl] hydrogen phosphate
   45    47     1     0     0
SMALL
USER_CHARGES

@<TRIPOS>ATOM
      1 PG          7.1304   -0.2227   -6.0144 P.3       1 ATP         1.5631
      2 O1G         7.5802   -1.4652   -6.7501 O.co2     1 ATP        -0.8806
      3 O2G         8.1371    0.7732   -5.4828 O.co2     1 ATP        -0.8806
      4 O3G         6.0572    0.5749   -6.9514 O.3       1 ATP        -0.8165
      5 PB          6.4334   -1.5035   -3.4420 P.3       1 ATP         1.6877
      6 O1B         6.7842   -2.9244   -3.8235 O.co2     1 ATP        -0.8727
      7 O2B         7.3438   -0.6828   -2.5559 O.co2     1 ATP        -0.8727
      8 O3B         6.1257   -0.6568   -4.8036 O.3       1 ATP        -0.8330
      9 PA          3.5300   -2.0730   -3.4114 P.3       1 ATP         1.6036
     10 O1A         3.6301   -3.5805   -3.5006 O.co2     1 ATP        -0.9062
     11 O2A         3.1564   -1.2495   -4.6246 O.co2     1 ATP        -0.9062
     12 O3A         4.9303   -1.4885   -2.8054 O.3       1 ATP        -0.8166
     13 O5'         2.5245   -1.6648   -2.1878 O.3       1 ATP        -0.5510
     14 C5'         2.2816   -0.2918   -1.9206 C.3       1 ATP         0.2099
     15 C4'         2.7248    0.0226   -0.4980 C.3       1 ATP         0.0598
     16 O4'         2.4697    1.4219   -0.2462 O.3       1 ATP        -0.3455
     17 C3'         1.9404   -0.7419    0.5596 C.3       1 ATP         0.0742
     18 O3'         2.7418   -0.8086    1.7389 O.3       1 ATP        -0.6025
     19 C2'         0.7477    0.1630    0.7858 C.3       1 ATP         0.1145
     20 O2'         0.1373   -0.0577    2.0407 O.3       1 ATP        -0.5835
     21 C1'         1.3733    1.5427    0.6747 C.3       1 ATP         0.3776
     22 N9          0.4520    2.5240    0.1767 N.pl3     1 ATP        -0.4429
     23 C8          0.5691    3.2215   -0.9485 C.ar      1 ATP         0.2964
     24 N7         -0.4499    4.0551   -1.1342 N.pl3     1 ATP        -0.4957
     25 C5         -1.2618    3.8674   -0.0512 C.ar      1 ATP        -0.1346
     26 C6         -2.5420    4.5007    0.3120 C.ar      1 ATP         0.7213
     27 N6         -3.0874    5.3993   -0.4432 N.2       1 ATP        -0.8215
     28 N1         -3.0494    4.0205    1.5133 N.pl3     1 ATP        -0.8455
     29 C2         -2.3933    3.0527    2.2567 C.ar      1 ATP         0.6477
     30 N3         -1.2611    2.4796    1.9536 N.2       1 ATP        -0.5707
     31 C4         -0.7334    2.9358    0.7669 C.ar      1 ATP         0.2637
     32 HOG3        5.6697    1.4092   -6.6109 H         1 ATP         0.4378
     33 H5'1        2.8432    0.3119   -2.6398 H         1 ATP         0.0340
     34 H5'2        1.2128   -0.0927   -2.0428 H         1 ATP         0.0340
     35 H4'         3.8044   -0.1397   -0.4040 H         1 ATP         0.0910
     36 H3'         1.6764   -1.7639    0.2728 H         1 ATP         0.0656
     37 HO3'        3.5554   -1.2733    1.4914 H         1 ATP         0.4386
     38 H2'        -0.0011    0.0027    0.0003 H         1 ATP         0.0788
     39 HO2'       -0.6141    0.5574    2.1082 H         1 ATP         0.4363
     40 H1'         1.7826    1.9024    1.6451 H         1 ATP         0.1225
     41 H8          1.3912    3.1285   -1.6365 H         1 ATP         0.3824
     42 HN62       -3.9637    5.7083   -0.0142 H         1 ATP         0.4018
     43 H2         -2.9317    2.7866    3.1796 H         1 ATP         0.0652
     44 H44        -3.9307    4.3923    1.8558 H         1 ATP         0.4503
     45 H45        -0.5835    4.6857   -1.9122 H         1 ATP         0.5209
@<TRIPOS>BOND
     1    1    2 2
     2    1    3 1
     3    1    4 1
     4    1    8 1
     5    4   32 1
     6    5    6 2
     7    5    7 1
     8    5    8 1
     9    5   12 1
    10    9   10 2
    11    9   11 1
    12    9   12 1
    13    9   13 1
    14   13   14 1
    15   14   15 1
    16   14   33 1
    17   14   34 1
    18   15   16 1
    19   15   17 1
    20   15   35 1
    21   16   21 1
    22   17   18 1
    23   17   19 1
    24   17   36 1
    25   18   37 1
    26   19   20 1
    27   19   21 1
    28   19   38 1
    29   20   39 1
    30   21   22 1
    31   21   40 1
    32   22   23 ar
    33   22   31 ar
    34   23   24 ar
    35   23   41 1
    36   24   25 ar
    37   24   45 1
    38   25   26 ar
    39   25   31 ar
    40   26   27 2
    41   26   28 ar
    42   27   42 1
    43   28   29 ar
    44   28   44 1
    45   29   30 ar
    46   29   43 1
    47   30   31 ar
@<TRIPOS>SUBSTRUCTURE
     1 ATP         1 GROUP 0 A     ****
@<TRIPOS>MOLECULE
[[[3,4-dihydroxy-5-(6-imino-7,8-dihydro-1~{H}-purin-8-ylium-9-yl)tetrahydrofuran-2-yl]methoxy-oxido-phosphoryl]oxy-oxido-phosphoryl] hydrogen phosphate
   45    47     1     0     0
SMALL
USER_CHARGES

@<TRIPOS>ATOM
      1 PG          6.7739   -3.2744   -6.5897 P.3       1 ATP         1.5631
      2 O1G         5.9251   -3.7894   -7.7306 O.co2     1 ATP        -0.8806
      3 O2G         7.7913   -4.1663   -5.9136 O.co2     1 ATP        -0.8806
      4 O3G         7.5243   -1.9086   -7.0770 O.3       1 ATP        -0.8165
      5 PB          4.7053   -3.3497   -4.4781 P.3       1 ATP         1.6877
      6 O1B         3.5691   -3.8725   -5.3285 O.co2     1 ATP        -0.8727
      7 O2B         5.4388   -4.2516   -3.5106 O.co2     1 ATP        -0.8727
      8 O3B         5.7986   -2.6275   -5.4521 O.3       1 ATP        -0.8330
      9 PA          3.4844   -0.6652   -4.2374 P.3       1 ATP         1.6036
     10 O1A         2.1278   -1.0207   -4.8063 O.co2     1 ATP        -0.9062
     11 O2A         4.4996    0.0867   -5.0702 O.co2     1 ATP        -0.9062
     12 O3A         4.1903   -2.0264   -3.6729 O.3       1 ATP        -0.8166
     13 O5'         3.2903    0.1346   -2.8241 O.3       1 ATP        -0.5510
     14 C5'         2.2816   -0.2918   -1.9206 C.3       1 ATP         0.2099
     15 C4'         2.7248    0.0226   -0.4980 C.3       1 ATP         0.0598
     16 O4'         2.4697    1.4219   -0.2462 O.3       1 ATP        -0.3455
     17 C3'         1.9404   -0.7419    0.5596 C.3       1 ATP         0.0742
     18 O3'         2.7418   -0.8086    1.7389 O.3       1 ATP        -0.6025
     19 C2'         0.7477    0.1630    0.7858 C.3       1 ATP         0.1145
     20 O2'         0.1373   -0.0577    2.0407 O.3       1 ATP        -0.5835
     21 C1'         1.3733    1.5427    0.6747 C.3       1 ATP         0.3776
     22 N9          0.4520    2.5240    0.1767 N.pl3     1 ATP        -0.4429
     23 C8         -0.8620    2.5492    0.3743 C.ar      1 ATP         0.2964
     24 N7         -1.4419    3.5886   -0.2183 N.pl3     1 ATP        -0.4957
     25 C5         -0.4215    4.2614   -0.8294 C.ar      1 ATP        -0.1346
     26 C6         -0.4310    5.4918   -1.6405 C.ar      1 ATP         0.7213
     27 N6         -1.5302    6.1308   -1.8826 N.2       1 ATP        -0.8215
     28 N1          0.8382    5.8461   -2.0817 N.pl3     1 ATP        -0.8455
     29 C2          1.9625    5.0982   -1.7709 C.ar      1 ATP         0.6477
     30 N3          1.9930    4.0077   -1.0554 N.2       1 ATP        -0.5707
     31 C4          0.7483    3.6314   -0.6038 C.ar      1 ATP         0.2637
     32 HOG3        8.1166   -1.4500   -6.4437 H         1 ATP         0.4378
     33 H5'1        1.3514    0.2330   -2.1577 H         1 ATP         0.0340
     34 H5'2        2.1280   -1.3678   -2.0460 H         1 ATP         0.0340
     35 H4'         3.8044   -0.1397   -0.4040 H         1 ATP         0.0910
     36 H3'         1.6764   -1.7639    0.2728 H         1 ATP         0.0656
     37 HO3'        3.5554   -1.2733    1.4914 H         1 ATP         0.4386
     38 H2'        -0.0011    0.0027    0.0003 H         1 ATP         0.0788
     39 HO2'       -0.1563   -0.9855    2.0596 H         1 ATP         0.4363
     40 H1'         1.7826    1.9024    1.6451 H         1 ATP         0.1225
     41 H8         -1.4030    1.8165    0.9473 H         1 ATP         0.3824
     42 HN62       -1.3197    6.9504   -2.4583 H         1 ATP         0.4018
     43 H2          2.8857    5.5186   -2.1994 H         1 ATP         0.0652
     44 H44         0.9433    6.6815   -2.6502 H         1 ATP         0.4503
     45 H45        -2.4254    3.8199   -0.2108 H         1 ATP         0.5209
@<TRIPOS>BOND
     1    1    2 2
     2    1    3 1
     3    1    4 1
     4    1    8 1
     5    4   32 1
     6    5    6 2
     7    5    7 1
     8    5    8 1
     9    5   12 1
    10    9   10 2
    11    9   11 1
    12    9   12 1
    13    9   13 1
    14   13   14 1
    15   14   15 1
    16   14   33 1
    17   14   34 1
    18   15   16 1
    19   15   17 1
    20   15   35 1
    21   16   21 1
    22   17   18 1
    23   17   19 1
    24   17   36 1
    25   18   37 1
    26   19   20 1
    27   19   21 1
    28   19   38 1
    29   20   39 1
    30   21   22 1
    31   21   40 1
    32   22   23 ar
    33   22   31 ar
    34   23   24 ar
    35   23   41 1
    36   24   25 ar
    37   24   45 1
    38   25   26 ar
    39   25   31 ar
    40   26   27 2
    41   26   28 ar
    42   27   42 1
    43   28   29 ar
    44   28   44 1
    45   29   30 ar
    46   29   43 1
    47   30   31 ar
@<TRIPOS>SUBSTRUCTURE
     1 ATP         1 GROUP 0 A     ****
@<TRIPOS>MOLECULE
[[[3,4-dihydroxy-5-(6-imino-7,8-dihydro-1~{H}-purin-8-ylium-9-yl)tetrahydrofuran-2-yl]methoxy-oxido-phosphoryl]oxy-oxido-phosphoryl] hydrogen phosphate
   45    47     1     0     0
SMALL
USER_CHARGES

@<TRIPOS>ATOM
      1 PG          2.1035    0.7429   -8.9107 P.3       1 ATP         1.5631
      2 O1G         0.7437    1.2357   -9.3528 O.co2     1 ATP        -0.8806
      3 O2G         2.7402   -0.4666   -9.5583 O.co2     1 ATP        -0.8806
      4 O3G         3.1570    1.9878   -8.9890 O.3       1 ATP        -0.8165
      5 PB          1.2668   -0.5462   -6.3844 P.3       1 ATP         1.6877
      6 O1B        -0.2090   -0.2286   -6.4760 O.co2     1 ATP        -0.8727
      7 O2B         1.7896   -1.9334   -6.6842 O.co2     1 ATP        -0.8727
      8 O3B         2.0914    0.5314   -7.2924 O.3       1 ATP        -0.8330
      9 PA          3.3343   -0.0514   -4.3264 P.3       1 ATP         1.6036
     10 O1A         4.1298    0.9787   -5.0986 O.co2     1 ATP        -0.9062
     11 O2A         3.8296   -1.4756   -4.2002 O.co2     1 ATP        -0.9062
     12 O3A         1.8106   -0.0877   -4.9151 O.3       1 ATP        -0.8166
     13 O5'         3.0213    0.5153   -2.8245 O.3       1 ATP        -0.5510
     14 C5'         2.2816   -0.2918   -1.9206 C.3       1 ATP         0.2099
     15 C4'         2.7248    0.0226   -0.4980 C.3       1 ATP         0.0598
     16 O4'         2.4697    1.4219   -0.2462 O.3       1 ATP        -0.3455
     17 C3'         1.9404   -0.7419    0.5596 C.3       1 ATP         0.0742
     18 O3'         2.7418   -0.8086    1.7389 O.3       1 ATP        -0.6025
     19 C2'         0.7477    0.1630    0.7858 C.3       1 ATP         0.1145
     20 O2'         0.1373   -0.0577    2.0407 O.3       1 ATP        -0.5835
     21 C1'         1.3733    1.5427    0.6747 C.3       1 ATP         0.3776
     22 N9          0.4520    2.5240    0.1767 N.pl3     1 ATP        -0.4429
     23 C8         -0.8620    2.5492    0.3743 C.ar      1 ATP         0.2964
     24 N7         -1.4419    3.5886   -0.2183 N.pl3     1 ATP        -0.4957
     25 C5         -0.4215    4.2614   -0.8294 C.ar      1 ATP        -0.1346
     26 C6         -0.4310    5.4918   -1.6405 C.ar      1 ATP         0.7213
     27 N6         -1.5302    6.1308   -1.8826 N.2       1 ATP        -0.8215
     28 N1          0.8382    5.8461   -2.0817 N.pl3     1 ATP        -0.8455
     29 C2          1.9625    5.0982   -1.7709 C.ar      1 ATP         0.6477
     30 N3          1.9930    4.0077   -1.0554 N.2       1 ATP        -0.5707
     31 C4          0.7483    3.6314   -0.6038 C.ar      1 ATP         0.2637
     32 HOG3        4.0898    1.8269   -8.7315 H         1 ATP         0.4378
     33 H5'1        1.2163   -0.0770   -2.0471 H         1 ATP         0.0340
     34 H5'2        2.4655   -1.3443   -2.1563 H         1 ATP         0.0340
     35 H4'         3.8044   -0.1397   -0.4040 H         1 ATP         0.0910
     36 H3'         1.6764   -1.7639    0.2728 H         1 ATP         0.0656
     37 HO3'        2.2232   -1.2979    2.3953 H         1 ATP         0.4386
     38 H2'        -0.0011    0.0027    0.0003 H         1 ATP         0.0788
     39 HO2'       -0.1563   -0.9855    2.0596 H         1 ATP         0.4363
     40 H1'         1.7826    1.9024    1.6451 H         1 ATP         0.1225
     41 H8         -1.4030    1.8165    0.9473 H         1 ATP         0.3824
     42 HN62       -1.3197    6.9504   -2.4583 H         1 ATP         0.4018
     43 H2          2.8857    5.5186   -2.1994 H         1 ATP         0.0652
     44 H44         0.9433    6.6815   -2.6502 H         1 ATP         0.4503
     45 H45        -2.4254    3.8199   -0.2108 H         1 ATP         0.5209
@<TRIPOS>BOND
     1    1    2 2
     2    1    3 1
     3    1    4 1
     4    1    8 1
     5    4   32 1
     6    5    6 2
     7    5    7 1
     8    5    8 1
     9    5   12 1
    10    9   10 2
    11    9   11 1
    12    9   12 1
    13    9   13 1
    14   13   14 1
    15   14   15 1
    16   14   33 1
    17   14   34 1
    18   15   16 1
    19   15   17 1
    20   15   35 1
    21   16   21 1
    22   17   18 1
    23   17   19 1
    24   17   36 1
    25   18   37 1
    26   19   20 1
    27   19   21 1
    28   19   38 1
    29   20   39 1
    30   21   22 1
    31   21   40 1
    32   22   23 ar
    33   22   31 ar
    34   23   24 ar
    35   23   41 1
    36   24   25 ar
    37   24   45 1
    38   25   26 ar
    39   25   31 ar
    40   26   27 2
    41   26   28 ar
    42   27   42 1
    43   28   29 ar
    44   28   44 1
    45   29   30 ar
    46   29   43 1
    47   30   31 ar
@<TRIPOS>SUBSTRUCTURE
     1 ATP         1 GROUP 0 A     ****
@<TRIPOS>MOLECULE
[[[3,4-dihydroxy-5-(6-imino-7,8-dihydro-1~{H}-purin-8-ylium-9-yl)tetrahydrofuran-2-yl]methoxy-oxido-phosphoryl]oxy-oxido-phosphoryl] hydrogen phosphate
   45    47     1     0     0
SMALL
USER_CHARGES

@<TRIPOS>ATOM
      1 PG          4.7154   -0.4877   -7.3073 P.3       1 ATP         1.5631
      2 O1G         3.2099   -0.4214   -7.4358 O.co2     1 ATP        -0.8806
      3 O2G         5.5006   -1.6149   -7.9402 O.co2     1 ATP        -0.8806
      4 O3G         5.3424    0.9310   -7.8171 O.3       1 ATP        -0.8165
      5 PB          4.8431   -1.4299   -4.5074 P.3       1 ATP         1.6877
      6 O1B         5.3599   -2.7929   -4.9108 O.co2     1 ATP        -0.8727
      7 O2B         5.2704   -0.7830   -3.2088 O.co2     1 ATP        -0.8727
      8 O3B         5.1189   -0.3828   -5.7294 O.3       1 ATP        -0.8330
      9 PA          2.1372   -2.2718   -3.6563 P.3       1 ATP         1.6036
     10 O1A         2.4859   -3.7437   -3.7017 O.co2     1 ATP        -0.9062
     11 O2A         0.7459   -1.7951   -4.0125 O.co2     1 ATP        -0.9062
     12 O3A         3.2120   -1.4489   -4.5713 O.3       1 ATP        -0.8166
     13 O5'         2.5245   -1.6648   -2.1878 O.3       1 ATP        -0.5510
     14 C5'         2.2816   -0.2918   -1.9206 C.3       1 ATP         0.2099
     15 C4'         2.7248    0.0226   -0.4980 C.3       1 ATP         0.0598
     16 O4'         2.4697    1.4219   -0.2462 O.3       1 ATP        -0.3455
     17 C3'         1.9404   -0.7419    0.5596 C.3       1 ATP         0.0742
     18 O3'         2.7418   -0.8086    1.7389 O.3       1 ATP        -0.6025
     19 C2'         0.7477    0.1630    0.7858 C.3       1 ATP         0.1145
     20 O2'         0.1373   -0.0577    2.0407 O.3       1 ATP        -0.5835
     21 C1'         1.3733    1.5427    0.6747 C.3       1 ATP         0.3776
     22 N9          0.4520    2.5240    0.1767 N.pl3     1 ATP        -0.4429
     23 C8         -0.3347    3.3121    0.9021 C.ar      1 ATP         0.2964
     24 N7         -1.0768    4.1172    0.1479 N.pl3     1 ATP        -0.4957
     25 C5         -0.7318    3.8130   -1.1389 C.ar      1 ATP        -0.1346
     26 C6         -1.2094    4.3661   -2.4187 C.ar      1 ATP         0.7213
     27 N6         -2.1040    5.3007   -2.4569 N.2       1 ATP        -0.8215
     28 N1         -0.5949    3.7732   -3.5151 N.pl3     1 ATP        -0.8455
     29 C2          0.3569    2.7758   -3.3770 C.ar      1 ATP         0.6477
     30 N3          0.7934    2.2726   -2.2552 N.2       1 ATP        -0.5707
     31 C4          0.2019    2.8412   -1.1500 C.ar      1 ATP         0.2637
     32 HOG3        6.3164    1.0457   -7.7953 H         1 ATP         0.4378
     33 H5'1        2.8432    0.3119   -2.6398 H         1 ATP         0.0340
     34 H5'2        1.2128   -0.0927   -2.0428 H         1 ATP         0.0340
     35 H4'         3.8044   -0.1397   -0.4040 H         1 ATP         0.0910
     36 H3'         1.6764   -1.7639    0.2728 H         1 ATP         0.0656
     37 HO3'        2.2232   -1.2979    2.3953 H         1 ATP         0.4386
     38 H2'        -0.0011    0.0027    0.0003 H         1 ATP         0.0788
     39 HO2'       -0.6141    0.5574    2.1082 H         1 ATP         0.4363
     40 H1'         1.7826    1.9024    1.6451 H         1 ATP         0.1225
     41 H8         -0.3729    3.3063    1.9775 H         1 ATP         0.3824
     42 HN62       -2.2940    5.5408   -3.4335 H         1 ATP         0.4018
     43 H2          0.7413    2.4168   -4.3445 H         1 ATP         0.0652
     44 H44        -0.8531    4.0829   -4.4476 H         1 ATP         0.4503
     45 H45        -1.7471    4.8016    0.4689 H         1 ATP         0.5209
@<TRIPOS>BOND
     1    1    2 2
     2    1    3 1
     3    1    4 1
     4    1    8 1
     5    4   32 1
     6    5    6 2
     7    5    7 1
     8    5    8 1
     9    5   12 1
    10    9   10 2
    11    9   11 1
    12    9   12 1
    13    9   13 1
    14   13   14 1
    15   14   15 1
    16   14   33 1
    17   14   34 1
    18   15   16 1
    19   15   17 1
    20   15   35 1
    21   16   21 1
    22   17   18 1
    23   17   19 1
    24   17   36 1
    25   18   37 1
    26   19   20 1
    27   19   21 1
    28   19   38 1
    29   20   39 1
    30   21   22 1
    31   21   40 1
    32   22   23 ar
    33   22   31 ar
    34   23   24 ar
    35   23   41 1
    36   24   25 ar
    37   24   45 1
    38   25   26 ar
    39   25   31 ar
    40   26   27 2
    41   26   28 ar
    42   27   42 1
    43   28   29 ar
    44   28   44 1
    45   29   30 ar
    46   29   43 1
    47   30   31 ar
@<TRIPOS>SUBSTRUCTURE
     1 ATP         1 GROUP 0 A     ****
@<TRIPOS>MOLECULE
[[[3,4-dihydroxy-5-(6-imino-7,8-dihydro-1~{H}-purin-8-ylium-9-yl)tetrahydrofuran-2-yl]methoxy-oxido-phosphoryl]oxy-oxido-phosphoryl] hydrogen phosphate
   45    47     1     0     0
SMALL
USER_CHARGES

@<TRIPOS>ATOM
      1 PG         -0.5076   -5.0358   -6.3566 P.3       1 ATP         1.5631
      2 O1G        -0.3747   -4.5810   -7.7929 O.co2     1 ATP        -0.8806
      3 O2G        -1.8503   -5.4418   -5.7909 O.co2     1 ATP        -0.8806
      4 O3G         0.5529   -6.2497   -6.0967 O.3       1 ATP        -0.8165
      5 PB         -0.3144   -2.3805   -5.0699 P.3       1 ATP         1.6877
      6 O1B        -0.1515   -1.5585   -6.3290 O.co2     1 ATP        -0.8727
      7 O2B        -1.6307   -2.4216   -4.3261 O.co2     1 ATP        -0.8727
      8 O3B         0.1599   -3.9118   -5.3795 O.3       1 ATP        -0.8330
      9 PA          1.2681   -2.6345   -2.5827 P.3       1 ATP         1.6036
     10 O1A         1.7719   -4.0417   -2.8198 O.co2     1 ATP        -0.9062
     11 O2A         0.1424   -2.3700   -1.6068 O.co2     1 ATP        -0.9062
     12 O3A         0.8674   -1.9707   -4.0210 O.3       1 ATP        -0.8166
     13 O5'         2.5245   -1.6648   -2.1878 O.3       1 ATP        -0.5510
     14 C5'         2.2816   -0.2918   -1.9206 C.3       1 ATP         0.2099
     15 C4'         2.7248    0.0226   -0.4980 C.3       1 ATP         0.0598
     16 O4'         2.4697    1.4219   -0.2462 O.3       1 ATP        -0.3455
     17 C3'         1.9404   -0.7419    0.5596 C.3       1 ATP         0.0742
     18 O3'         2.7418   -0.8086    1.7389 O.3       1 ATP        -0.6025
     19 C2'         0.7477    0.1630    0.7858 C.3       1 ATP         0.1145
     20 O2'         0.1373   -0.0577    2.0407 O.3       1 ATP        -0.5835
     21 C1'         1.3733    1.5427    0.6747 C.3       1 ATP         0.3776
     22 N9          0.4520    2.5240    0.1767 N.pl3     1 ATP        -0.4429
     23 C8          0.5691    3.2215   -0.9485 C.ar      1 ATP         0.2964
     24 N7         -0.4499    4.0551   -1.1342 N.pl3     1 ATP        -0.4957
     25 C5         -1.2618    3.8674   -0.0512 C.ar      1 ATP        -0.1346
     26 C6         -2.5420    4.5007    0.3120 C.ar      1 ATP         0.7213
     27 N6         -3.0874    5.3993   -0.4432 N.2       1 ATP        -0.8215
     28 N1         -3.0494    4.0205    1.5133 N.pl3     1 ATP        -0.8455
     29 C2         -2.3933    3.0527    2.2567 C.ar      1 ATP         0.6477
     30 N3         -1.2611    2.4796    1.9536 N.2       1 ATP        -0.5707
     31 C4         -0.7334    2.9358    0.7669 C.ar      1 ATP         0.2637
     32 HOG3        0.5885   -6.6556   -5.2044 H         1 ATP         0.4378
     33 H5'1        2.8432    0.3119   -2.6398 H         1 ATP         0.0340
     34 H5'2        1.2128   -0.0927   -2.0428 H         1 ATP         0.0340
     35 H4'         3.8044   -0.1397   -0.4040 H         1 ATP         0.0910
     36 H3'         1.6764   -1.7639    0.2728 H         1 ATP         0.0656
     37 HO3'        2.2232   -1.2979    2.3953 H         1 ATP         0.4386
     38 H2'        -0.0011    0.0027    0.0003 H         1 ATP         0.0788
     39 HO2'       -0.1563   -0.9855    2.0596 H         1 ATP         0.4363
     40 H1'         1.7826    1.9024    1.6451 H         1 ATP         0.1225
     41 H8          1.3912    3.1285   -1.6365 H         1 ATP         0.3824
     42 HN62       -3.9637    5.7083   -0.0142 H         1 ATP         0.4018
     43 H2         -2.9317    2.7866    3.1796 H         1 ATP         0.0652
     44 H44        -3.9307    4.3923    1.8558 H         1 ATP         0.4503
     45 H45        -0.5835    4.6857   -1.9122 H         1 ATP         0.5209
@<TRIPOS>BOND
     1    1    2 2
     2    1    3 1
     3    1    4 1
     4    1    8 1
     5    4   32 1
     6    5    6 2
     7    5    7 1
     8    5    8 1
     9    5   12 1
    10    9   10 2
    11    9   11 1
    12    9   12 1
    13    9   13 1
    14   13   14 1
    15   14   15 1
    16   14   33 1
    17   14   34 1
    18   15   16 1
    19   15   17 1
    20   15   35 1
    21   16   21 1
    22   17   18 1
    23   17   19 1
    24   17   36 1
    25   18   37 1
    26   19   20 1
    27   19   21 1
    28   19   38 1
    29   20   39 1
    30   21   22 1
    31   21   40 1
    32   22   23 ar
    33   22   31 ar
    34   23   24 ar
    35   23   41 1
    36   24   25 ar
    37   24   45 1
    38   25   26 ar
    39   25   31 ar
    40   26   27 2
    41   26   28 ar
    42   27   42 1
    43   28   29 ar
    44   28   44 1
    45   29   30 ar
    46   29   43 1
    47   30   31 ar
@<TRIPOS>SUBSTRUCTURE
     1 ATP         1 GROUP 0 A     ****
@<TRIPOS>MOLECULE
[[[3,4-dihydroxy-5-(6-imino-7,8-dihydro-1~{H}-purin-8-ylium-9-yl)tetrahydrofuran-2-yl]methoxy-oxido-phosphoryl]oxy-oxido-phosphoryl] hydrogen phosphate
   45    47     1     0     0
SMALL
USER_CHARGES

@<TRIPOS>ATOM
      1 PG         -5.2699   -8.7618    1.7091 P.3       1 ATP         1.5631
      2 O1G        -4.7629   -9.3212    0.3986 O.co2     1 ATP        -0.8806
      3 O2G        -6.7508   -8.5750    1.9535 O.co2     1 ATP        -0.8806
      4 O3G        -4.6519   -9.6552    2.9281 O.3       1 ATP        -0.8165
      5 PB         -4.5438   -6.4122    3.3509 P.3       1 ATP         1.6877
      6 O1B        -5.9307   -5.8237    3.4838 O.co2     1 ATP        -0.8727
      7 O2B        -3.8970   -7.1595    4.4958 O.co2     1 ATP        -0.8727
      8 O3B        -4.5011   -7.3559    2.0193 O.3       1 ATP        -0.8330
      9 PA         -3.0195   -3.8900    3.6158 P.3       1 ATP         1.6036
     10 O1A        -2.1890   -4.2938    4.8148 O.co2     1 ATP        -0.9062
     11 O2A        -4.2037   -2.9613    3.7725 O.co2     1 ATP        -0.9062
     12 O3A        -3.5243   -5.2409    2.8476 O.3       1 ATP        -0.8166
     13 O5'        -2.0415   -3.2792    2.4560 O.3       1 ATP        -0.5510
     14 C5'        -0.7840   -3.8935    2.2172 C.3       1 ATP         0.2099
     15 C4'        -0.0724   -3.1466    1.1027 C.3       1 ATP         0.0598
     16 O4'        -0.8674   -3.1929   -0.0945 O.3       1 ATP        -0.3455
     17 C3'         0.1338   -1.6715    1.4027 C.3       1 ATP         0.0742
     18 O3'         1.2893   -1.4445    2.1808 O.3       1 ATP        -0.6025
     19 C2'         0.2158   -1.0724    0.0128 C.3       1 ATP         0.1145
     20 O2'         1.5141   -1.2448   -0.5513 O.3       1 ATP        -0.5835
     21 C1'        -0.7897   -1.9176   -0.7583 C.3       1 ATP         0.3776
     22 N9         -2.1040   -1.3333   -0.7704 N.pl3     1 ATP        -0.4429
     23 C8         -3.2114   -1.8635   -0.2619 C.ar      1 ATP         0.2964
     24 N7         -4.2711   -1.0786   -0.4314 N.pl3     1 ATP        -0.4957
     25 C5         -3.7955    0.0193   -1.0917 C.ar      1 ATP        -0.1346
     26 C6         -4.4862    1.2344   -1.5586 C.ar      1 ATP         0.7213
     27 N6         -5.7554    1.4030   -1.3689 N.2       1 ATP        -0.8215
     28 N1         -3.6267    2.1218   -2.1949 N.pl3     1 ATP        -0.8455
     29 C2         -2.2761    1.8558   -2.3521 C.ar      1 ATP         0.6477
     30 N3         -1.6453    0.7881   -1.9466 N.2       1 ATP        -0.5707
     31 C4         -2.4722   -0.1108   -1.3117 C.ar      1 ATP         0.2637
     32 HOG3       -4.8895   -9.4160    3.8492 H         1 ATP         0.4378
     33 H5'1       -0.1949   -3.8603    3.1385 H         1 ATP         0.0340
     34 H5'2       -0.9496   -4.9375    1.9351 H         1 ATP         0.0340
     35 H4'         0.8874   -3.6466    0.8805 H         1 ATP         0.0910
     36 H3'        -0.7376   -1.2333    1.9867 H         1 ATP         0.0656
     37 HO3'        1.3408   -0.4870    2.3219 H         1 ATP         0.4386
     38 H2'        -0.0384   -0.0310    0.0096 H         1 ATP         0.0788
     39 HO2'        2.1463   -0.7958    0.0370 H         1 ATP         0.4363
     40 H1'        -0.4769   -2.1002   -1.8093 H         1 ATP         0.1225
     41 H8         -3.2547   -2.8183    0.2325 H         1 ATP         0.3824
     42 HN62       -6.0352    2.3041   -1.7656 H         1 ATP         0.4018
     43 H2         -1.7412    2.6624   -2.8773 H         1 ATP         0.0652
     44 H44        -4.0029    2.9939   -2.5557 H         1 ATP         0.4503
     45 H45        -5.2179   -1.2649   -0.1322 H         1 ATP         0.5209
@<TRIPOS>BOND
     1    1    2 2
     2    1    3 1
     3    1    4 1
     4    1    8 1
     5    4   32 1
     6    5    6 2
     7    5    7 1
     8    5    8 1
     9    5   12 1
    10    9   10 2
    11    9   11 1
    12    9   12 1
    13    9   13 1
    14   13   14 1
    15   14   15 1
    16   14   33 1
    17   14   34 1
    18   15   16 1
    19   15   17 1
    20   15   35 1
    21   16   21 1
    22   17   18 1
    23   17   19 1
    24   17   36 1
    25   18   37 1
    26   19   20 1
    27   19   21 1
    28   19   38 1
    29   20   39 1
    30   21   22 1
    31   21   40 1
    32   22   23 ar
    33   22   31 ar
    34   23   24 ar
    35   23   41 1
    36   24   25 ar
    37   24   45 1
    38   25   26 ar
    39   25   31 ar
    40   26   27 2
    41   26   28 ar
    42   27   42 1
    43   28   29 ar
    44   28   44 1
    45   29   30 ar
    46   29   43 1
    47   30   31 ar
@<TRIPOS>SUBSTRUCTURE
     1 ATP         1 GROUP 0 A     ****
@<TRIPOS>MOLECULE
[[[3,4-dihydroxy-5-(6-imino-7,8-dihydro-1~{H}-purin-8-ylium-9-yl)tetrahydrofuran-2-yl]methoxy-oxido-phosphoryl]oxy-oxido-phosphoryl] hydrogen phosphate
   45    47     1     0     0
SMALL
USER_CHARGES

@<TRIPOS>ATOM
      1 PG          2.8187   -4.8865   -2.0243 P.3       1 ATP         1.5631
      2 O1G         1.6418   -5.5878   -2.6649 O.co2     1 ATP        -0.8806
      3 O2G         2.6215   -3.6380   -1.1935 O.co2     1 ATP        -0.8806
      4 O3G         3.6498   -5.9749   -1.1351 O.3       1 ATP        -0.8165
      5 PB          3.8904   -3.5880   -4.4552 P.3       1 ATP         1.6877
      6 O1B         5.2574   -3.5534   -5.1014 O.co2     1 ATP        -0.8727
      7 O2B         2.6504   -3.9040   -5.2616 O.co2     1 ATP        -0.8727
      8 O3B         3.9459   -4.5891   -3.1666 O.3       1 ATP        -0.8330
      9 PA          3.4844   -0.6652   -4.2374 P.3       1 ATP         1.6036
     10 O1A         2.2033   -0.5901   -5.0397 O.co2     1 ATP        -0.9062
     11 O2A         4.8033   -0.2388   -4.8443 O.co2     1 ATP        -0.9062
     12 O3A         3.6528   -2.1836   -3.6578 O.3       1 ATP        -0.8166
     13 O5'         3.2903    0.1346   -2.8241 O.3       1 ATP        -0.5510
     14 C5'         2.2816   -0.2918   -1.9206 C.3       1 ATP         0.2099
     15 C4'         2.7248    0.0226   -0.4980 C.3       1 ATP         0.0598
     16 O4'         2.4697    1.4219   -0.2462 O.3       1 ATP        -0.3455
     17 C3'         1.9404   -0.7419    0.5596 C.3       1 ATP         0.0742
     18 O3'         2.7418   -0.8086    1.7389 O.3       1 ATP        -0.6025
     19 C2'         0.7477    0.1630    0.7858 C.3       1 ATP         0.1145
     20 O2'         0.1373   -0.0577    2.0407 O.3       1 ATP        -0.5835
     21 C1'         1.3733    1.5427    0.6747 C.3       1 ATP         0.3776
     22 N9          0.4520    2.5240    0.1767 N.pl3     1 ATP        -0.4429
     23 C8          0.5691    3.2215   -0.9485 C.ar      1 ATP         0.2964
     24 N7         -0.4499    4.0551   -1.1342 N.pl3     1 ATP        -0.4957
     25 C5         -1.2618    3.8674   -0.0512 C.ar      1 ATP        -0.1346
     26 C6         -2.5420    4.5007    0.3120 C.ar      1 ATP         0.7213
     27 N6         -3.0874    5.3993   -0.4432 N.2       1 ATP        -0.8215
     28 N1         -3.0494    4.0205    1.5133 N.pl3     1 ATP        -0.8455
     29 C2         -2.3933    3.0527    2.2567 C.ar      1 ATP         0.6477
     30 N3         -1.2611    2.4796    1.9536 N.2       1 ATP        -0.5707
     31 C4         -0.7334    2.9358    0.7669 C.ar      1 ATP         0.2637
     32 HOG3        4.4484   -5.6716   -0.6529 H         1 ATP         0.4378
     33 H5'1        1.3514    0.2330   -2.1577 H         1 ATP         0.0340
     34 H5'2        2.1280   -1.3678   -2.0460 H         1 ATP         0.0340
     35 H4'         3.8044   -0.1397   -0.4040 H         1 ATP         0.0910
     36 H3'         1.6764   -1.7639    0.2728 H         1 ATP         0.0656
     37 HO3'        2.2232   -1.2979    2.3953 H         1 ATP         0.4386
     38 H2'        -0.0011    0.0027    0.0003 H         1 ATP         0.0788
     39 HO2'       -0.1563   -0.9855    2.0596 H         1 ATP         0.4363
     40 H1'         1.7826    1.9024    1.6451 H         1 ATP         0.1225
     41 H8          1.3912    3.1285   -1.6365 H         1 ATP         0.3824
     42 HN62       -3.9637    5.7083   -0.0142 H         1 ATP         0.4018
     43 H2         -2.9317    2.7866    3.1796 H         1 ATP         0.0652
     44 H44        -3.9307    4.3923    1.8558 H         1 ATP         0.4503
     45 H45        -0.5835    4.6857   -1.9122 H         1 ATP         0.5209
@<TRIPOS>BOND
     1    1    2 2
     2    1    3 1
     3    1    4 1
     4    1    8 1
     5    4   32 1
     6    5    6 2
     7    5    7 1
     8    5    8 1
     9    5   12 1
    10    9   10 2
    11    9   11 1
    12    9   12 1
    13    9   13 1
    14   13   14 1
    15   14   15 1
    16   14   33 1
    17   14   34 1
    18   15   16 1
    19   15   17 1
    20   15   35 1
    21   16   21 1
    22   17   18 1
    23   17   19 1
    24   17   36 1
    25   18   37 1
    26   19   20 1
    27   19   21 1
    28   19   38 1
    29   20   39 1
    30   21   22 1
    31   21   40 1
    32   22   23 ar
    33   22   31 ar
    34   23   24 ar
    35   23   41 1
    36   24   25 ar
    37   24   45 1
    38   25   26 ar
    39   25   31 ar
    40   26   27 2
    41   26   28 ar
    42   27   42 1
    43   28   29 ar
    44   28   44 1
    45   29   30 ar
    46   29   43 1
    47   30   31 ar
@<TRIPOS>SUBSTRUCTURE
     1 ATP         1 GROUP 0 A     ****
@<TRIPOS>MOLECULE
[[[3,4-dihydroxy-5-(6-imino-7,8-dihydro-1~{H}-purin-8-ylium-9-yl)tetrahydrofuran-2-yl]methoxy-oxido-phosphoryl]oxy-oxido-phosphoryl] hydrogen phosphate
   45    47     1     0     0
SMALL
USER_CHARGES

@<TRIPOS>ATOM
      1 PG          0.4651   -8.3563    7.5544 P.3       1 ATP         1.5631
      2 O1G         1.0378   -9.6616    7.0489 O.co2     1 ATP        -0.8806
      3 O2G        -0.7548   -8.3371    8.4484 O.co2     1 ATP        -0.8806
      4 O3G         1.6579   -7.5157    8.2869 O.3       1 ATP        -0.8165
      5 PB         -0.8551   -7.4957    5.0524 P.3       1 ATP         1.6877
      6 O1B        -0.4619   -8.6814    4.1997 O.co2     1 ATP        -0.8727
      7 O2B        -2.2571   -7.3571    5.6026 O.co2     1 ATP        -0.8727
      8 O3B         0.2066   -7.3628    6.2855 O.3       1 ATP        -0.8330
      9 PA         -0.5250   -4.5707    4.7525 P.3       1 ATP         1.6036
     10 O1A         0.4868   -4.3780    5.8613 O.co2     1 ATP        -0.9062
     11 O2A        -1.9752   -4.1885    4.9536 O.co2     1 ATP        -0.9062
     12 O3A        -0.4680   -6.1256    4.2538 O.3       1 ATP        -0.8166
     13 O5'         0.0118   -3.8395    3.3916 O.3       1 ATP        -0.5510
     14 C5'        -0.7840   -3.8935    2.2172 C.3       1 ATP         0.2099
     15 C4'        -0.0724   -3.1466    1.1027 C.3       1 ATP         0.0598
     16 O4'        -0.8674   -3.1929   -0.0945 O.3       1 ATP        -0.3455
     17 C3'         0.1338   -1.6715    1.4027 C.3       1 ATP         0.0742
     18 O3'         1.2893   -1.4445    2.1808 O.3       1 ATP        -0.6025
     19 C2'         0.2158   -1.0724    0.0128 C.3       1 ATP         0.1145
     20 O2'         1.5141   -1.2448   -0.5513 O.3       1 ATP        -0.5835
     21 C1'        -0.7897   -1.9176   -0.7583 C.3       1 ATP         0.3776
     22 N9         -2.1040   -1.3333   -0.7704 N.pl3     1 ATP        -0.4429
     23 C8         -3.2114   -1.8635   -0.2619 C.ar      1 ATP         0.2964
     24 N7         -4.2711   -1.0786   -0.4314 N.pl3     1 ATP        -0.4957
     25 C5         -3.7955    0.0193   -1.0917 C.ar      1 ATP        -0.1346
     26 C6         -4.4862    1.2344   -1.5586 C.ar      1 ATP         0.7213
     27 N6         -5.7554    1.4030   -1.3689 N.2       1 ATP        -0.8215
     28 N1         -3.6267    2.1218   -2.1949 N.pl3     1 ATP        -0.8455
     29 C2         -2.2761    1.8558   -2.3521 C.ar      1 ATP         0.6477
     30 N3         -1.6453    0.7881   -1.9466 N.2       1 ATP        -0.5707
     31 C4         -2.4722   -0.1108   -1.3117 C.ar      1 ATP         0.2637
     32 HOG3        1.4433   -6.6388    8.6708 H         1 ATP         0.4378
     33 H5'1       -0.9348   -4.9415    1.9415 H         1 ATP         0.0340
     34 H5'2       -1.7548   -3.4350    2.4278 H         1 ATP         0.0340
     35 H4'         0.8874   -3.6466    0.8805 H         1 ATP         0.0910
     36 H3'        -0.7376   -1.2333    1.9867 H         1 ATP         0.0656
     37 HO3'        1.3408   -0.4870    2.3219 H         1 ATP         0.4386
     38 H2'        -0.0384   -0.0310    0.0096 H         1 ATP         0.0788
     39 HO2'        2.1463   -0.7958    0.0370 H         1 ATP         0.4363
     40 H1'        -0.4769   -2.1002   -1.8093 H         1 ATP         0.1225
     41 H8         -3.2547   -2.8183    0.2325 H         1 ATP         0.3824
     42 HN62       -6.0352    2.3041   -1.7656 H         1 ATP         0.4018
     43 H2         -1.7412    2.6624   -2.8773 H         1 ATP         0.0652
     44 H44        -4.0029    2.9939   -2.5557 H         1 ATP         0.4503
     45 H45        -5.2179   -1.2649   -0.1322 H         1 ATP         0.5209
@<TRIPOS>BOND
     1    1    2 2
     2    1    3 1
     3    1    4 1
     4    1    8 1
     5    4   32 1
     6    5    6 2
     7    5    7 1
     8    5    8 1
     9    5   12 1
    10    9   10 2
    11    9   11 1
    12    9   12 1
    13    9   13 1
    14   13   14 1
    15   14   15 1
    16   14   33 1
    17   14   34 1
    18   15   16 1
    19   15   17 1
    20   15   35 1
    21   16   21 1
    22   17   18 1
    23   17   19 1
    24   17   36 1
    25   18   37 1
    26   19   20 1
    27   19   21 1
    28   19   38 1
    29   20   39 1
    30   21   22 1
    31   21   40 1
    32   22   23 ar
    33   22   31 ar
    34   23   24 ar
    35   23   41 1
    36   24   25 ar
    37   24   45 1
    38   25   26 ar
    39   25   31 ar
    40   26   27 2
    41   26   28 ar
    42   27   42 1
    43   28   29 ar
    44   28   44 1
    45   29   30 ar
    46   29   43 1
    47   30   31 ar
@<TRIPOS>SUBSTRUCTURE
     1 ATP         1 GROUP 0 A     ****
@<TRIPOS>MOLECULE
[[[3,4-dihydroxy-5-(6-imino-7,8-dihydro-1~{H}-purin-8-ylium-9-yl)tetrahydrofuran-2-yl]methoxy-oxido-phosphoryl]oxy-oxido-phosphoryl] hydrogen phosphate
   45    47     1     0     0
SMALL
USER_CHARGES

@<TRIPOS>ATOM
      1 PG          8.0841   -2.9330   -2.1820 P.3       1 ATP         1.5631
      2 O1G         8.5761   -3.1215   -0.7642 O.co2     1 ATP        -0.8806
      3 O2G         9.0486   -2.6199   -3.3042 O.co2     1 ATP        -0.8806
      4 O3G         7.2050   -4.2425   -2.6042 O.3       1 ATP        -0.8165
      5 PB          6.9461   -0.2229   -1.8604 P.3       1 ATP         1.6877
      6 O1B         7.2782   -0.0380   -0.3965 O.co2     1 ATP        -0.8727
      7 O2B         7.7536    0.4633   -2.9396 O.co2     1 ATP        -0.8727
      8 O3B         6.8889   -1.8217   -2.1862 O.3       1 ATP        -0.8330
      9 PA          4.4374   -0.0466   -3.4193 P.3       1 ATP         1.6036
     10 O1A         4.3033   -1.5210   -3.7328 O.co2     1 ATP        -0.9062
     11 O2A         4.9277    0.9261   -4.4696 O.co2     1 ATP        -0.9062
     12 O3A         5.3672    0.1247   -2.0867 O.3       1 ATP        -0.8166
     13 O5'         3.0213    0.5153   -2.8245 O.3       1 ATP        -0.5510
     14 C5'         2.2816   -0.2918   -1.9206 C.3       1 ATP         0.2099
     15 C4'         2.7248    0.0226   -0.4980 C.3       1 ATP         0.0598
     16 O4'         2.4697    1.4219   -0.2462 O.3       1 ATP        -0.3455
     17 C3'         1.9404   -0.7419    0.5596 C.3       1 ATP         0.0742
     18 O3'         2.7418   -0.8086    1.7389 O.3       1 ATP        -0.6025
     19 C2'         0.7477    0.1630    0.7858 C.3       1 ATP         0.1145
     20 O2'         0.1373   -0.0577    2.0407 O.3       1 ATP        -0.5835
     21 C1'         1.3733    1.5427    0.6747 C.3       1 ATP         0.3776
     22 N9          0.4520    2.5240    0.1767 N.pl3     1 ATP        -0.4429
     23 C8         -0.2004    2.4829   -0.9804 C.ar      1 ATP         0.2964
     24 N7         -0.9830    3.5431   -1.1568 N.pl3     1 ATP        -0.4957
     25 C5         -0.8095    4.3012   -0.0331 C.ar      1 ATP        -0.1346
     26 C6         -1.4065    5.5904    0.3585 C.ar      1 ATP         0.7213
     27 N6         -2.2501    6.2030   -0.4084 N.2       1 ATP        -0.8215
     28 N1         -0.9585    6.0272    1.5994 N.pl3     1 ATP        -0.8455
     29 C2         -0.0508    5.3009    2.3532 C.ar      1 ATP         0.6477
     30 N3          0.4890    4.1592    2.0257 N.2       1 ATP        -0.5707
     31 C4          0.0637    3.7006    0.7995 C.ar      1 ATP         0.2637
     32 HOG3        6.8132   -4.2718   -3.5031 H         1 ATP         0.4378
     33 H5'1        1.2163   -0.0770   -2.0471 H         1 ATP         0.0340
     34 H5'2        2.4655   -1.3443   -2.1563 H         1 ATP         0.0340
     35 H4'         3.8044   -0.1397   -0.4040 H         1 ATP         0.0910
     36 H3'         1.6764   -1.7639    0.2728 H         1 ATP         0.0656
     37 HO3'        3.5554   -1.2733    1.4914 H         1 ATP         0.4386
     38 H2'        -0.0011    0.0027    0.0003 H         1 ATP         0.0788
     39 HO2'       -0.1563   -0.9855    2.0596 H         1 ATP         0.4363
     40 H1'         1.7826    1.9024    1.6451 H         1 ATP         0.1225
     41 H8         -0.1116    1.6863   -1.6984 H         1 ATP         0.3824
     42 HN62       -2.5420    7.0730    0.0447 H         1 ATP         0.4018
     43 H2          0.1969    5.7893    3.3086 H         1 ATP         0.0652
     44 H44        -1.3097    6.9080    1.9642 H         1 ATP         0.4503
     45 H45        -1.5735    3.7351   -1.9538 H         1 ATP         0.5209
@<TRIPOS>BOND
     1    1    2 2
     2    1    3 1
     3    1    4 1
     4    1    8 1
     5    4   32 1
     6    5    6 2
     7    5    7 1
     8    5    8 1
     9    5   12 1
    10    9   10 2
    11    9   11 1
    12    9   12 1
    13    9   13 1
    14   13   14 1
    15   14   15 1
    16   14   33 1
    17   14   34 1
    18   15   16 1
    19   15   17 1
    20   15   35 1
    21   16   21 1
    22   17   18 1
    23   17   19 1
    24   17   36 1
    25   18   37 1
    26   19   20 1
    27   19   21 1
    28   19   38 1
    29   20   39 1
    30   21   22 1
    31   21   40 1
    32   22   23 ar
    33   22   31 ar
    34   23   24 ar
    35   23   41 1
    36   24   25 ar
    37   24   45 1
    38   25   26 ar
    39   25   31 ar
    40   26   27 2
    41   26   28 ar
    42   27   42 1
    43   28   29 ar
    44   28   44 1
    45   29   30 ar
    46   29   43 1
    47   30   31 ar
@<TRIPOS>SUBSTRUCTURE
     1 ATP         1 GROUP 0 A     ****
@<TRIPOS>MOLECULE
[[[3,4-dihydroxy-5-(6-imino-7,8-dihydro-1~{H}-purin-8-ylium-9-yl)tetrahydrofuran-2-yl]methoxy-oxido-phosphoryl]oxy-oxido-phosphoryl] hydrogen phosphate
   45    47     1     0     0
SMALL
USER_CHARGES

@<TRIPOS>ATOM
      1 PG          1.8471   -9.6828    2.7412 P.3       1 ATP         1.5631
      2 O1G         0.7430  -10.7100    2.6258 O.co2     1 ATP        -0.8806
      3 O2G         3.0502   -9.9306    3.6237 O.co2     1 ATP        -0.8806
      4 O3G         2.3725   -9.3152    1.2396 O.3       1 ATP        -0.8165
      5 PB          0.4405   -7.7708    4.5046 P.3       1 ATP         1.6877
      6 O1B        -0.8598   -8.5328    4.6304 O.co2     1 ATP        -0.8727
      7 O2B         1.4511   -7.7547    5.6298 O.co2     1 ATP        -0.8727
      8 O3B         1.1917   -8.2403    3.1331 O.3       1 ATP        -0.8330
      9 PA          1.1153   -5.0160    3.6616 P.3       1 ATP         1.6036
     10 O1A         1.7973   -5.3763    2.3595 O.co2     1 ATP        -0.9062
     11 O2A         1.9269   -4.6320    4.8795 O.co2     1 ATP        -0.9062
     12 O3A         0.1056   -6.2308    4.0794 O.3       1 ATP        -0.8166
     13 O5'         0.0118   -3.8395    3.3916 O.3       1 ATP        -0.5510
     14 C5'        -0.7840   -3.8935    2.2172 C.3       1 ATP         0.2099
     15 C4'        -0.0724   -3.1466    1.1027 C.3       1 ATP         0.0598
     16 O4'        -0.8674   -3.1929   -0.0945 O.3       1 ATP        -0.3455
     17 C3'         0.1338   -1.6715    1.4027 C.3       1 ATP         0.0742
     18 O3'         1.2893   -1.4445    2.1808 O.3       1 ATP        -0.6025
     19 C2'         0.2158   -1.0724    0.0128 C.3       1 ATP         0.1145
     20 O2'         1.5141   -1.2448   -0.5513 O.3       1 ATP        -0.5835
     21 C1'        -0.7897   -1.9176   -0.7583 C.3       1 ATP         0.3776
     22 N9         -2.1040   -1.3333   -0.7704 N.pl3     1 ATP        -0.4429
     23 C8         -3.0590   -1.5123    0.1363 C.ar      1 ATP         0.2964
     24 N7         -4.1655   -0.8354   -0.1554 N.pl3     1 ATP        -0.4957
     25 C5         -3.8852   -0.1874   -1.3253 C.ar      1 ATP        -0.1346
     26 C6         -4.7113    0.7160   -2.1458 C.ar      1 ATP         0.7213
     27 N6         -5.9213    1.0209   -1.8021 N.2       1 ATP        -0.8215
     28 N1         -4.0411    1.1673   -3.2764 N.pl3     1 ATP        -0.8455
     29 C2         -2.7403    0.7865   -3.5638 C.ar      1 ATP         0.6477
     30 N3         -1.9921   -0.0108   -2.8519 N.2       1 ATP        -0.5707
     31 C4         -2.6302   -0.4747   -1.7239 C.ar      1 ATP         0.2637
     32 HOG3        3.0939   -8.6572    1.1454 H         1 ATP         0.4378
     33 H5'1       -0.9348   -4.9415    1.9415 H         1 ATP         0.0340
     34 H5'2       -1.7548   -3.4350    2.4278 H         1 ATP         0.0340
     35 H4'         0.8874   -3.6466    0.8805 H         1 ATP         0.0910
     36 H3'        -0.7376   -1.2333    1.9867 H         1 ATP         0.0656
     37 HO3'        1.1626   -1.9325    3.0084 H         1 ATP         0.4386
     38 H2'        -0.0384   -0.0310    0.0096 H         1 ATP         0.0788
     39 HO2'        2.1463   -0.7958    0.0370 H         1 ATP         0.4363
     40 H1'        -0.4769   -2.1002   -1.8093 H         1 ATP         0.1225
     41 H8         -2.9569   -2.1323    1.0098 H         1 ATP         0.3824
     42 HN62       -6.3169    1.6552   -2.5012 H         1 ATP         0.4018
     43 H2         -2.3612    1.2343   -4.4957 H         1 ATP         0.0652
     44 H44        -4.5223    1.7976   -3.9117 H         1 ATP         0.4503
     45 H45        -5.0218   -0.8132    0.3804 H         1 ATP         0.5209
@<TRIPOS>BOND
     1    1    2 2
     2    1    3 1
     3    1    4 1
     4    1    8 1
     5    4   32 1
     6    5    6 2
     7    5    7 1
     8    5    8 1
     9    5   12 1
    10    9   10 2
    11    9   11 1
    12    9   12 1
    13    9   13 1
    14   13   14 1
    15   14   15 1
    16   14   33 1
    17   14   34 1
    18   15   16 1
    19   15   17 1
    20   15   35 1
    21   16   21 1
    22   17   18 1
    23   17   19 1
    24   17   36 1
    25   18   37 1
    26   19   20 1
    27   19   21 1
    28   19   38 1
    29   20   39 1
    30   21   22 1
    31   21   40 1
    32   22   23 ar
    33   22   31 ar
    34   23   24 ar
    35   23   41 1
    36   24   25 ar
    37   24   45 1
    38   25   26 ar
    39   25   31 ar
    40   26   27 2
    41   26   28 ar
    42   27   42 1
    43   28   29 ar
    44   28   44 1
    45   29   30 ar
    46   29   43 1
    47   30   31 ar
@<TRIPOS>SUBSTRUCTURE
     1 ATP         1 GROUP 0 A     ****
@<TRIPOS>MOLECULE
[[[3,4-dihydroxy-5-(6-imino-7,8-dihydro-1~{H}-purin-8-ylium-9-yl)tetrahydrofuran-2-yl]methoxy-oxido-phosphoryl]oxy-oxido-phosphoryl] hydrogen phosphate
   45    47     1     0     0
SMALL
USER_CHARGES

@<TRIPOS>ATOM
      1 PG         -0.7639   -5.5501   -5.6558 P.3       1 ATP         1.5631
      2 O1G        -0.0429   -6.8414   -5.3390 O.co2     1 ATP        -0.8806
      3 O2G        -0.8913   -5.0605   -7.0812 O.co2     1 ATP        -0.8806
      4 O3G        -2.2552   -5.6129   -4.9940 O.3       1 ATP        -0.8165
      5 PB         -0.6289   -2.8068   -4.5607 P.3       1 ATP         1.6877
      6 O1B        -0.4217   -2.0779   -5.8696 O.co2     1 ATP        -0.8727
      7 O2B        -1.9720   -2.8019   -3.8654 O.co2     1 ATP        -0.8727
      8 O3B        -0.1376   -4.3535   -4.7395 O.3       1 ATP        -0.8330
      9 PA          2.1372   -2.2718   -3.6563 P.3       1 ATP         1.6036
     10 O1A         2.4977   -1.2667   -4.7287 O.co2     1 ATP        -0.9062
     11 O2A         2.6452   -3.6953   -3.7281 O.co2     1 ATP        -0.9062
     12 O3A         0.5112   -2.3140   -3.5013 O.3       1 ATP        -0.8166
     13 O5'         2.5245   -1.6648   -2.1878 O.3       1 ATP        -0.5510
     14 C5'         2.2816   -0.2918   -1.9206 C.3       1 ATP         0.2099
     15 C4'         2.7248    0.0226   -0.4980 C.3       1 ATP         0.0598
     16 O4'         2.4697    1.4219   -0.2462 O.3       1 ATP        -0.3455
     17 C3'         1.9404   -0.7419    0.5596 C.3       1 ATP         0.0742
     18 O3'         2.7418   -0.8086    1.7389 O.3       1 ATP        -0.6025
     19 C2'         0.7477    0.1630    0.7858 C.3       1 ATP         0.1145
     20 O2'         0.1373   -0.0577    2.0407 O.3       1 ATP        -0.5835
     21 C1'         1.3733    1.5427    0.6747 C.3       1 ATP         0.3776
     22 N9          0.4520    2.5240    0.1767 N.pl3     1 ATP        -0.4429
     23 C8         -0.8620    2.5492    0.3743 C.ar      1 ATP         0.2964
     24 N7         -1.4419    3.5886   -0.2183 N.pl3     1 ATP        -0.4957
     25 C5         -0.4215    4.2614   -0.8294 C.ar      1 ATP        -0.1346
     26 C6         -0.4310    5.4918   -1.6405 C.ar      1 ATP         0.7213
     27 N6         -1.5302    6.1308   -1.8826 N.2       1 ATP        -0.8215
     28 N1          0.8382    5.8461   -2.0817 N.pl3     1 ATP        -0.8455
     29 C2          1.9625    5.0982   -1.7709 C.ar      1 ATP         0.6477
     30 N3          1.9930    4.0077   -1.0554 N.2       1 ATP        -0.5707
     31 C4          0.7483    3.6314   -0.6038 C.ar      1 ATP         0.2637
     32 HOG3       -2.8514   -4.8430   -5.1125 H         1 ATP         0.4378
     33 H5'1        2.8432    0.3119   -2.6398 H         1 ATP         0.0340
     34 H5'2        1.2128   -0.0927   -2.0428 H         1 ATP         0.0340
     35 H4'         3.8044   -0.1397   -0.4040 H         1 ATP         0.0910
     36 H3'         1.6764   -1.7639    0.2728 H         1 ATP         0.0656
     37 HO3'        2.2232   -1.2979    2.3953 H         1 ATP         0.4386
     38 H2'        -0.0011    0.0027    0.0003 H         1 ATP         0.0788
     39 HO2'       -0.1563   -0.9855    2.0596 H         1 ATP         0.4363
     40 H1'         1.7826    1.9024    1.6451 H         1 ATP         0.1225
     41 H8         -1.4030    1.8165    0.9473 H         1 ATP         0.3824
     42 HN62       -1.3197    6.9504   -2.4583 H         1 ATP         0.4018
     43 H2          2.8857    5.5186   -2.1994 H         1 ATP         0.0652
     44 H44         0.9433    6.6815   -2.6502 H         1 ATP         0.4503
     45 H45        -2.4254    3.8199   -0.2108 H         1 ATP         0.5209
@<TRIPOS>BOND
     1    1    2 2
     2    1    3 1
     3    1    4 1
     4    1    8 1
     5    4   32 1
     6    5    6 2
     7    5    7 1
     8    5    8 1
     9    5   12 1
    10    9   10 2
    11    9   11 1
    12    9   12 1
    13    9   13 1
    14   13   14 1
    15   14   15 1
    16   14   33 1
    17   14   34 1
    18   15   16 1
    19   15   17 1
    20   15   35 1
    21   16   21 1
    22   17   18 1
    23   17   19 1
    24   17   36 1
    25   18   37 1
    26   19   20 1
    27   19   21 1
    28   19   38 1
    29   20   39 1
    30   21   22 1
    31   21   40 1
    32   22   23 ar
    33   22   31 ar
    34   23   24 ar
    35   23   41 1
    36   24   25 ar
    37   24   45 1
    38   25   26 ar
    39   25   31 ar
    40   26   27 2
    41   26   28 ar
    42   27   42 1
    43   28   29 ar
    44   28   44 1
    45   29   30 ar
    46   29   43 1
    47   30   31 ar
@<TRIPOS>SUBSTRUCTURE
     1 ATP         1 GROUP 0 A     ****
@<TRIPOS>MOLECULE
[[[3,4-dihydroxy-5-(6-imino-7,8-dihydro-1~{H}-purin-8-ylium-9-yl)tetrahydrofuran-2-yl]methoxy-oxido-phosphoryl]oxy-oxido-phosphoryl] hydrogen phosphate
   45    47     1     0     0
SMALL
USER_CHARGES

@<TRIPOS>ATOM
      1 PG         -0.6420  -10.1947    3.8634 P.3       1 ATP         1.5631
      2 O1G        -2.1022  -10.5779    3.9546 O.co2     1 ATP        -0.8806
      3 O2G         0.3731  -10.7656    4.8284 O.co2     1 ATP        -0.8806
      4 O3G        -0.1257  -10.4775    2.3404 O.3       1 ATP        -0.8165
      5 PB         -0.8551   -7.4957    5.0524 P.3       1 ATP         1.6877
      6 O1B        -2.3463   -7.5048    5.3052 O.co2     1 ATP        -0.8727
      7 O2B         0.1320   -7.6951    6.1809 O.co2     1 ATP        -0.8727
      8 O3B        -0.5187   -8.5673    3.8674 O.3       1 ATP        -0.8330
      9 PA         -0.5250   -4.5707    4.7525 P.3       1 ATP         1.6036
     10 O1A         0.4868   -4.3780    5.8613 O.co2     1 ATP        -0.9062
     11 O2A        -1.9752   -4.1885    4.9536 O.co2     1 ATP        -0.9062
     12 O3A        -0.4680   -6.1256    4.2538 O.3       1 ATP        -0.8166
     13 O5'         0.0118   -3.8395    3.3916 O.3       1 ATP        -0.5510
     14 C5'        -0.7840   -3.8935    2.2172 C.3       1 ATP         0.2099
     15 C4'        -0.0724   -3.1466    1.1027 C.3       1 ATP         0.0598
     16 O4'        -0.8674   -3.1929   -0.0945 O.3       1 ATP        -0.3455
     17 C3'         0.1338   -1.6715    1.4027 C.3       1 ATP         0.0742
     18 O3'         1.2893   -1.4445    2.1808 O.3       1 ATP        -0.6025
     19 C2'         0.2158   -1.0724    0.0128 C.3       1 ATP         0.1145
     20 O2'         1.5141   -1.2448   -0.5513 O.3       1 ATP        -0.5835
     21 C1'        -0.7897   -1.9176   -0.7583 C.3       1 ATP         0.3776
     22 N9         -2.1040   -1.3333   -0.7704 N.pl3     1 ATP        -0.4429
     23 C8         -3.2114   -1.8635   -0.2619 C.ar      1 ATP         0.2964
     24 N7         -4.2711   -1.0786   -0.4314 N.pl3     1 ATP        -0.4957
     25 C5         -3.7955    0.0193   -1.0917 C.ar      1 ATP        -0.1346
     26 C6         -4.4862    1.2344   -1.5586 C.ar      1 ATP         0.7213
     27 N6         -5.7554    1.4030   -1.3689 N.2       1 ATP        -0.8215
     28 N1         -3.6267    2.1218   -2.1949 N.pl3     1 ATP        -0.8455
     29 C2         -2.2761    1.8558   -2.3521 C.ar      1 ATP         0.6477
     30 N3         -1.6453    0.7881   -1.9466 N.2       1 ATP        -0.5707
     31 C4         -2.4722   -0.1108   -1.3117 C.ar      1 ATP         0.2637
     32 HOG3        0.8089  -10.2778    2.1196 H         1 ATP         0.4378
     33 H5'1       -0.9348   -4.9415    1.9415 H         1 ATP         0.0340
     34 H5'2       -1.7548   -3.4350    2.4278 H         1 ATP         0.0340
     35 H4'         0.8874   -3.6466    0.8805 H         1 ATP         0.0910
     36 H3'        -0.7376   -1.2333    1.9867 H         1 ATP         0.0656
     37 HO3'        1.3408   -0.4870    2.3219 H         1 ATP         0.4386
     38 H2'        -0.0384   -0.0310    0.0096 H         1 ATP         0.0788
     39 HO2'        1.4998   -0.8412   -1.4369 H         1 ATP         0.4363
     40 H1'        -0.4769   -2.1002   -1.8093 H         1 ATP         0.1225
     41 H8         -3.2547   -2.8183    0.2325 H         1 ATP         0.3824
     42 HN62       -6.0352    2.3041   -1.7656 H         1 ATP         0.4018
     43 H2         -1.7412    2.6624   -2.8773 H         1 ATP         0.0652
     44 H44        -4.0029    2.9939   -2.5557 H         1 ATP         0.4503
     45 H45        -5.2179   -1.2649   -0.1322 H         1 ATP         0.5209
@<TRIPOS>BOND
     1    1    2 2
     2    1    3 1
     3    1    4 1
     4    1    8 1
     5    4   32 1
     6    5    6 2
     7    5    7 1
     8    5    8 1
     9    5   12 1
    10    9   10 2
    11    9   11 1
    12    9   12 1
    13    9   13 1
    14   13   14 1
    15   14   15 1
    16   14   33 1
    17   14   34 1
    18   15   16 1
    19   15   17 1
    20   15   35 1
    21   16   21 1
    22   17   18 1
    23   17   19 1
    24   17   36 1
    25   18   37 1
    26   19   20 1
    27   19   21 1
    28   19   38 1
    29   20   39 1
    30   21   22 1
    31   21   40 1
    32   22   23 ar
    33   22   31 ar
    34   23   24 ar
    35   23   41 1
    36   24   25 ar
    37   24   45 1
    38   25   26 ar
    39   25   31 ar
    40   26   27 2
    41   26   28 ar
    42   27   42 1
    43   28   29 ar
    44   28   44 1
    45   29   30 ar
    46   29   43 1
    47   30   31 ar
@<TRIPOS>SUBSTRUCTURE
     1 ATP         1 GROUP 0 A     ****
@<TRIPOS>MOLECULE
[[[3,4-dihydroxy-5-(6-imino-7,8-dihydro-1~{H}-purin-8-ylium-9-yl)tetrahydrofuran-2-yl]methoxy-oxido-phosphoryl]oxy-oxido-phosphoryl] hydrogen phosphate
   45    47     1     0     0
SMALL
USER_CHARGES

@<TRIPOS>ATOM
      1 PG         -4.1541   -2.3002    6.9511 P.3       1 ATP         1.5631
      2 O1G        -3.6940   -1.8725    8.3269 O.co2     1 ATP        -0.8806
      3 O2G        -4.3598   -3.7615    6.6197 O.co2     1 ATP        -0.8806
      4 O3G        -5.5229   -1.4883    6.5863 O.3       1 ATP        -0.8165
      5 PB         -1.5895   -1.9213    5.5289 P.3       1 ATP         1.6877
      6 O1B        -1.1934   -1.1709    4.2769 O.co2     1 ATP        -0.8727
      7 O2B        -0.8126   -1.7617    6.8167 O.co2     1 ATP        -0.8727
      8 O3B        -3.1686   -1.6375    5.8316 O.3       1 ATP        -0.8330
      9 PA         -0.5250   -4.5707    4.7525 P.3       1 ATP         1.6036
     10 O1A        -1.1707   -5.8917    4.3943 O.co2     1 ATP        -0.9062
     11 O2A         0.5744   -4.5032    5.7901 O.co2     1 ATP        -0.9062
     12 O3A        -1.6952   -3.5113    5.1745 O.3       1 ATP        -0.8166
     13 O5'         0.0118   -3.8395    3.3916 O.3       1 ATP        -0.5510
     14 C5'        -0.7840   -3.8935    2.2172 C.3       1 ATP         0.2099
     15 C4'        -0.0724   -3.1466    1.1027 C.3       1 ATP         0.0598
     16 O4'        -0.8674   -3.1929   -0.0945 O.3       1 ATP        -0.3455
     17 C3'         0.1338   -1.6715    1.4027 C.3       1 ATP         0.0742
     18 O3'         1.2893   -1.4445    2.1808 O.3       1 ATP        -0.6025
     19 C2'         0.2158   -1.0724    0.0128 C.3       1 ATP         0.1145
     20 O2'         1.5141   -1.2448   -0.5513 O.3       1 ATP        -0.5835
     21 C1'        -0.7897   -1.9176   -0.7583 C.3       1 ATP         0.3776
     22 N9         -2.1040   -1.3333   -0.7704 N.pl3     1 ATP        -0.4429
     23 C8         -3.0590   -1.5123    0.1363 C.ar      1 ATP         0.2964
     24 N7         -4.1655   -0.8354   -0.1554 N.pl3     1 ATP        -0.4957
     25 C5         -3.8852   -0.1874   -1.3253 C.ar      1 ATP        -0.1346
     26 C6         -4.7113    0.7160   -2.1458 C.ar      1 ATP         0.7213
     27 N6         -5.9213    1.0209   -1.8021 N.2       1 ATP        -0.8215
     28 N1         -4.0411    1.1673   -3.2764 N.pl3     1 ATP        -0.8455
     29 C2         -2.7403    0.7865   -3.5638 C.ar      1 ATP         0.6477
     30 N3         -1.9921   -0.0108   -2.8519 N.2       1 ATP        -0.5707
     31 C4         -2.6302   -0.4747   -1.7239 C.ar      1 ATP         0.2637
     32 HOG3       -5.9489   -1.6571    5.7189 H         1 ATP         0.4378
     33 H5'1       -0.9348   -4.9415    1.9415 H         1 ATP         0.0340
     34 H5'2       -1.7548   -3.4350    2.4278 H         1 ATP         0.0340
     35 H4'         0.8874   -3.6466    0.8805 H         1 ATP         0.0910
     36 H3'        -0.7376   -1.2333    1.9867 H         1 ATP         0.0656
     37 HO3'        1.3408   -0.4870    2.3219 H         1 ATP         0.4386
     38 H2'        -0.0384   -0.0310    0.0096 H         1 ATP         0.0788
     39 HO2'        1.4998   -0.8412   -1.4369 H         1 ATP         0.4363
     40 H1'        -0.4769   -2.1002   -1.8093 H         1 ATP         0.1225
     41 H8         -2.9569   -2.1323    1.0098 H         1 ATP         0.3824
     42 HN62       -6.3169    1.6552   -2.5012 H         1 ATP         0.4018
     43 H2         -2.3612    1.2343   -4.4957 H         1 ATP         0.0652
     44 H44        -4.5223    1.7976   -3.9117 H         1 ATP         0.4503
     45 H45        -5.0218   -0.8132    0.3804 H         1 ATP         0.5209
@<TRIPOS>BOND
     1    1    2 2
     2    1    3 1
     3    1    4 1
     4    1    8 1
     5    4   32 1
     6    5    6 2
     7    5    7 1
     8    5    8 1
     9    5   12 1
    10    9   10 2
    11    9   11 1
    12    9   12 1
    13    9   13 1
    14   13   14 1
    15   14   15 1
    16   14   33 1
    17   14   34 1
    18   15   16 1
    19   15   17 1
    20   15   35 1
    21   16   21 1
    22   17   18 1
    23   17   19 1
    24   17   36 1
    25   18   37 1
    26   19   20 1
    27   19   21 1
    28   19   38 1
    29   20   39 1
    30   21   22 1
    31   21   40 1
    32   22   23 ar
    33   22   31 ar
    34   23   24 ar
    35   23   41 1
    36   24   25 ar
    37   24   45 1
    38   25   26 ar
    39   25   31 ar
    40   26   27 2
    41   26   28 ar
    42   27   42 1
    43   28   29 ar
    44   28   44 1
    45   29   30 ar
    46   29   43 1
    47   30   31 ar
@<TRIPOS>SUBSTRUCTURE
     1 ATP         1 GROUP 0 A     ****
@<TRIPOS>MOLECULE
[[[3,4-dihydroxy-5-(6-imino-7,8-dihydro-1~{H}-purin-8-ylium-9-yl)tetrahydrofuran-2-yl]methoxy-oxido-phosphoryl]oxy-oxido-phosphoryl] hydrogen phosphate
   45    47     1     0     0
SMALL
USER_CHARGES

@<TRIPOS>ATOM
      1 PG          5.5130    0.1349   -7.5608 P.3       1 ATP         1.5631
      2 O1G         6.6456    1.0166   -7.0840 O.co2     1 ATP        -0.8806
      3 O2G         4.5352    0.6232   -8.6064 O.co2     1 ATP        -0.8806
      4 O3G         6.1385   -1.2881   -8.0604 O.3       1 ATP        -0.8165
      5 PB          3.4664   -1.4950   -6.1831 P.3       1 ATP         1.6877
      6 O1B         2.2520   -0.9254   -6.8820 O.co2     1 ATP        -0.8727
      7 O2B         4.0141   -2.8564   -6.5492 O.co2     1 ATP        -0.8727
      8 O3B         4.6779   -0.4037   -6.2661 O.3       1 ATP        -0.8330
      9 PA          2.1372   -2.2718   -3.6563 P.3       1 ATP         1.6036
     10 O1A         2.4859   -3.7437   -3.7017 O.co2     1 ATP        -0.9062
     11 O2A         0.7459   -1.7951   -4.0125 O.co2     1 ATP        -0.9062
     12 O3A         3.2120   -1.4489   -4.5713 O.3       1 ATP        -0.8166
     13 O5'         2.5245   -1.6648   -2.1878 O.3       1 ATP        -0.5510
     14 C5'         2.2816   -0.2918   -1.9206 C.3       1 ATP         0.2099
     15 C4'         2.7248    0.0226   -0.4980 C.3       1 ATP         0.0598
     16 O4'         2.4697    1.4219   -0.2462 O.3       1 ATP        -0.3455
     17 C3'         1.9404   -0.7419    0.5596 C.3       1 ATP         0.0742
     18 O3'         2.7418   -0.8086    1.7389 O.3       1 ATP        -0.6025
     19 C2'         0.7477    0.1630    0.7858 C.3       1 ATP         0.1145
     20 O2'         0.1373   -0.0577    2.0407 O.3       1 ATP        -0.5835
     21 C1'         1.3733    1.5427    0.6747 C.3       1 ATP         0.3776
     22 N9          0.4520    2.5240    0.1767 N.pl3     1 ATP        -0.4429
     23 C8         -0.3347    3.3121    0.9021 C.ar      1 ATP         0.2964
     24 N7         -1.0768    4.1172    0.1479 N.pl3     1 ATP        -0.4957
     25 C5         -0.7318    3.8130   -1.1389 C.ar      1 ATP        -0.1346
     26 C6         -1.2094    4.3661   -2.4187 C.ar      1 ATP         0.7213
     27 N6         -2.1040    5.3007   -2.4569 N.2       1 ATP        -0.8215
     28 N1         -0.5949    3.7732   -3.5151 N.pl3     1 ATP        -0.8455
     29 C2          0.3569    2.7758   -3.3770 C.ar      1 ATP         0.6477
     30 N3          0.7934    2.2726   -2.2552 N.2       1 ATP        -0.5707
     31 C4          0.2019    2.8412   -1.1500 C.ar      1 ATP         0.2637
     32 HOG3        5.5253   -1.9735   -8.4017 H         1 ATP         0.4378
     33 H5'1        2.8432    0.3119   -2.6398 H         1 ATP         0.0340
     34 H5'2        1.2128   -0.0927   -2.0428 H         1 ATP         0.0340
     35 H4'         3.8044   -0.1397   -0.4040 H         1 ATP         0.0910
     36 H3'         1.6764   -1.7639    0.2728 H         1 ATP         0.0656
     37 HO3'        2.2232   -1.2979    2.3953 H         1 ATP         0.4386
     38 H2'        -0.0011    0.0027    0.0003 H         1 ATP         0.0788
     39 HO2'       -0.6141    0.5574    2.1082 H         1 ATP         0.4363
     40 H1'         1.7826    1.9024    1.6451 H         1 ATP         0.1225
     41 H8         -0.3729    3.3063    1.9775 H         1 ATP         0.3824
     42 HN62       -2.2940    5.5408   -3.4335 H         1 ATP         0.4018
     43 H2          0.7413    2.4168   -4.3445 H         1 ATP         0.0652
     44 H44        -0.8531    4.0829   -4.4476 H         1 ATP         0.4503
     45 H45        -1.7471    4.8016    0.4689 H         1 ATP         0.5209
@<TRIPOS>BOND
     1    1    2 2
     2    1    3 1
     3    1    4 1
     4    1    8 1
     5    4   32 1
     6    5    6 2
     7    5    7 1
     8    5    8 1
     9    5   12 1
    10    9   10 2
    11    9   11 1
    12    9   12 1
    13    9   13 1
    14   13   14 1
    15   14   15 1
    16   14   33 1
    17   14   34 1
    18   15   16 1
    19   15   17 1
    20   15   35 1
    21   16   21 1
    22   17   18 1
    23   17   19 1
    24   17   36 1
    25   18   37 1
    26   19   20 1
    27   19   21 1
    28   19   38 1
    29   20   39 1
    30   21   22 1
    31   21   40 1
    32   22   23 ar
    33   22   31 ar
    34   23   24 ar
    35   23   41 1
    36   24   25 ar
    37   24   45 1
    38   25   26 ar
    39   25   31 ar
    40   26   27 2
    41   26   28 ar
    42   27   42 1
    43   28   29 ar
    44   28   44 1
    45   29   30 ar
    46   29   43 1
    47   30   31 ar
@<TRIPOS>SUBSTRUCTURE
     1 ATP         1 GROUP 0 A     ****
@<TRIPOS>MOLECULE
[[[3,4-dihydroxy-5-(6-imino-7,8-dihydro-1~{H}-purin-8-ylium-9-yl)tetrahydrofuran-2-yl]methoxy-oxido-phosphoryl]oxy-oxido-phosphoryl] hydrogen phosphate
   45    47     1     0     0
SMALL
USER_CHARGES

@<TRIPOS>ATOM
      1 PG         -4.8432   -2.0576    6.7367 P.3       1 ATP         1.5631
      2 O1G        -4.3795   -1.6474    8.1166 O.co2     1 ATP        -0.8806
      3 O2G        -6.1028   -2.8740    6.5508 O.co2     1 ATP        -0.8806
      4 O3G        -4.9505   -0.7199    5.8066 O.3       1 ATP        -0.8165
      5 PB         -2.8860   -4.2261    6.2781 P.3       1 ATP         1.6877
      6 O1B        -2.1492   -4.1134    7.5942 O.co2     1 ATP        -0.8727
      7 O2B        -3.8767   -5.3412    6.0280 O.co2     1 ATP        -0.8727
      8 O3B        -3.6131   -2.7990    5.9615 O.3       1 ATP        -0.8330
      9 PA         -0.6019   -3.1447    4.7390 P.3       1 ATP         1.6036
     10 O1A         0.4236   -3.2066    5.8503 O.co2     1 ATP        -0.9062
     11 O2A        -1.2370   -1.8291    4.3448 O.co2     1 ATP        -0.9062
     12 O3A        -1.7942   -4.2134    5.0645 O.3       1 ATP        -0.8166
     13 O5'         0.0118   -3.8395    3.3916 O.3       1 ATP        -0.5510
     14 C5'        -0.7840   -3.8935    2.2172 C.3       1 ATP         0.2099
     15 C4'        -0.0724   -3.1466    1.1027 C.3       1 ATP         0.0598
     16 O4'        -0.8674   -3.1929   -0.0945 O.3       1 ATP        -0.3455
     17 C3'         0.1338   -1.6715    1.4027 C.3       1 ATP         0.0742
     18 O3'         1.2893   -1.4445    2.1808 O.3       1 ATP        -0.6025
     19 C2'         0.2158   -1.0724    0.0128 C.3       1 ATP         0.1145
     20 O2'         1.5141   -1.2448   -0.5513 O.3       1 ATP        -0.5835
     21 C1'        -0.7897   -1.9176   -0.7583 C.3       1 ATP         0.3776
     22 N9         -2.1040   -1.3333   -0.7704 N.pl3     1 ATP        -0.4429
     23 C8         -3.0590   -1.5123    0.1363 C.ar      1 ATP         0.2964
     24 N7         -4.1655   -0.8354   -0.1554 N.pl3     1 ATP        -0.4957
     25 C5         -3.8852   -0.1874   -1.3253 C.ar      1 ATP        -0.1346
     26 C6         -4.7113    0.7160   -2.1458 C.ar      1 ATP         0.7213
     27 N6         -5.9213    1.0209   -1.8021 N.2       1 ATP        -0.8215
     28 N1         -4.0411    1.1673   -3.2764 N.pl3     1 ATP        -0.8455
     29 C2         -2.7403    0.7865   -3.5638 C.ar      1 ATP         0.6477
     30 N3         -1.9921   -0.0108   -2.8519 N.2       1 ATP        -0.5707
     31 C4         -2.6302   -0.4747   -1.7239 C.ar      1 ATP         0.2637
     32 HOG3       -5.2411   -0.8210    4.8752 H         1 ATP         0.4378
     33 H5'1       -0.9348   -4.9415    1.9415 H         1 ATP         0.0340
     34 H5'2       -1.7548   -3.4350    2.4278 H         1 ATP         0.0340
     35 H4'         0.8874   -3.6466    0.8805 H         1 ATP         0.0910
     36 H3'        -0.7376   -1.2333    1.9867 H         1 ATP         0.0656
     37 HO3'        1.3408   -0.4870    2.3219 H         1 ATP         0.4386
     38 H2'        -0.0384   -0.0310    0.0096 H         1 ATP         0.0788
     39 HO2'        2.1463   -0.7958    0.0370 H         1 ATP         0.4363
     40 H1'        -0.4769   -2.1002   -1.8093 H         1 ATP         0.1225
     41 H8         -2.9569   -2.1323    1.0098 H         1 ATP         0.3824
     42 HN62       -6.3169    1.6552   -2.5012 H         1 ATP         0.4018
     43 H2         -2.3612    1.2343   -4.4957 H         1 ATP         0.0652
     44 H44        -4.5223    1.7976   -3.9117 H         1 ATP         0.4503
     45 H45        -5.0218   -0.8132    0.3804 H         1 ATP         0.5209
@<TRIPOS>BOND
     1    1    2 2
     2    1    3 1
     3    1    4 1
     4    1    8 1
     5    4   32 1
     6    5    6 2
     7    5    7 1
     8    5    8 1
     9    5   12 1
    10    9   10 2
    11    9   11 1
    12    9   12 1
    13    9   13 1
    14   13   14 1
    15   14   15 1
    16   14   33 1
    17   14   34 1
    18   15   16 1
    19   15   17 1
    20   15   35 1
    21   16   21 1
    22   17   18 1
    23   17   19 1
    24   17   36 1
    25   18   37 1
    26   19   20 1
    27   19   21 1
    28   19   38 1
    29   20   39 1
    30   21   22 1
    31   21   40 1
    32   22   23 ar
    33   22   31 ar
    34   23   24 ar
    35   23   41 1
    36   24   25 ar
    37   24   45 1
    38   25   26 ar
    39   25   31 ar
    40   26   27 2
    41   26   28 ar
    42   27   42 1
    43   28   29 ar
    44   28   44 1
    45   29   30 ar
    46   29   43 1
    47   30   31 ar
@<TRIPOS>SUBSTRUCTURE
     1 ATP         1 GROUP 0 A     ****
@<TRIPOS>MOLECULE
[[[3,4-dihydroxy-5-(6-imino-7,8-dihydro-1~{H}-purin-8-ylium-9-yl)tetrahydrofuran-2-yl]methoxy-oxido-phosphoryl]oxy-oxido-phosphoryl] hydrogen phosphate
   45    47     1     0     0
SMALL
USER_CHARGES

@<TRIPOS>ATOM
      1 PG         -6.8975   -6.1091    2.6071 P.3       1 ATP         1.5631
      2 O1G        -7.4830   -5.3013    1.4704 O.co2     1 ATP        -0.8806
      3 O2G        -7.3644   -5.8999    4.0304 O.co2     1 ATP        -0.8806
      4 O3G        -7.0383   -7.6945    2.2430 O.3       1 ATP        -0.8165
      5 PB         -4.1389   -6.7676    3.4436 P.3       1 ATP         1.6877
      6 O1B        -4.2528   -6.3179    4.8832 O.co2     1 ATP        -0.8727
      7 O2B        -4.1628   -8.2348    3.0770 O.co2     1 ATP        -0.8727
      8 O3B        -5.2705   -5.9890    2.5610 O.3       1 ATP        -0.8330
      9 PA         -1.2302   -6.3291    3.1238 P.3       1 ATP         1.6036
     10 O1A        -0.8643   -7.7469    2.7411 O.co2     1 ATP        -0.9062
     11 O2A        -0.9563   -5.8091    4.5182 O.co2     1 ATP        -0.9062
     12 O3A        -2.8100   -6.0849    2.7857 O.3       1 ATP        -0.8166
     13 O5'        -0.5687   -5.2869    2.0510 O.3       1 ATP        -0.5510
     14 C5'        -0.7840   -3.8935    2.2172 C.3       1 ATP         0.2099
     15 C4'        -0.0724   -3.1466    1.1027 C.3       1 ATP         0.0598
     16 O4'        -0.8674   -3.1929   -0.0945 O.3       1 ATP        -0.3455
     17 C3'         0.1338   -1.6715    1.4027 C.3       1 ATP         0.0742
     18 O3'         1.2893   -1.4445    2.1808 O.3       1 ATP        -0.6025
     19 C2'         0.2158   -1.0724    0.0128 C.3       1 ATP         0.1145
     20 O2'         1.5141   -1.2448   -0.5513 O.3       1 ATP        -0.5835
     21 C1'        -0.7897   -1.9176   -0.7583 C.3       1 ATP         0.3776
     22 N9         -2.1040   -1.3333   -0.7704 N.pl3     1 ATP        -0.4429
     23 C8         -3.2114   -1.8635   -0.2619 C.ar      1 ATP         0.2964
     24 N7         -4.2711   -1.0786   -0.4314 N.pl3     1 ATP        -0.4957
     25 C5         -3.7955    0.0193   -1.0917 C.ar      1 ATP        -0.1346
     26 C6         -4.4862    1.2344   -1.5586 C.ar      1 ATP         0.7213
     27 N6         -5.7554    1.4030   -1.3689 N.2       1 ATP        -0.8215
     28 N1         -3.6267    2.1218   -2.1949 N.pl3     1 ATP        -0.8455
     29 C2         -2.2761    1.8558   -2.3521 C.ar      1 ATP         0.6477
     30 N3         -1.6453    0.7881   -1.9466 N.2       1 ATP        -0.5707
     31 C4         -2.4722   -0.1108   -1.3117 C.ar      1 ATP         0.2637
     32 HOG3       -6.7014   -8.3532    2.8872 H         1 ATP         0.4378
     33 H5'1       -1.8598   -3.6968    2.1850 H         1 ATP         0.0340
     34 H5'2       -0.3933   -3.5903    3.1931 H         1 ATP         0.0340
     35 H4'         0.8874   -3.6466    0.8805 H         1 ATP         0.0910
     36 H3'        -0.7376   -1.2333    1.9867 H         1 ATP         0.0656
     37 HO3'        1.1626   -1.9325    3.0084 H         1 ATP         0.4386
     38 H2'        -0.0384   -0.0310    0.0096 H         1 ATP         0.0788
     39 HO2'        2.1463   -0.7958    0.0370 H         1 ATP         0.4363
     40 H1'        -0.4769   -2.1002   -1.8093 H         1 ATP         0.1225
     41 H8         -3.2547   -2.8183    0.2325 H         1 ATP         0.3824
     42 HN62       -6.0352    2.3041   -1.7656 H         1 ATP         0.4018
     43 H2         -1.7412    2.6624   -2.8773 H         1 ATP         0.0652
     44 H44        -4.0029    2.9939   -2.5557 H         1 ATP         0.4503
     45 H45        -5.2179   -1.2649   -0.1322 H         1 ATP         0.5209
@<TRIPOS>BOND
     1    1    2 2
     2    1    3 1
     3    1    4 1
     4    1    8 1
     5    4   32 1
     6    5    6 2
     7    5    7 1
     8    5    8 1
     9    5   12 1
    10    9   10 2
    11    9   11 1
    12    9   12 1
    13    9   13 1
    14   13   14 1
    15   14   15 1
    16   14   33 1
    17   14   34 1
    18   15   16 1
    19   15   17 1
    20   15   35 1
    21   16   21 1
    22   17   18 1
    23   17   19 1
    24   17   36 1
    25   18   37 1
    26   19   20 1
    27   19   21 1
    28   19   38 1
    29   20   39 1
    30   21   22 1
    31   21   40 1
    32   22   23 ar
    33   22   31 ar
    34   23   24 ar
    35   23   41 1
    36   24   25 ar
    37   24   45 1
    38   25   26 ar
    39   25   31 ar
    40   26   27 2
    41   26   28 ar
    42   27   42 1
    43   28   29 ar
    44   28   44 1
    45   29   30 ar
    46   29   43 1
    47   30   31 ar
@<TRIPOS>SUBSTRUCTURE
     1 ATP         1 GROUP 0 A     ****
@<TRIPOS>MOLECULE
[[[3,4-dihydroxy-5-(6-imino-7,8-dihydro-1~{H}-purin-8-ylium-9-yl)tetrahydrofuran-2-yl]methoxy-oxido-phosphoryl]oxy-oxido-phosphoryl] hydrogen phosphate
   45    47     1     0     0
SMALL
USER_CHARGES

@<TRIPOS>ATOM
      1 PG          4.5998   -7.7268    4.7238 P.3       1 ATP         1.5631
      2 O1G         4.0998   -9.1394    4.9290 O.co2     1 ATP        -0.8806
      3 O2G         5.2542   -6.9623    5.8529 O.co2     1 ATP        -0.8806
      4 O3G         5.6057   -7.7143    3.4377 O.3       1 ATP        -0.8165
      5 PB          2.4624   -7.0806    2.7854 P.3       1 ATP         1.6877
      6 O1B         3.3318   -6.9879    1.5512 O.co2     1 ATP        -0.8727
      7 O2B         1.5890   -8.2890    3.0394 O.co2     1 ATP        -0.8727
      8 O3B         3.3928   -6.8213    4.1017 O.3       1 ATP        -0.8330
      9 PA          0.5355   -5.2351    4.0645 P.3       1 ATP         1.6036
     10 O1A         1.3580   -4.9238    5.2961 O.co2     1 ATP        -0.9062
     11 O2A        -0.6339   -6.1926    4.1369 O.co2     1 ATP        -0.9062
     12 O3A         1.5383   -5.7380    2.8765 O.3       1 ATP        -0.8166
     13 O5'         0.0118   -3.8395    3.3916 O.3       1 ATP        -0.5510
     14 C5'        -0.7840   -3.8935    2.2172 C.3       1 ATP         0.2099
     15 C4'        -0.0724   -3.1466    1.1027 C.3       1 ATP         0.0598
     16 O4'        -0.8674   -3.1929   -0.0945 O.3       1 ATP        -0.3455
     17 C3'         0.1338   -1.6715    1.4027 C.3       1 ATP         0.0742
     18 O3'         1.2893   -1.4445    2.1808 O.3       1 ATP        -0.6025
     19 C2'         0.2158   -1.0724    0.0128 C.3       1 ATP         0.1145
     20 O2'         1.5141   -1.2448   -0.5513 O.3       1 ATP        -0.5835
     21 C1'        -0.7897   -1.9176   -0.7583 C.3       1 ATP         0.3776
     22 N9         -2.1040   -1.3333   -0.7704 N.pl3     1 ATP        -0.4429
     23 C8         -3.0590   -1.5123    0.1363 C.ar      1 ATP         0.2964
     24 N7         -4.1655   -0.8354   -0.1554 N.pl3     1 ATP        -0.4957
     25 C5         -3.8852   -0.1874   -1.3253 C.ar      1 ATP        -0.1346
     26 C6         -4.7113    0.7160   -2.1458 C.ar      1 ATP         0.7213
     27 N6         -5.9213    1.0209   -1.8021 N.2       1 ATP        -0.8215
     28 N1         -4.0411    1.1673   -3.2764 N.pl3     1 ATP        -0.8455
     29 C2         -2.7403    0.7865   -3.5638 C.ar      1 ATP         0.6477
     30 N3         -1.9921   -0.0108   -2.8519 N.2       1 ATP        -0.5707
     31 C4         -2.6302   -0.4747   -1.7239 C.ar      1 ATP         0.2637
     32 HOG3        6.0160   -6.8631    3.1742 H         1 ATP         0.4378
     33 H5'1       -0.9348   -4.9415    1.9415 H         1 ATP         0.0340
     34 H5'2       -1.7548   -3.4350    2.4278 H         1 ATP         0.0340
     35 H4'         0.8874   -3.6466    0.8805 H         1 ATP         0.0910
     36 H3'        -0.7376   -1.2333    1.9867 H         1 ATP         0.0656
     37 HO3'        1.1626   -1.9325    3.0084 H         1 ATP         0.4386
     38 H2'        -0.0384   -0.0310    0.0096 H         1 ATP         0.0788
     39 HO2'        2.1463   -0.7958    0.0370 H         1 ATP         0.4363
     40 H1'        -0.4769   -2.1002   -1.8093 H         1 ATP         0.1225
     41 H8         -2.9569   -2.1323    1.0098 H         1 ATP         0.3824
     42 HN62       -6.3169    1.6552   -2.5012 H         1 ATP         0.4018
     43 H2         -2.3612    1.2343   -4.4957 H         1 ATP         0.0652
     44 H44        -4.5223    1.7976   -3.9117 H         1 ATP         0.4503
     45 H45        -5.0218   -0.8132    0.3804 H         1 ATP         0.5209
@<TRIPOS>BOND
     1    1    2 2
     2    1    3 1
     3    1    4 1
     4    1    8 1
     5    4   32 1
     6    5    6 2
     7    5    7 1
     8    5    8 1
     9    5   12 1
    10    9   10 2
    11    9   11 1
    12    9   12 1
    13    9   13 1
    14   13   14 1
    15   14   15 1
    16   14   33 1
    17   14   34 1
    18   15   16 1
    19   15   17 1
    20   15   35 1
    21   16   21 1
    22   17   18 1
    23   17   19 1
    24   17   36 1
    25   18   37 1
    26   19   20 1
    27   19   21 1
    28   19   38 1
    29   20   39 1
    30   21   22 1
    31   21   40 1
    32   22   23 ar
    33   22   31 ar
    34   23   24 ar
    35   23   41 1
    36   24   25 ar
    37   24   45 1
    38   25   26 ar
    39   25   31 ar
    40   26   27 2
    41   26   28 ar
    42   27   42 1
    43   28   29 ar
    44   28   44 1
    45   29   30 ar
    46   29   43 1
    47   30   31 ar
@<TRIPOS>SUBSTRUCTURE
     1 ATP         1 GROUP 0 A     ****
@<TRIPOS>MOLECULE
[[[3,4-dihydroxy-5-(6-imino-7,8-dihydro-1~{H}-purin-8-ylium-9-yl)tetrahydrofuran-2-yl]methoxy-oxido-phosphoryl]oxy-oxido-phosphoryl] hydrogen phosphate
   45    47     1     0     0
SMALL
USER_CHARGES

@<TRIPOS>ATOM
      1 PG          1.0630   -5.8553    7.9629 P.3       1 ATP         1.5631
      2 O1G         0.0196   -5.5336    9.0096 O.co2     1 ATP        -0.8806
      3 O2G         2.3722   -5.0996    7.9127 O.co2     1 ATP        -0.8806
      4 O3G         1.3892   -7.4537    8.0299 O.3       1 ATP        -0.8165
      5 PB         -0.9632   -6.5736    5.9326 P.3       1 ATP         1.6877
      6 O1B        -0.6831   -8.0591    5.8861 O.co2     1 ATP        -0.8727
      7 O2B        -2.1742   -6.0270    6.6554 O.co2     1 ATP        -0.8727
      8 O3B         0.3674   -5.8072    6.4872 O.3       1 ATP        -0.8330
      9 PA          0.1785   -6.1253    3.2400 P.3       1 ATP         1.6036
     10 O1A         0.2930   -7.5794    2.8365 O.co2     1 ATP        -0.9062
     11 O2A         1.4000   -5.3442    3.6730 O.co2     1 ATP        -0.9062
     12 O3A        -0.9569   -5.9919    4.4074 O.3       1 ATP        -0.8166
     13 O5'        -0.5687   -5.2869    2.0510 O.3       1 ATP        -0.5510
     14 C5'        -0.7840   -3.8935    2.2172 C.3       1 ATP         0.2099
     15 C4'        -0.0724   -3.1466    1.1027 C.3       1 ATP         0.0598
     16 O4'        -0.8674   -3.1929   -0.0945 O.3       1 ATP        -0.3455
     17 C3'         0.1338   -1.6715    1.4027 C.3       1 ATP         0.0742
     18 O3'         1.2893   -1.4445    2.1808 O.3       1 ATP        -0.6025
     19 C2'         0.2158   -1.0724    0.0128 C.3       1 ATP         0.1145
     20 O2'         1.5141   -1.2448   -0.5513 O.3       1 ATP        -0.5835
     21 C1'        -0.7897   -1.9176   -0.7583 C.3       1 ATP         0.3776
     22 N9         -2.1040   -1.3333   -0.7704 N.pl3     1 ATP        -0.4429
     23 C8         -3.0590   -1.5123    0.1363 C.ar      1 ATP         0.2964
     24 N7         -4.1655   -0.8354   -0.1554 N.pl3     1 ATP        -0.4957
     25 C5         -3.8852   -0.1874   -1.3253 C.ar      1 ATP        -0.1346
     26 C6         -4.7113    0.7160   -2.1458 C.ar      1 ATP         0.7213
     27 N6         -5.9213    1.0209   -1.8021 N.2       1 ATP        -0.8215
     28 N1         -4.0411    1.1673   -3.2764 N.pl3     1 ATP        -0.8455
     29 C2         -2.7403    0.7865   -3.5638 C.ar      1 ATP         0.6477
     30 N3         -1.9921   -0.0108   -2.8519 N.2       1 ATP        -0.5707
     31 C4         -2.6302   -0.4747   -1.7239 C.ar      1 ATP         0.2637
     32 HOG3        2.0524   -7.8214    7.4076 H         1 ATP         0.4378
     33 H5'1       -1.8598   -3.6968    2.1850 H         1 ATP         0.0340
     34 H5'2       -0.3933   -3.5903    3.1931 H         1 ATP         0.0340
     35 H4'         0.8874   -3.6466    0.8805 H         1 ATP         0.0910
     36 H3'        -0.7376   -1.2333    1.9867 H         1 ATP         0.0656
     37 HO3'        1.3408   -0.4870    2.3219 H         1 ATP         0.4386
     38 H2'        -0.0384   -0.0310    0.0096 H         1 ATP         0.0788
     39 HO2'        2.1463   -0.7958    0.0370 H         1 ATP         0.4363
     40 H1'        -0.4769   -2.1002   -1.8093 H         1 ATP         0.1225
     41 H8         -2.9569   -2.1323    1.0098 H         1 ATP         0.3824
     42 HN62       -6.3169    1.6552   -2.5012 H         1 ATP         0.4018
     43 H2         -2.3612    1.2343   -4.4957 H         1 ATP         0.0652
     44 H44        -4.5223    1.7976   -3.9117 H         1 ATP         0.4503
     45 H45        -5.0218   -0.8132    0.3804 H         1 ATP         0.5209
@<TRIPOS>BOND
     1    1    2 2
     2    1    3 1
     3    1    4 1
     4    1    8 1
     5    4   32 1
     6    5    6 2
     7    5    7 1
     8    5    8 1
     9    5   12 1
    10    9   10 2
    11    9   11 1
    12    9   12 1
    13    9   13 1
    14   13   14 1
    15   14   15 1
    16   14   33 1
    17   14   34 1
    18   15   16 1
    19   15   17 1
    20   15   35 1
    21   16   21 1
    22   17   18 1
    23   17   19 1
    24   17   36 1
    25   18   37 1
    26   19   20 1
    27   19   21 1
    28   19   38 1
    29   20   39 1
    30   21   22 1
    31   21   40 1
    32   22   23 ar
    33   22   31 ar
    34   23   24 ar
    35   23   41 1
    36   24   25 ar
    37   24   45 1
    38   25   26 ar
    39   25   31 ar
    40   26   27 2
    41   26   28 ar
    42   27   42 1
    43   28   29 ar
    44   28   44 1
    45   29   30 ar
    46   29   43 1
    47   30   31 ar
@<TRIPOS>SUBSTRUCTURE
     1 ATP         1 GROUP 0 A     ****
@<TRIPOS>MOLECULE
[[[3,4-dihydroxy-5-(6-imino-7,8-dihydro-1~{H}-purin-8-ylium-9-yl)tetrahydrofuran-2-yl]methoxy-oxido-phosphoryl]oxy-oxido-phosphoryl] hydrogen phosphate
   45    47     1     0     0
SMALL
USER_CHARGES

@<TRIPOS>ATOM
      1 PG         -0.7781   -9.4521    6.5835 P.3       1 ATP         1.5631
      2 O1G        -2.1095   -9.5921    7.2871 O.co2     1 ATP        -0.8806
      3 O2G         0.5142   -9.4034    7.3679 O.co2     1 ATP        -0.8806
      4 O3G        -0.6586  -10.6309    5.4600 O.3       1 ATP        -0.8165
      5 PB         -0.9632   -6.5736    5.9326 P.3       1 ATP         1.6877
      6 O1B        -2.3225   -6.3165    6.5439 O.co2     1 ATP        -0.8727
      7 O2B         0.3047   -6.1289    6.6269 O.co2     1 ATP        -0.8727
      8 O3B        -0.8387   -8.1636    5.5835 O.3       1 ATP        -0.8330
      9 PA          0.1785   -6.1253    3.2400 P.3       1 ATP         1.6036
     10 O1A         0.2930   -7.5794    2.8365 O.co2     1 ATP        -0.9062
     11 O2A         1.4000   -5.3442    3.6730 O.co2     1 ATP        -0.9062
     12 O3A        -0.9569   -5.9919    4.4074 O.3       1 ATP        -0.8166
     13 O5'        -0.5687   -5.2869    2.0510 O.3       1 ATP        -0.5510
     14 C5'        -0.7840   -3.8935    2.2172 C.3       1 ATP         0.2099
     15 C4'        -0.0724   -3.1466    1.1027 C.3       1 ATP         0.0598
     16 O4'        -0.8674   -3.1929   -0.0945 O.3       1 ATP        -0.3455
     17 C3'         0.1338   -1.6715    1.4027 C.3       1 ATP         0.0742
     18 O3'         1.2893   -1.4445    2.1808 O.3       1 ATP        -0.6025
     19 C2'         0.2158   -1.0724    0.0128 C.3       1 ATP         0.1145
     20 O2'         1.5141   -1.2448   -0.5513 O.3       1 ATP        -0.5835
     21 C1'        -0.7897   -1.9176   -0.7583 C.3       1 ATP         0.3776
     22 N9         -2.1040   -1.3333   -0.7704 N.pl3     1 ATP        -0.4429
     23 C8         -3.0590   -1.5123    0.1363 C.ar      1 ATP         0.2964
     24 N7         -4.1655   -0.8354   -0.1554 N.pl3     1 ATP        -0.4957
     25 C5         -3.8852   -0.1874   -1.3253 C.ar      1 ATP        -0.1346
     26 C6         -4.7113    0.7160   -2.1458 C.ar      1 ATP         0.7213
     27 N6         -5.9213    1.0209   -1.8021 N.2       1 ATP        -0.8215
     28 N1         -4.0411    1.1673   -3.2764 N.pl3     1 ATP        -0.8455
     29 C2         -2.7403    0.7865   -3.5638 C.ar      1 ATP         0.6477
     30 N3         -1.9921   -0.0108   -2.8519 N.2       1 ATP        -0.5707
     31 C4         -2.6302   -0.4747   -1.7239 C.ar      1 ATP         0.2637
     32 HOG3        0.1554  -10.6750    4.9144 H         1 ATP         0.4378
     33 H5'1       -1.8598   -3.6968    2.1850 H         1 ATP         0.0340
     34 H5'2       -0.3933   -3.5903    3.1931 H         1 ATP         0.0340
     35 H4'         0.8874   -3.6466    0.8805 H         1 ATP         0.0910
     36 H3'        -0.7376   -1.2333    1.9867 H         1 ATP         0.0656
     37 HO3'        1.1626   -1.9325    3.0084 H         1 ATP         0.4386
     38 H2'        -0.0384   -0.0310    0.0096 H         1 ATP         0.0788
     39 HO2'        1.4998   -0.8412   -1.4369 H         1 ATP         0.4363
     40 H1'        -0.4769   -2.1002   -1.8093 H         1 ATP         0.1225
     41 H8         -2.9569   -2.1323    1.0098 H         1 ATP         0.3824
     42 HN62       -6.3169    1.6552   -2.5012 H         1 ATP         0.4018
     43 H2         -2.3612    1.2343   -4.4957 H         1 ATP         0.0652
     44 H44        -4.5223    1.7976   -3.9117 H         1 ATP         0.4503
     45 H45        -5.0218   -0.8132    0.3804 H         1 ATP         0.5209
@<TRIPOS>BOND
     1    1    2 2
     2    1    3 1
     3    1    4 1
     4    1    8 1
     5    4   32 1
     6    5    6 2
     7    5    7 1
     8    5    8 1
     9    5   12 1
    10    9   10 2
    11    9   11 1
    12    9   12 1
    13    9   13 1
    14   13   14 1
    15   14   15 1
    16   14   33 1
    17   14   34 1
    18   15   16 1
    19   15   17 1
    20   15   35 1
    21   16   21 1
    22   17   18 1
    23   17   19 1
    24   17   36 1
    25   18   37 1
    26   19   20 1
    27   19   21 1
    28   19   38 1
    29   20   39 1
    30   21   22 1
    31   21   40 1
    32   22   23 ar
    33   22   31 ar
    34   23   24 ar
    35   23   41 1
    36   24   25 ar
    37   24   45 1
    38   25   26 ar
    39   25   31 ar
    40   26   27 2
    41   26   28 ar
    42   27   42 1
    43   28   29 ar
    44   28   44 1
    45   29   30 ar
    46   29   43 1
    47   30   31 ar
@<TRIPOS>SUBSTRUCTURE
     1 ATP         1 GROUP 0 A     ****
@<TRIPOS>MOLECULE
[[[3,4-dihydroxy-5-(6-imino-7,8-dihydro-1~{H}-purin-8-ylium-9-yl)tetrahydrofuran-2-yl]methoxy-oxido-phosphoryl]oxy-oxido-phosphoryl] hydrogen phosphate
   45    47     1     0     0
SMALL
USER_CHARGES

@<TRIPOS>ATOM
      1 PG          7.4666   -3.8563   -1.3520 P.3       1 ATP         1.5631
      2 O1G         8.8558   -3.3130   -1.6016 O.co2     1 ATP        -0.8806
      3 O2G         7.0625   -5.2214   -1.8627 O.co2     1 ATP        -0.8806
      4 O3G         7.1651   -3.7924    0.2514 O.3       1 ATP        -0.8165
      5 PB          6.0281   -2.2323   -3.3612 P.3       1 ATP         1.6877
      6 O1B         7.2189   -1.4618   -3.8866 O.co2     1 ATP        -0.8727
      7 O2B         5.4250   -3.3745   -4.1481 O.co2     1 ATP        -0.8727
      8 O3B         6.3686   -2.7577   -1.8534 O.3       1 ATP        -0.8330
      9 PA          3.9554   -0.2064   -3.9565 P.3       1 ATP         1.6036
     10 O1A         3.0908   -1.0733   -4.8460 O.co2     1 ATP        -0.9062
     11 O2A         4.8709    0.8412   -4.5514 O.co2     1 ATP        -0.9062
     12 O3A         4.8444   -1.1732   -2.9846 O.3       1 ATP        -0.8166
     13 O5'         3.0213    0.5153   -2.8245 O.3       1 ATP        -0.5510
     14 C5'         2.2816   -0.2918   -1.9206 C.3       1 ATP         0.2099
     15 C4'         2.7248    0.0226   -0.4980 C.3       1 ATP         0.0598
     16 O4'         2.4697    1.4219   -0.2462 O.3       1 ATP        -0.3455
     17 C3'         1.9404   -0.7419    0.5596 C.3       1 ATP         0.0742
     18 O3'         2.7418   -0.8086    1.7389 O.3       1 ATP        -0.6025
     19 C2'         0.7477    0.1630    0.7858 C.3       1 ATP         0.1145
     20 O2'         0.1373   -0.0577    2.0407 O.3       1 ATP        -0.5835
     21 C1'         1.3733    1.5427    0.6747 C.3       1 ATP         0.3776
     22 N9          0.4520    2.5240    0.1767 N.pl3     1 ATP        -0.4429
     23 C8         -0.8620    2.5492    0.3743 C.ar      1 ATP         0.2964
     24 N7         -1.4419    3.5886   -0.2183 N.pl3     1 ATP        -0.4957
     25 C5         -0.4215    4.2614   -0.8294 C.ar      1 ATP        -0.1346
     26 C6         -0.4310    5.4918   -1.6405 C.ar      1 ATP         0.7213
     27 N6         -1.5302    6.1308   -1.8826 N.2       1 ATP        -0.8215
     28 N1          0.8382    5.8461   -2.0817 N.pl3     1 ATP        -0.8455
     29 C2          1.9625    5.0982   -1.7709 C.ar      1 ATP         0.6477
     30 N3          1.9930    4.0077   -1.0554 N.2       1 ATP        -0.5707
     31 C4          0.7483    3.6314   -0.6038 C.ar      1 ATP         0.2637
     32 HOG3        6.2965   -4.1123    0.5762 H         1 ATP         0.4378
     33 H5'1        1.2163   -0.0770   -2.0471 H         1 ATP         0.0340
     34 H5'2        2.4655   -1.3443   -2.1563 H         1 ATP         0.0340
     35 H4'         3.8044   -0.1397   -0.4040 H         1 ATP         0.0910
     36 H3'         1.6764   -1.7639    0.2728 H         1 ATP         0.0656
     37 HO3'        2.2232   -1.2979    2.3953 H         1 ATP         0.4386
     38 H2'        -0.0011    0.0027    0.0003 H         1 ATP         0.0788
     39 HO2'       -0.1563   -0.9855    2.0596 H         1 ATP         0.4363
     40 H1'         1.7826    1.9024    1.6451 H         1 ATP         0.1225
     41 H8         -1.4030    1.8165    0.9473 H         1 ATP         0.3824
     42 HN62       -1.3197    6.9504   -2.4583 H         1 ATP         0.4018
     43 H2          2.8857    5.5186   -2.1994 H         1 ATP         0.0652
     44 H44         0.9433    6.6815   -2.6502 H         1 ATP         0.4503
     45 H45        -2.4254    3.8199   -0.2108 H         1 ATP         0.5209
@<TRIPOS>BOND
     1    1    2 2
     2    1    3 1
     3    1    4 1
     4    1    8 1
     5    4   32 1
     6    5    6 2
     7    5    7 1
     8    5    8 1
     9    5   12 1
    10    9   10 2
    11    9   11 1
    12    9   12 1
    13    9   13 1
    14   13   14 1
    15   14   15 1
    16   14   33 1
    17   14   34 1
    18   15   16 1
    19   15   17 1
    20   15   35 1
    21   16   21 1
    22   17   18 1
    23   17   19 1
    24   17   36 1
    25   18   37 1
    26   19   20 1
    27   19   21 1
    28   19   38 1
    29   20   39 1
    30   21   22 1
    31   21   40 1
    32   22   23 ar
    33   22   31 ar
    34   23   24 ar
    35   23   41 1
    36   24   25 ar
    37   24   45 1
    38   25   26 ar
    39   25   31 ar
    40   26   27 2
    41   26   28 ar
    42   27   42 1
    43   28   29 ar
    44   28   44 1
    45   29   30 ar
    46   29   43 1
    47   30   31 ar
@<TRIPOS>SUBSTRUCTURE
     1 ATP         1 GROUP 0 A     ****
@<TRIPOS>MOLECULE
[[[3,4-dihydroxy-5-(6-imino-7,8-dihydro-1~{H}-purin-8-ylium-9-yl)tetrahydrofuran-2-yl]methoxy-oxido-phosphoryl]oxy-oxido-phosphoryl] hydrogen phosphate
   45    47     1     0     0
SMALL
USER_CHARGES

@<TRIPOS>ATOM
      1 PG         -0.5318   -3.1126    8.6796 P.3       1 ATP         1.5631
      2 O1G         0.7305   -2.2816    8.7383 O.co2     1 ATP        -0.8806
      3 O2G        -0.5859   -4.4893    9.3038 O.co2     1 ATP        -0.8806
      4 O3G        -1.7657   -2.2245    9.2752 O.3       1 ATP        -0.8165
      5 PB         -2.3976   -3.8533    6.5084 P.3       1 ATP         1.6877
      6 O1B        -2.3786   -5.3494    6.7289 O.co2     1 ATP        -0.8727
      7 O2B        -3.5710   -3.0104    6.9558 O.co2     1 ATP        -0.8727
      8 O3B        -1.0284   -3.2155    7.1282 O.3       1 ATP        -0.8330
      9 PA         -3.0195   -3.8900    3.6158 P.3       1 ATP         1.6036
     10 O1A        -4.2922   -3.0740    3.6837 O.co2     1 ATP        -0.9062
     11 O2A        -3.0722   -5.3927    3.4462 O.co2     1 ATP        -0.9062
     12 O3A        -2.1088   -3.5532    4.9300 O.3       1 ATP        -0.8166
     13 O5'        -2.0415   -3.2792    2.4560 O.3       1 ATP        -0.5510
     14 C5'        -0.7840   -3.8935    2.2172 C.3       1 ATP         0.2099
     15 C4'        -0.0724   -3.1466    1.1027 C.3       1 ATP         0.0598
     16 O4'        -0.8674   -3.1929   -0.0945 O.3       1 ATP        -0.3455
     17 C3'         0.1338   -1.6715    1.4027 C.3       1 ATP         0.0742
     18 O3'         1.2893   -1.4445    2.1808 O.3       1 ATP        -0.6025
     19 C2'         0.2158   -1.0724    0.0128 C.3       1 ATP         0.1145
     20 O2'         1.5141   -1.2448   -0.5513 O.3       1 ATP        -0.5835
     21 C1'        -0.7897   -1.9176   -0.7583 C.3       1 ATP         0.3776
     22 N9         -2.1040   -1.3333   -0.7704 N.pl3     1 ATP        -0.4429
     23 C8         -3.2114   -1.8635   -0.2619 C.ar      1 ATP         0.2964
     24 N7         -4.2711   -1.0786   -0.4314 N.pl3     1 ATP        -0.4957
     25 C5         -3.7955    0.0193   -1.0917 C.ar      1 ATP        -0.1346
     26 C6         -4.4862    1.2344   -1.5586 C.ar      1 ATP         0.7213
     27 N6         -5.7554    1.4030   -1.3689 N.2       1 ATP        -0.8215
     28 N1         -3.6267    2.1218   -2.1949 N.pl3     1 ATP        -0.8455
     29 C2         -2.2761    1.8558   -2.3521 C.ar      1 ATP         0.6477
     30 N3         -1.6453    0.7881   -1.9466 N.2       1 ATP        -0.5707
     31 C4         -2.4722   -0.1108   -1.3117 C.ar      1 ATP         0.2637
     32 HOG3       -2.6595   -2.6277    9.3047 H         1 ATP         0.4378
     33 H5'1       -0.1949   -3.8603    3.1385 H         1 ATP         0.0340
     34 H5'2       -0.9496   -4.9375    1.9351 H         1 ATP         0.0340
     35 H4'         0.8874   -3.6466    0.8805 H         1 ATP         0.0910
     36 H3'        -0.7376   -1.2333    1.9867 H         1 ATP         0.0656
     37 HO3'        1.3408   -0.4870    2.3219 H         1 ATP         0.4386
     38 H2'        -0.0384   -0.0310    0.0096 H         1 ATP         0.0788
     39 HO2'        2.1463   -0.7958    0.0370 H         1 ATP         0.4363
     40 H1'        -0.4769   -2.1002   -1.8093 H         1 ATP         0.1225
     41 H8         -3.2547   -2.8183    0.2325 H         1 ATP         0.3824
     42 HN62       -6.0352    2.3041   -1.7656 H         1 ATP         0.4018
     43 H2         -1.7412    2.6624   -2.8773 H         1 ATP         0.0652
     44 H44        -4.0029    2.9939   -2.5557 H         1 ATP         0.4503
     45 H45        -5.2179   -1.2649   -0.1322 H         1 ATP         0.5209
@<TRIPOS>BOND
     1    1    2 2
     2    1    3 1
     3    1    4 1
     4    1    8 1
     5    4   32 1
     6    5    6 2
     7    5    7 1
     8    5    8 1
     9    5   12 1
    10    9   10 2
    11    9   11 1
    12    9   12 1
    13    9   13 1
    14   13   14 1
    15   14   15 1
    16   14   33 1
    17   14   34 1
    18   15   16 1
    19   15   17 1
    20   15   35 1
    21   16   21 1
    22   17   18 1
    23   17   19 1
    24   17   36 1
    25   18   37 1
    26   19   20 1
    27   19   21 1
    28   19   38 1
    29   20   39 1
    30   21   22 1
    31   21   40 1
    32   22   23 ar
    33   22   31 ar
    34   23   24 ar
    35   23   41 1
    36   24   25 ar
    37   24   45 1
    38   25   26 ar
    39   25   31 ar
    40   26   27 2
    41   26   28 ar
    42   27   42 1
    43   28   29 ar
    44   28   44 1
    45   29   30 ar
    46   29   43 1
    47   30   31 ar
@<TRIPOS>SUBSTRUCTURE
     1 ATP         1 GROUP 0 A     ****
@<TRIPOS>MOLECULE
[[[3,4-dihydroxy-5-(6-imino-7,8-dihydro-1~{H}-purin-8-ylium-9-yl)tetrahydrofuran-2-yl]methoxy-oxido-phosphoryl]oxy-oxido-phosphoryl] hydrogen phosphate
   45    47     1     0     0
SMALL
USER_CHARGES

@<TRIPOS>ATOM
      1 PG          0.0750   -5.0819    6.8169 P.3       1 ATP         1.5631
      2 O1G        -0.7634   -4.2596    5.8639 O.co2     1 ATP        -0.8806
      3 O2G         1.4583   -4.6271    7.2260 O.co2     1 ATP        -0.8806
      4 O3G        -0.7991   -5.3618    8.1673 O.3       1 ATP        -0.8165
      5 PB          0.8909   -7.1973    4.9189 P.3       1 ATP         1.6877
      6 O1B         2.3311   -6.7356    4.9072 O.co2     1 ATP        -0.8727
      7 O2B         0.5361   -8.6604    4.7737 O.co2     1 ATP        -0.8727
      8 O3B         0.1649   -6.6132    6.2595 O.3       1 ATP        -0.8330
      9 PA          0.1830   -6.3463    2.1748 P.3       1 ATP         1.6036
     10 O1A        -0.2401   -7.7040    1.6570 O.co2     1 ATP        -0.9062
     11 O2A         1.5263   -5.7595    1.7994 O.co2     1 ATP        -0.9062
     12 O3A         0.0586   -6.3434    3.8040 O.3       1 ATP        -0.8166
     13 O5'        -0.9724   -5.2440    1.8220 O.3       1 ATP        -0.5510
     14 C5'        -0.7840   -3.8935    2.2172 C.3       1 ATP         0.2099
     15 C4'        -0.0724   -3.1466    1.1027 C.3       1 ATP         0.0598
     16 O4'        -0.8674   -3.1929   -0.0945 O.3       1 ATP        -0.3455
     17 C3'         0.1338   -1.6715    1.4027 C.3       1 ATP         0.0742
     18 O3'         1.2893   -1.4445    2.1808 O.3       1 ATP        -0.6025
     19 C2'         0.2158   -1.0724    0.0128 C.3       1 ATP         0.1145
     20 O2'         1.5141   -1.2448   -0.5513 O.3       1 ATP        -0.5835
     21 C1'        -0.7897   -1.9176   -0.7583 C.3       1 ATP         0.3776
     22 N9         -2.1040   -1.3333   -0.7704 N.pl3     1 ATP        -0.4429
     23 C8         -3.0590   -1.5123    0.1363 C.ar      1 ATP         0.2964
     24 N7         -4.1655   -0.8354   -0.1554 N.pl3     1 ATP        -0.4957
     25 C5         -3.8852   -0.1874   -1.3253 C.ar      1 ATP        -0.1346
     26 C6         -4.7113    0.7160   -2.1458 C.ar      1 ATP         0.7213
     27 N6         -5.9213    1.0209   -1.8021 N.2       1 ATP        -0.8215
     28 N1         -4.0411    1.1673   -3.2764 N.pl3     1 ATP        -0.8455
     29 C2         -2.7403    0.7865   -3.5638 C.ar      1 ATP         0.6477
     30 N3         -1.9921   -0.0108   -2.8519 N.2       1 ATP        -0.5707
     31 C4         -2.6302   -0.4747   -1.7239 C.ar      1 ATP         0.2637
     32 HOG3       -0.3900   -5.8870    8.8878 H         1 ATP         0.4378
     33 H5'1       -1.7618   -3.4448    2.4164 H         1 ATP         0.0340
     34 H5'2       -0.1874   -3.8744    3.1341 H         1 ATP         0.0340
     35 H4'         0.8874   -3.6466    0.8805 H         1 ATP         0.0910
     36 H3'        -0.7376   -1.2333    1.9867 H         1 ATP         0.0656
     37 HO3'        1.1626   -1.9325    3.0084 H         1 ATP         0.4386
     38 H2'        -0.0384   -0.0310    0.0096 H         1 ATP         0.0788
     39 HO2'        2.1463   -0.7958    0.0370 H         1 ATP         0.4363
     40 H1'        -0.4769   -2.1002   -1.8093 H         1 ATP         0.1225
     41 H8         -2.9569   -2.1323    1.0098 H         1 ATP         0.3824
     42 HN62       -6.3169    1.6552   -2.5012 H         1 ATP         0.4018
     43 H2         -2.3612    1.2343   -4.4957 H         1 ATP         0.0652
     44 H44        -4.5223    1.7976   -3.9117 H         1 ATP         0.4503
     45 H45        -5.0218   -0.8132    0.3804 H         1 ATP         0.5209
@<TRIPOS>BOND
     1    1    2 2
     2    1    3 1
     3    1    4 1
     4    1    8 1
     5    4   32 1
     6    5    6 2
     7    5    7 1
     8    5    8 1
     9    5   12 1
    10    9   10 2
    11    9   11 1
    12    9   12 1
    13    9   13 1
    14   13   14 1
    15   14   15 1
    16   14   33 1
    17   14   34 1
    18   15   16 1
    19   15   17 1
    20   15   35 1
    21   16   21 1
    22   17   18 1
    23   17   19 1
    24   17   36 1
    25   18   37 1
    26   19   20 1
    27   19   21 1
    28   19   38 1
    29   20   39 1
    30   21   22 1
    31   21   40 1
    32   22   23 ar
    33   22   31 ar
    34   23   24 ar
    35   23   41 1
    36   24   25 ar
    37   24   45 1
    38   25   26 ar
    39   25   31 ar
    40   26   27 2
    41   26   28 ar
    42   27   42 1
    43   28   29 ar
    44   28   44 1
    45   29   30 ar
    46   29   43 1
    47   30   31 ar
@<TRIPOS>SUBSTRUCTURE
     1 ATP         1 GROUP 0 A     ****
@<TRIPOS>MOLECULE
[[[3,4-dihydroxy-5-(6-imino-7,8-dihydro-1~{H}-purin-8-ylium-9-yl)tetrahydrofuran-2-yl]methoxy-oxido-phosphoryl]oxy-oxido-phosphoryl] hydrogen phosphate
   45    47     1     0     0
SMALL
USER_CHARGES

@<TRIPOS>ATOM
      1 PG          9.1311    1.0167   -3.4201 P.3       1 ATP         1.5631
      2 O1G         9.6801   -0.2451   -4.0478 O.co2     1 ATP        -0.8806
      3 O2G         9.8490    1.6890   -2.2710 O.co2     1 ATP        -0.8806
      4 O3G         8.8917    2.1207   -4.5989 O.3       1 ATP        -0.8165
      5 PB          6.9461   -0.2229   -1.8604 P.3       1 ATP         1.6877
      6 O1B         7.1913   -1.6565   -2.2754 O.co2     1 ATP        -0.8727
      7 O2B         7.3629    0.2800   -0.4962 O.co2     1 ATP        -0.8727
      8 O3B         7.5748    0.7659   -2.9973 O.3       1 ATP        -0.8330
      9 PA          4.4374   -0.0466   -3.4193 P.3       1 ATP         1.6036
     10 O1A         4.3033   -1.5210   -3.7328 O.co2     1 ATP        -0.9062
     11 O2A         4.9277    0.9261   -4.4696 O.co2     1 ATP        -0.9062
     12 O3A         5.3672    0.1247   -2.0867 O.3       1 ATP        -0.8166
     13 O5'         3.0213    0.5153   -2.8245 O.3       1 ATP        -0.5510
     14 C5'         2.2816   -0.2918   -1.9206 C.3       1 ATP         0.2099
     15 C4'         2.7248    0.0226   -0.4980 C.3       1 ATP         0.0598
     16 O4'         2.4697    1.4219   -0.2462 O.3       1 ATP        -0.3455
     17 C3'         1.9404   -0.7419    0.5596 C.3       1 ATP         0.0742
     18 O3'         2.7418   -0.8086    1.7389 O.3       1 ATP        -0.6025
     19 C2'         0.7477    0.1630    0.7858 C.3       1 ATP         0.1145
     20 O2'         0.1373   -0.0577    2.0407 O.3       1 ATP        -0.5835
     21 C1'         1.3733    1.5427    0.6747 C.3       1 ATP         0.3776
     22 N9          0.4520    2.5240    0.1767 N.pl3     1 ATP        -0.4429
     23 C8         -0.2004    2.4829   -0.9804 C.ar      1 ATP         0.2964
     24 N7         -0.9830    3.5431   -1.1568 N.pl3     1 ATP        -0.4957
     25 C5         -0.8095    4.3012   -0.0331 C.ar      1 ATP        -0.1346
     26 C6         -1.4065    5.5904    0.3585 C.ar      1 ATP         0.7213
     27 N6         -2.2501    6.2030   -0.4084 N.2       1 ATP        -0.8215
     28 N1         -0.9585    6.0272    1.5994 N.pl3     1 ATP        -0.8455
     29 C2         -0.0508    5.3009    2.3532 C.ar      1 ATP         0.6477
     30 N3          0.4890    4.1592    2.0257 N.2       1 ATP        -0.5707
     31 C4          0.0637    3.7006    0.7995 C.ar      1 ATP         0.2637
     32 HOG3        8.5354    3.0000   -4.3497 H         1 ATP         0.4378
     33 H5'1        1.2163   -0.0770   -2.0471 H         1 ATP         0.0340
     34 H5'2        2.4655   -1.3443   -2.1563 H         1 ATP         0.0340
     35 H4'         3.8044   -0.1397   -0.4040 H         1 ATP         0.0910
     36 H3'         1.6764   -1.7639    0.2728 H         1 ATP         0.0656
     37 HO3'        3.5554   -1.2733    1.4914 H         1 ATP         0.4386
     38 H2'        -0.0011    0.0027    0.0003 H         1 ATP         0.0788
     39 HO2'       -0.1563   -0.9855    2.0596 H         1 ATP         0.4363
     40 H1'         1.7826    1.9024    1.6451 H         1 ATP         0.1225
     41 H8         -0.1116    1.6863   -1.6984 H         1 ATP         0.3824
     42 HN62       -2.5420    7.0730    0.0447 H         1 ATP         0.4018
     43 H2          0.1969    5.7893    3.3086 H         1 ATP         0.0652
     44 H44        -1.3097    6.9080    1.9642 H         1 ATP         0.4503
     45 H45        -1.5735    3.7351   -1.9538 H         1 ATP         0.5209
@<TRIPOS>BOND
     1    1    2 2
     2    1    3 1
     3    1    4 1
     4    1    8 1
     5    4   32 1
     6    5    6 2
     7    5    7 1
     8    5    8 1
     9    5   12 1
    10    9   10 2
    11    9   11 1
    12    9   12 1
    13    9   13 1
    14   13   14 1
    15   14   15 1
    16   14   33 1
    17   14   34 1
    18   15   16 1
    19   15   17 1
    20   15   35 1
    21   16   21 1
    22   17   18 1
    23   17   19 1
    24   17   36 1
    25   18   37 1
    26   19   20 1
    27   19   21 1
    28   19   38 1
    29   20   39 1
    30   21   22 1
    31   21   40 1
    32   22   23 ar
    33   22   31 ar
    34   23   24 ar
    35   23   41 1
    36   24   25 ar
    37   24   45 1
    38   25   26 ar
    39   25   31 ar
    40   26   27 2
    41   26   28 ar
    42   27   42 1
    43   28   29 ar
    44   28   44 1
    45   29   30 ar
    46   29   43 1
    47   30   31 ar
@<TRIPOS>SUBSTRUCTURE
     1 ATP         1 GROUP 0 A     ****
@<TRIPOS>MOLECULE
[[[3,4-dihydroxy-5-(6-imino-7,8-dihydro-1~{H}-purin-8-ylium-9-yl)tetrahydrofuran-2-yl]methoxy-oxido-phosphoryl]oxy-oxido-phosphoryl] hydrogen phosphate
   45    47     1     0     0
SMALL
USER_CHARGES

@<TRIPOS>ATOM
      1 PG          1.3972   -0.8149   -8.1831 P.3       1 ATP         1.5631
      2 O1G         0.0141   -0.2094   -8.0953 O.co2     1 ATP        -0.8806
      3 O2G         1.6455   -2.0730   -8.9852 O.co2     1 ATP        -0.8806
      4 O3G         2.4366    0.3373   -8.6910 O.3       1 ATP        -0.8165
      5 PB          3.4664   -1.4950   -6.1831 P.3       1 ATP         1.6877
      6 O1B         3.6827   -2.9330   -6.5989 O.co2     1 ATP        -0.8727
      7 O2B         4.4611   -0.4158   -6.5485 O.co2     1 ATP        -0.8727
      8 O3B         1.9815   -1.0260   -6.6738 O.3       1 ATP        -0.8330
      9 PA          2.1372   -2.2718   -3.6563 P.3       1 ATP         1.6036
     10 O1A         2.4859   -3.7437   -3.7017 O.co2     1 ATP        -0.9062
     11 O2A         0.7459   -1.7951   -4.0125 O.co2     1 ATP        -0.9062
     12 O3A         3.2120   -1.4489   -4.5713 O.3       1 ATP        -0.8166
     13 O5'         2.5245   -1.6648   -2.1878 O.3       1 ATP        -0.5510
     14 C5'         2.2816   -0.2918   -1.9206 C.3       1 ATP         0.2099
     15 C4'         2.7248    0.0226   -0.4980 C.3       1 ATP         0.0598
     16 O4'         2.4697    1.4219   -0.2462 O.3       1 ATP        -0.3455
     17 C3'         1.9404   -0.7419    0.5596 C.3       1 ATP         0.0742
     18 O3'         2.7418   -0.8086    1.7389 O.3       1 ATP        -0.6025
     19 C2'         0.7477    0.1630    0.7858 C.3       1 ATP         0.1145
     20 O2'         0.1373   -0.0577    2.0407 O.3       1 ATP        -0.5835
     21 C1'         1.3733    1.5427    0.6747 C.3       1 ATP         0.3776
     22 N9          0.4520    2.5240    0.1767 N.pl3     1 ATP        -0.4429
     23 C8         -0.8620    2.5492    0.3743 C.ar      1 ATP         0.2964
     24 N7         -1.4419    3.5886   -0.2183 N.pl3     1 ATP        -0.4957
     25 C5         -0.4215    4.2614   -0.8294 C.ar      1 ATP        -0.1346
     26 C6         -0.4310    5.4918   -1.6405 C.ar      1 ATP         0.7213
     27 N6         -1.5302    6.1308   -1.8826 N.2       1 ATP        -0.8215
     28 N1          0.8382    5.8461   -2.0817 N.pl3     1 ATP        -0.8455
     29 C2          1.9625    5.0982   -1.7709 C.ar      1 ATP         0.6477
     30 N3          1.9930    4.0077   -1.0554 N.2       1 ATP        -0.5707
     31 C4          0.7483    3.6314   -0.6038 C.ar      1 ATP         0.2637
     32 HOG3        3.3819    0.0986   -8.7992 H         1 ATP         0.4378
     33 H5'1        2.8432    0.3119   -2.6398 H         1 ATP         0.0340
     34 H5'2        1.2128   -0.0927   -2.0428 H         1 ATP         0.0340
     35 H4'         3.8044   -0.1397   -0.4040 H         1 ATP         0.0910
     36 H3'         1.6764   -1.7639    0.2728 H         1 ATP         0.0656
     37 HO3'        2.2232   -1.2979    2.3953 H         1 ATP         0.4386
     38 H2'        -0.0011    0.0027    0.0003 H         1 ATP         0.0788
     39 HO2'       -0.1563   -0.9855    2.0596 H         1 ATP         0.4363
     40 H1'         1.7826    1.9024    1.6451 H         1 ATP         0.1225
     41 H8         -1.4030    1.8165    0.9473 H         1 ATP         0.3824
     42 HN62       -1.3197    6.9504   -2.4583 H         1 ATP         0.4018
     43 H2          2.8857    5.5186   -2.1994 H         1 ATP         0.0652
     44 H44         0.9433    6.6815   -2.6502 H         1 ATP         0.4503
     45 H45        -2.4254    3.8199   -0.2108 H         1 ATP         0.5209
@<TRIPOS>BOND
     1    1    2 2
     2    1    3 1
     3    1    4 1
     4    1    8 1
     5    4   32 1
     6    5    6 2
     7    5    7 1
     8    5    8 1
     9    5   12 1
    10    9   10 2
    11    9   11 1
    12    9   12 1
    13    9   13 1
    14   13   14 1
    15   14   15 1
    16   14   33 1
    17   14   34 1
    18   15   16 1
    19   15   17 1
    20   15   35 1
    21   16   21 1
    22   17   18 1
    23   17   19 1
    24   17   36 1
    25   18   37 1
    26   19   20 1
    27   19   21 1
    28   19   38 1
    29   20   39 1
    30   21   22 1
    31   21   40 1
    32   22   23 ar
    33   22   31 ar
    34   23   24 ar
    35   23   41 1
    36   24   25 ar
    37   24   45 1
    38   25   26 ar
    39   25   31 ar
    40   26   27 2
    41   26   28 ar
    42   27   42 1
    43   28   29 ar
    44   28   44 1
    45   29   30 ar
    46   29   43 1
    47   30   31 ar
@<TRIPOS>SUBSTRUCTURE
     1 ATP         1 GROUP 0 A     ****
@<TRIPOS>MOLECULE
[[[3,4-dihydroxy-5-(6-imino-7,8-dihydro-1~{H}-purin-8-ylium-9-yl)tetrahydrofuran-2-yl]methoxy-oxido-phosphoryl]oxy-oxido-phosphoryl] hydrogen phosphate
   45    47     1     0     0
SMALL
USER_CHARGES

@<TRIPOS>ATOM
      1 PG          5.7209   -4.8173    3.1733 P.3       1 ATP         1.5631
      2 O1G         6.1848   -3.7075    2.2563 O.co2     1 ATP        -0.8806
      3 O2G         6.3935   -6.1719    3.1560 O.co2     1 ATP        -0.8806
      4 O3G         5.7222   -4.2573    4.7070 O.3       1 ATP        -0.8165
      5 PB          3.0749   -5.9657    3.8236 P.3       1 ATP         1.6877
      6 O1B         3.4138   -7.4152    3.5564 O.co2     1 ATP        -0.8727
      7 O2B         2.9667   -5.4338    5.2353 O.co2     1 ATP        -0.8727
      8 O3B         4.1126   -5.0228    2.9871 O.3       1 ATP        -0.8330
      9 PA          0.1785   -6.1253    3.2400 P.3       1 ATP         1.6036
     10 O1A        -0.3146   -5.6401    4.5860 O.co2     1 ATP        -0.9062
     11 O2A         0.1316   -7.5950    2.8829 O.co2     1 ATP        -0.9062
     12 O3A         1.7063   -5.5909    3.0164 O.3       1 ATP        -0.8166
     13 O5'        -0.5687   -5.2869    2.0510 O.3       1 ATP        -0.5510
     14 C5'        -0.7840   -3.8935    2.2172 C.3       1 ATP         0.2099
     15 C4'        -0.0724   -3.1466    1.1027 C.3       1 ATP         0.0598
     16 O4'        -0.8674   -3.1929   -0.0945 O.3       1 ATP        -0.3455
     17 C3'         0.1338   -1.6715    1.4027 C.3       1 ATP         0.0742
     18 O3'         1.2893   -1.4445    2.1808 O.3       1 ATP        -0.6025
     19 C2'         0.2158   -1.0724    0.0128 C.3       1 ATP         0.1145
     20 O2'         1.5141   -1.2448   -0.5513 O.3       1 ATP        -0.5835
     21 C1'        -0.7897   -1.9176   -0.7583 C.3       1 ATP         0.3776
     22 N9         -2.1040   -1.3333   -0.7704 N.pl3     1 ATP        -0.4429
     23 C8         -3.0590   -1.5123    0.1363 C.ar      1 ATP         0.2964
     24 N7         -4.1655   -0.8354   -0.1554 N.pl3     1 ATP        -0.4957
     25 C5         -3.8852   -0.1874   -1.3253 C.ar      1 ATP        -0.1346
     26 C6         -4.7113    0.7160   -2.1458 C.ar      1 ATP         0.7213
     27 N6         -5.9213    1.0209   -1.8021 N.2       1 ATP        -0.8215
     28 N1         -4.0411    1.1673   -3.2764 N.pl3     1 ATP        -0.8455
     29 C2         -2.7403    0.7865   -3.5638 C.ar      1 ATP         0.6477
     30 N3         -1.9921   -0.0108   -2.8519 N.2       1 ATP        -0.5707
     31 C4         -2.6302   -0.4747   -1.7239 C.ar      1 ATP         0.2637
     32 HOG3        5.4433   -4.8639    5.4257 H         1 ATP         0.4378
     33 H5'1       -1.8598   -3.6968    2.1850 H         1 ATP         0.0340
     34 H5'2       -0.3933   -3.5903    3.1931 H         1 ATP         0.0340
     35 H4'         0.8874   -3.6466    0.8805 H         1 ATP         0.0910
     36 H3'        -0.7376   -1.2333    1.9867 H         1 ATP         0.0656
     37 HO3'        1.1626   -1.9325    3.0084 H         1 ATP         0.4386
     38 H2'        -0.0384   -0.0310    0.0096 H         1 ATP         0.0788
     39 HO2'        1.4998   -0.8412   -1.4369 H         1 ATP         0.4363
     40 H1'        -0.4769   -2.1002   -1.8093 H         1 ATP         0.1225
     41 H8         -2.9569   -2.1323    1.0098 H         1 ATP         0.3824
     42 HN62       -6.3169    1.6552   -2.5012 H         1 ATP         0.4018
     43 H2         -2.3612    1.2343   -4.4957 H         1 ATP         0.0652
     44 H44        -4.5223    1.7976   -3.9117 H         1 ATP         0.4503
     45 H45        -5.0218   -0.8132    0.3804 H         1 ATP         0.5209
@<TRIPOS>BOND
     1    1    2 2
     2    1    3 1
     3    1    4 1
     4    1    8 1
     5    4   32 1
     6    5    6 2
     7    5    7 1
     8    5    8 1
     9    5   12 1
    10    9   10 2
    11    9   11 1
    12    9   12 1
    13    9   13 1
    14   13   14 1
    15   14   15 1
    16   14   33 1
    17   14   34 1
    18   15   16 1
    19   15   17 1
    20   15   35 1
    21   16   21 1
    22   17   18 1
    23   17   19 1
    24   17   36 1
    25   18   37 1
    26   19   20 1
    27   19   21 1
    28   19   38 1
    29   20   39 1
    30   21   22 1
    31   21   40 1
    32   22   23 ar
    33   22   31 ar
    34   23   24 ar
    35   23   41 1
    36   24   25 ar
    37   24   45 1
    38   25   26 ar
    39   25   31 ar
    40   26   27 2
    41   26   28 ar
    42   27   42 1
    43   28   29 ar
    44   28   44 1
    45   29   30 ar
    46   29   43 1
    47   30   31 ar
@<TRIPOS>SUBSTRUCTURE
     1 ATP         1 GROUP 0 A     ****
@<TRIPOS>MOLECULE
[[[3,4-dihydroxy-5-(6-imino-7,8-dihydro-1~{H}-purin-8-ylium-9-yl)tetrahydrofuran-2-yl]methoxy-oxido-phosphoryl]oxy-oxido-phosphoryl] hydrogen phosphate
   45    47     1     0     0
SMALL
USER_CHARGES

@<TRIPOS>ATOM
      1 PG          1.7632    4.0438   -7.3320 P.3       1 ATP         1.5631
      2 O1G         1.9192    5.4651   -6.8390 O.co2     1 ATP        -0.8806
      3 O2G         0.5745    3.6399   -8.1756 O.co2     1 ATP        -0.8806
      4 O3G         3.1276    3.6154   -8.1199 O.3       1 ATP        -0.8165
      5 PB          0.8834    2.8247   -4.7858 P.3       1 ATP         1.6877
      6 O1B         0.9210    4.0777   -3.9396 O.co2     1 ATP        -0.8727
      7 O2B        -0.4264    2.2519   -5.2795 O.co2     1 ATP        -0.8727
      8 O3B         1.8813    3.0252   -6.0624 O.3       1 ATP        -0.8330
      9 PA          3.2344    1.6562   -3.4210 P.3       1 ATP         1.6036
     10 O1A         3.3058    2.6484   -2.2804 O.co2     1 ATP        -0.9062
     11 O2A         4.1989    1.7434   -4.5836 O.co2     1 ATP        -0.9062
     12 O3A         1.7125    1.6481   -4.0156 O.3       1 ATP        -0.8166
     13 O5'         3.2903    0.1346   -2.8241 O.3       1 ATP        -0.5510
     14 C5'         2.2816   -0.2918   -1.9206 C.3       1 ATP         0.2099
     15 C4'         2.7248    0.0226   -0.4980 C.3       1 ATP         0.0598
     16 O4'         2.4697    1.4219   -0.2462 O.3       1 ATP        -0.3455
     17 C3'         1.9404   -0.7419    0.5596 C.3       1 ATP         0.0742
     18 O3'         2.7418   -0.8086    1.7389 O.3       1 ATP        -0.6025
     19 C2'         0.7477    0.1630    0.7858 C.3       1 ATP         0.1145
     20 O2'         0.1373   -0.0577    2.0407 O.3       1 ATP        -0.5835
     21 C1'         1.3733    1.5427    0.6747 C.3       1 ATP         0.3776
     22 N9          0.4520    2.5240    0.1767 N.pl3     1 ATP        -0.4429
     23 C8         -0.2004    2.4829   -0.9804 C.ar      1 ATP         0.2964
     24 N7         -0.9830    3.5431   -1.1568 N.pl3     1 ATP        -0.4957
     25 C5         -0.8095    4.3012   -0.0331 C.ar      1 ATP        -0.1346
     26 C6         -1.4065    5.5904    0.3585 C.ar      1 ATP         0.7213
     27 N6         -2.2501    6.2030   -0.4084 N.2       1 ATP        -0.8215
     28 N1         -0.9585    6.0272    1.5994 N.pl3     1 ATP        -0.8455
     29 C2         -0.0508    5.3009    2.3532 C.ar      1 ATP         0.6477
     30 N3          0.4890    4.1592    2.0257 N.2       1 ATP        -0.5707
     31 C4          0.0637    3.7006    0.7995 C.ar      1 ATP         0.2637
     32 HOG3        3.1823    2.7137   -8.5023 H         1 ATP         0.4378
     33 H5'1        1.3514    0.2330   -2.1577 H         1 ATP         0.0340
     34 H5'2        2.1280   -1.3678   -2.0460 H         1 ATP         0.0340
     35 H4'         3.8044   -0.1397   -0.4040 H         1 ATP         0.0910
     36 H3'         1.6764   -1.7639    0.2728 H         1 ATP         0.0656
     37 HO3'        2.2232   -1.2979    2.3953 H         1 ATP         0.4386
     38 H2'        -0.0011    0.0027    0.0003 H         1 ATP         0.0788
     39 HO2'       -0.6141    0.5574    2.1082 H         1 ATP         0.4363
     40 H1'         1.7826    1.9024    1.6451 H         1 ATP         0.1225
     41 H8         -0.1116    1.6863   -1.6984 H         1 ATP         0.3824
     42 HN62       -2.5420    7.0730    0.0447 H         1 ATP         0.4018
     43 H2          0.1969    5.7893    3.3086 H         1 ATP         0.0652
     44 H44        -1.3097    6.9080    1.9642 H         1 ATP         0.4503
     45 H45        -1.5735    3.7351   -1.9538 H         1 ATP         0.5209
@<TRIPOS>BOND
     1    1    2 2
     2    1    3 1
     3    1    4 1
     4    1    8 1
     5    4   32 1
     6    5    6 2
     7    5    7 1
     8    5    8 1
     9    5   12 1
    10    9   10 2
    11    9   11 1
    12    9   12 1
    13    9   13 1
    14   13   14 1
    15   14   15 1
    16   14   33 1
    17   14   34 1
    18   15   16 1
    19   15   17 1
    20   15   35 1
    21   16   21 1
    22   17   18 1
    23   17   19 1
    24   17   36 1
    25   18   37 1
    26   19   20 1
    27   19   21 1
    28   19   38 1
    29   20   39 1
    30   21   22 1
    31   21   40 1
    32   22   23 ar
    33   22   31 ar
    34   23   24 ar
    35   23   41 1
    36   24   25 ar
    37   24   45 1
    38   25   26 ar
    39   25   31 ar
    40   26   27 2
    41   26   28 ar
    42   27   42 1
    43   28   29 ar
    44   28   44 1
    45   29   30 ar
    46   29   43 1
    47   30   31 ar
@<TRIPOS>SUBSTRUCTURE
     1 ATP         1 GROUP 0 A     ****
@<TRIPOS>MOLECULE
[[[3,4-dihydroxy-5-(6-imino-7,8-dihydro-1~{H}-purin-8-ylium-9-yl)tetrahydrofuran-2-yl]methoxy-oxido-phosphoryl]oxy-oxido-phosphoryl] hydrogen phosphate
   45    47     1     0     0
SMALL
USER_CHARGES

@<TRIPOS>ATOM
      1 PG         -3.1463   -9.6892    5.5023 P.3       1 ATP         1.5631
      2 O1G        -2.5438  -10.8983    4.8223 O.co2     1 ATP        -0.8806
      3 O2G        -4.6357   -9.5981    5.7494 O.co2     1 ATP        -0.8806
      4 O3G        -2.3702   -9.4503    6.9189 O.3       1 ATP        -0.8165
      5 PB         -2.8753   -6.7710    5.1097 P.3       1 ATP         1.6877
      6 O1B        -4.3482   -6.4454    4.9998 O.co2     1 ATP        -0.8727
      7 O2B        -2.0985   -6.4699    6.3720 O.co2     1 ATP        -0.8727
      8 O3B        -2.6562   -8.3418    4.7224 O.3       1 ATP        -0.8330
      9 PA         -0.5379   -6.2517    3.3713 P.3       1 ATP         1.6036
     10 O1A        -0.2956   -7.6832    2.9444 O.co2     1 ATP        -0.9062
     11 O2A         0.3403   -5.5964    4.4149 O.co2     1 ATP        -0.9062
     12 O3A        -2.0952   -6.1004    3.8421 O.3       1 ATP        -0.8166
     13 O5'        -0.5687   -5.2869    2.0510 O.3       1 ATP        -0.5510
     14 C5'        -0.7840   -3.8935    2.2172 C.3       1 ATP         0.2099
     15 C4'        -0.0724   -3.1466    1.1027 C.3       1 ATP         0.0598
     16 O4'        -0.8674   -3.1929   -0.0945 O.3       1 ATP        -0.3455
     17 C3'         0.1338   -1.6715    1.4027 C.3       1 ATP         0.0742
     18 O3'         1.2893   -1.4445    2.1808 O.3       1 ATP        -0.6025
     19 C2'         0.2158   -1.0724    0.0128 C.3       1 ATP         0.1145
     20 O2'         1.5141   -1.2448   -0.5513 O.3       1 ATP        -0.5835
     21 C1'        -0.7897   -1.9176   -0.7583 C.3       1 ATP         0.3776
     22 N9         -2.1040   -1.3333   -0.7704 N.pl3     1 ATP        -0.4429
     23 C8         -3.0590   -1.5123    0.1363 C.ar      1 ATP         0.2964
     24 N7         -4.1655   -0.8354   -0.1554 N.pl3     1 ATP        -0.4957
     25 C5         -3.8852   -0.1874   -1.3253 C.ar      1 ATP        -0.1346
     26 C6         -4.7113    0.7160   -2.1458 C.ar      1 ATP         0.7213
     27 N6         -5.9213    1.0209   -1.8021 N.2       1 ATP        -0.8215
     28 N1         -4.0411    1.1673   -3.2764 N.pl3     1 ATP        -0.8455
     29 C2         -2.7403    0.7865   -3.5638 C.ar      1 ATP         0.6477
     30 N3         -1.9921   -0.0108   -2.8519 N.2       1 ATP        -0.5707
     31 C4         -2.6302   -0.4747   -1.7239 C.ar      1 ATP         0.2637
     32 HOG3       -2.6482   -8.6969    7.4823 H         1 ATP         0.4378
     33 H5'1       -1.8598   -3.6968    2.1850 H         1 ATP         0.0340
     34 H5'2       -0.3933   -3.5903    3.1931 H         1 ATP         0.0340
     35 H4'         0.8874   -3.6466    0.8805 H         1 ATP         0.0910
     36 H3'        -0.7376   -1.2333    1.9867 H         1 ATP         0.0656
     37 HO3'        1.3408   -0.4870    2.3219 H         1 ATP         0.4386
     38 H2'        -0.0384   -0.0310    0.0096 H         1 ATP         0.0788
     39 HO2'        1.4998   -0.8412   -1.4369 H         1 ATP         0.4363
     40 H1'        -0.4769   -2.1002   -1.8093 H         1 ATP         0.1225
     41 H8         -2.9569   -2.1323    1.0098 H         1 ATP         0.3824
     42 HN62       -6.3169    1.6552   -2.5012 H         1 ATP         0.4018
     43 H2         -2.3612    1.2343   -4.4957 H         1 ATP         0.0652
     44 H44        -4.5223    1.7976   -3.9117 H         1 ATP         0.4503
     45 H45        -5.0218   -0.8132    0.3804 H         1 ATP         0.5209
@<TRIPOS>BOND
     1    1    2 2
     2    1    3 1
     3    1    4 1
     4    1    8 1
     5    4   32 1
     6    5    6 2
     7    5    7 1
     8    5    8 1
     9    5   12 1
    10    9   10 2
    11    9   11 1
    12    9   12 1
    13    9   13 1
    14   13   14 1
    15   14   15 1
    16   14   33 1
    17   14   34 1
    18   15   16 1
    19   15   17 1
    20   15   35 1
    21   16   21 1
    22   17   18 1
    23   17   19 1
    24   17   36 1
    25   18   37 1
    26   19   20 1
    27   19   21 1
    28   19   38 1
    29   20   39 1
    30   21   22 1
    31   21   40 1
    32   22   23 ar
    33   22   31 ar
    34   23   24 ar
    35   23   41 1
    36   24   25 ar
    37   24   45 1
    38   25   26 ar
    39   25   31 ar
    40   26   27 2
    41   26   28 ar
    42   27   42 1
    43   28   29 ar
    44   28   44 1
    45   29   30 ar
    46   29   43 1
    47   30   31 ar
@<TRIPOS>SUBSTRUCTURE
     1 ATP         1 GROUP 0 A     ****
@<TRIPOS>MOLECULE
[[[3,4-dihydroxy-5-(6-imino-7,8-dihydro-1~{H}-purin-8-ylium-9-yl)tetrahydrofuran-2-yl]methoxy-oxido-phosphoryl]oxy-oxido-phosphoryl] hydrogen phosphate
   45    47     1     0     0
SMALL
USER_CHARGES

@<TRIPOS>ATOM
      1 PG          3.5162   -4.1560    4.8984 P.3       1 ATP         1.5631
      2 O1G         3.0038   -3.7440    3.5364 O.co2     1 ATP        -0.8806
      3 O2G         4.5852   -5.2169    5.0385 O.co2     1 ATP        -0.8806
      4 O3G         4.0066   -2.8176    5.6948 O.3       1 ATP        -0.8165
      5 PB          1.2029   -5.8036    5.7216 P.3       1 ATP         1.6877
      6 O1B         1.9930   -7.0903    5.6347 O.co2     1 ATP        -0.8727
      7 O2B         0.1092   -5.6239    6.7507 O.co2     1 ATP        -0.8727
      8 O3B         2.2478   -4.5551    5.8448 O.3       1 ATP        -0.8330
      9 PA         -0.5379   -6.2517    3.3713 P.3       1 ATP         1.6036
     10 O1A        -1.8637   -6.1587    4.0951 O.co2     1 ATP        -0.9062
     11 O2A         0.0275   -7.5943    2.9622 O.co2     1 ATP        -0.9062
     12 O3A         0.5944   -5.4624    4.2457 O.3       1 ATP        -0.8166
     13 O5'        -0.5687   -5.2869    2.0510 O.3       1 ATP        -0.5510
     14 C5'        -0.7840   -3.8935    2.2172 C.3       1 ATP         0.2099
     15 C4'        -0.0724   -3.1466    1.1027 C.3       1 ATP         0.0598
     16 O4'        -0.8674   -3.1929   -0.0945 O.3       1 ATP        -0.3455
     17 C3'         0.1338   -1.6715    1.4027 C.3       1 ATP         0.0742
     18 O3'         1.2893   -1.4445    2.1808 O.3       1 ATP        -0.6025
     19 C2'         0.2158   -1.0724    0.0128 C.3       1 ATP         0.1145
     20 O2'         1.5141   -1.2448   -0.5513 O.3       1 ATP        -0.5835
     21 C1'        -0.7897   -1.9176   -0.7583 C.3       1 ATP         0.3776
     22 N9         -2.1040   -1.3333   -0.7704 N.pl3     1 ATP        -0.4429
     23 C8         -3.0590   -1.5123    0.1363 C.ar      1 ATP         0.2964
     24 N7         -4.1655   -0.8354   -0.1554 N.pl3     1 ATP        -0.4957
     25 C5         -3.8852   -0.1874   -1.3253 C.ar      1 ATP        -0.1346
     26 C6         -4.7113    0.7160   -2.1458 C.ar      1 ATP         0.7213
     27 N6         -5.9213    1.0209   -1.8021 N.2       1 ATP        -0.8215
     28 N1         -4.0411    1.1673   -3.2764 N.pl3     1 ATP        -0.8455
     29 C2         -2.7403    0.7865   -3.5638 C.ar      1 ATP         0.6477
     30 N3         -1.9921   -0.0108   -2.8519 N.2       1 ATP        -0.5707
     31 C4         -2.6302   -0.4747   -1.7239 C.ar      1 ATP         0.2637
     32 HOG3        4.3683   -2.9197    6.6009 H         1 ATP         0.4378
     33 H5'1       -1.8598   -3.6968    2.1850 H         1 ATP         0.0340
     34 H5'2       -0.3933   -3.5903    3.1931 H         1 ATP         0.0340
     35 H4'         0.8874   -3.6466    0.8805 H         1 ATP         0.0910
     36 H3'        -0.7376   -1.2333    1.9867 H         1 ATP         0.0656
     37 HO3'        1.3408   -0.4870    2.3219 H         1 ATP         0.4386
     38 H2'        -0.0384   -0.0310    0.0096 H         1 ATP         0.0788
     39 HO2'        1.6843   -2.2021   -0.5965 H         1 ATP         0.4363
     40 H1'        -0.4769   -2.1002   -1.8093 H         1 ATP         0.1225
     41 H8         -2.9569   -2.1323    1.0098 H         1 ATP         0.3824
     42 HN62       -6.3169    1.6552   -2.5012 H         1 ATP         0.4018
     43 H2         -2.3612    1.2343   -4.4957 H         1 ATP         0.0652
     44 H44        -4.5223    1.7976   -3.9117 H         1 ATP         0.4503
     45 H45        -5.0218   -0.8132    0.3804 H         1 ATP         0.5209
@<TRIPOS>BOND
     1    1    2 2
     2    1    3 1
     3    1    4 1
     4    1    8 1
     5    4   32 1
     6    5    6 2
     7    5    7 1
     8    5    8 1
     9    5   12 1
    10    9   10 2
    11    9   11 1
    12    9   12 1
    13    9   13 1
    14   13   14 1
    15   14   15 1
    16   14   33 1
    17   14   34 1
    18   15   16 1
    19   15   17 1
    20   15   35 1
    21   16   21 1
    22   17   18 1
    23   17   19 1
    24   17   36 1
    25   18   37 1
    26   19   20 1
    27   19   21 1
    28   19   38 1
    29   20   39 1
    30   21   22 1
    31   21   40 1
    32   22   23 ar
    33   22   31 ar
    34   23   24 ar
    35   23   41 1
    36   24   25 ar
    37   24   45 1
    38   25   26 ar
    39   25   31 ar
    40   26   27 2
    41   26   28 ar
    42   27   42 1
    43   28   29 ar
    44   28   44 1
    45   29   30 ar
    46   29   43 1
    47   30   31 ar
@<TRIPOS>SUBSTRUCTURE
     1 ATP         1 GROUP 0 A     ****
@<TRIPOS>MOLECULE
[[[3,4-dihydroxy-5-(6-imino-7,8-dihydro-1~{H}-purin-8-ylium-9-yl)tetrahydrofuran-2-yl]methoxy-oxido-phosphoryl]oxy-oxido-phosphoryl] hydrogen phosphate
   45    47     1     0     0
SMALL
USER_CHARGES

@<TRIPOS>ATOM
      1 PG         -1.4282   -1.5625   -6.9103 P.3       1 ATP         1.5631
      2 O1G        -1.6633   -2.9742   -7.3995 O.co2     1 ATP        -0.8806
      3 O2G        -1.2540   -0.4205   -7.8866 O.co2     1 ATP        -0.8806
      4 O3G        -2.6177   -1.1718   -5.8624 O.3       1 ATP        -0.8165
      5 PB          1.4094   -1.8679   -6.1367 P.3       1 ATP         1.6877
      6 O1B         1.5655   -3.3236   -6.5163 O.co2     1 ATP        -0.8727
      7 O2B         1.9742   -0.7667   -7.0062 O.co2     1 ATP        -0.8727
      8 O3B        -0.1721   -1.5638   -5.8682 O.3       1 ATP        -0.8330
      9 PA          1.5544   -2.4558   -3.2404 P.3       1 ATP         1.6036
     10 O1A         2.0071   -3.8949   -3.3601 O.co2     1 ATP        -0.9062
     11 O2A         0.1180   -2.1225   -2.9010 O.co2     1 ATP        -0.9062
     12 O3A         1.9553   -1.6633   -4.6119 O.3       1 ATP        -0.8166
     13 O5'         2.5245   -1.6648   -2.1878 O.3       1 ATP        -0.5510
     14 C5'         2.2816   -0.2918   -1.9206 C.3       1 ATP         0.2099
     15 C4'         2.7248    0.0226   -0.4980 C.3       1 ATP         0.0598
     16 O4'         2.4697    1.4219   -0.2462 O.3       1 ATP        -0.3455
     17 C3'         1.9404   -0.7419    0.5596 C.3       1 ATP         0.0742
     18 O3'         2.7418   -0.8086    1.7389 O.3       1 ATP        -0.6025
     19 C2'         0.7477    0.1630    0.7858 C.3       1 ATP         0.1145
     20 O2'         0.1373   -0.0577    2.0407 O.3       1 ATP        -0.5835
     21 C1'         1.3733    1.5427    0.6747 C.3       1 ATP         0.3776
     22 N9          0.4520    2.5240    0.1767 N.pl3     1 ATP        -0.4429
     23 C8         -0.8620    2.5492    0.3743 C.ar      1 ATP         0.2964
     24 N7         -1.4419    3.5886   -0.2183 N.pl3     1 ATP        -0.4957
     25 C5         -0.4215    4.2614   -0.8294 C.ar      1 ATP        -0.1346
     26 C6         -0.4310    5.4918   -1.6405 C.ar      1 ATP         0.7213
     27 N6         -1.5302    6.1308   -1.8826 N.2       1 ATP        -0.8215
     28 N1          0.8382    5.8461   -2.0817 N.pl3     1 ATP        -0.8455
     29 C2          1.9625    5.0982   -1.7709 C.ar      1 ATP         0.6477
     30 N3          1.9930    4.0077   -1.0554 N.2       1 ATP        -0.5707
     31 C4          0.7483    3.6314   -0.6038 C.ar      1 ATP         0.2637
     32 HOG3       -2.6058   -0.2800   -5.4539 H         1 ATP         0.4378
     33 H5'1        2.8432    0.3119   -2.6398 H         1 ATP         0.0340
     34 H5'2        1.2128   -0.0927   -2.0428 H         1 ATP         0.0340
     35 H4'         3.8044   -0.1397   -0.4040 H         1 ATP         0.0910
     36 H3'         1.6764   -1.7639    0.2728 H         1 ATP         0.0656
     37 HO3'        2.2232   -1.2979    2.3953 H         1 ATP         0.4386
     38 H2'        -0.0011    0.0027    0.0003 H         1 ATP         0.0788
     39 HO2'       -0.1563   -0.9855    2.0596 H         1 ATP         0.4363
     40 H1'         1.7826    1.9024    1.6451 H         1 ATP         0.1225
     41 H8         -1.4030    1.8165    0.9473 H         1 ATP         0.3824
     42 HN62       -1.3197    6.9504   -2.4583 H         1 ATP         0.4018
     43 H2          2.8857    5.5186   -2.1994 H         1 ATP         0.0652
     44 H44         0.9433    6.6815   -2.6502 H         1 ATP         0.4503
     45 H45        -2.4254    3.8199   -0.2108 H         1 ATP         0.5209
@<TRIPOS>BOND
     1    1    2 2
     2    1    3 1
     3    1    4 1
     4    1    8 1
     5    4   32 1
     6    5    6 2
     7    5    7 1
     8    5    8 1
     9    5   12 1
    10    9   10 2
    11    9   11 1
    12    9   12 1
    13    9   13 1
    14   13   14 1
    15   14   15 1
    16   14   33 1
    17   14   34 1
    18   15   16 1
    19   15   17 1
    20   15   35 1
    21   16   21 1
    22   17   18 1
    23   17   19 1
    24   17   36 1
    25   18   37 1
    26   19   20 1
    27   19   21 1
    28   19   38 1
    29   20   39 1
    30   21   22 1
    31   21   40 1
    32   22   23 ar
    33   22   31 ar
    34   23   24 ar
    35   23   41 1
    36   24   25 ar
    37   24   45 1
    38   25   26 ar
    39   25   31 ar
    40   26   27 2
    41   26   28 ar
    42   27   42 1
    43   28   29 ar
    44   28   44 1
    45   29   30 ar
    46   29   43 1
    47   30   31 ar
@<TRIPOS>SUBSTRUCTURE
     1 ATP         1 GROUP 0 A     ****
@<TRIPOS>MOLECULE
[[[3,4-dihydroxy-5-(6-imino-7,8-dihydro-1~{H}-purin-8-ylium-9-yl)tetrahydrofuran-2-yl]methoxy-oxido-phosphoryl]oxy-oxido-phosphoryl] hydrogen phosphate
   45    47     1     0     0
SMALL
USER_CHARGES

@<TRIPOS>ATOM
      1 PG          0.4956   -3.6897    6.8967 P.3       1 ATP         1.5631
      2 O1G         1.7080   -3.0409    6.2671 O.co2     1 ATP        -0.8806
      3 O2G         0.0380   -5.0652    6.4651 O.co2     1 ATP        -0.8806
      4 O3G         0.6925   -3.6938    8.5175 O.3       1 ATP        -0.8165
      5 PB         -1.5802   -2.1165    5.4968 P.3       1 ATP         1.6877
      6 O1B        -2.7720   -1.3125    5.9667 O.co2     1 ATP        -0.8727
      7 O2B        -0.5869   -1.5419    4.5116 O.co2     1 ATP        -0.8727
      8 O3B        -0.7666   -2.6591    6.8042 O.3       1 ATP        -0.8330
      9 PA         -3.0195   -3.8900    3.6158 P.3       1 ATP         1.6036
     10 O1A        -4.2922   -3.0740    3.6837 O.co2     1 ATP        -0.9062
     11 O2A        -3.0722   -5.3927    3.4462 O.co2     1 ATP        -0.9062
     12 O3A        -2.1088   -3.5532    4.9300 O.3       1 ATP        -0.8166
     13 O5'        -2.0415   -3.2792    2.4560 O.3       1 ATP        -0.5510
     14 C5'        -0.7840   -3.8935    2.2172 C.3       1 ATP         0.2099
     15 C4'        -0.0724   -3.1466    1.1027 C.3       1 ATP         0.0598
     16 O4'        -0.8674   -3.1929   -0.0945 O.3       1 ATP        -0.3455
     17 C3'         0.1338   -1.6715    1.4027 C.3       1 ATP         0.0742
     18 O3'         1.2893   -1.4445    2.1808 O.3       1 ATP        -0.6025
     19 C2'         0.2158   -1.0724    0.0128 C.3       1 ATP         0.1145
     20 O2'         1.5141   -1.2448   -0.5513 O.3       1 ATP        -0.5835
     21 C1'        -0.7897   -1.9176   -0.7583 C.3       1 ATP         0.3776
     22 N9         -2.1040   -1.3333   -0.7704 N.pl3     1 ATP        -0.4429
     23 C8         -3.2114   -1.8635   -0.2619 C.ar      1 ATP         0.2964
     24 N7         -4.2711   -1.0786   -0.4314 N.pl3     1 ATP        -0.4957
     25 C5         -3.7955    0.0193   -1.0917 C.ar      1 ATP        -0.1346
     26 C6         -4.4862    1.2344   -1.5586 C.ar      1 ATP         0.7213
     27 N6         -5.7554    1.4030   -1.3689 N.2       1 ATP        -0.8215
     28 N1         -3.6267    2.1218   -2.1949 N.pl3     1 ATP        -0.8455
     29 C2         -2.2761    1.8558   -2.3521 C.ar      1 ATP         0.6477
     30 N3         -1.6453    0.7881   -1.9466 N.2       1 ATP        -0.5707
     31 C4         -2.4722   -0.1108   -1.3117 C.ar      1 ATP         0.2637
     32 HOG3       -0.0154   -4.0846    9.0729 H         1 ATP         0.4378
     33 H5'1       -0.1949   -3.8603    3.1385 H         1 ATP         0.0340
     34 H5'2       -0.9496   -4.9375    1.9351 H         1 ATP         0.0340
     35 H4'         0.8874   -3.6466    0.8805 H         1 ATP         0.0910
     36 H3'        -0.7376   -1.2333    1.9867 H         1 ATP         0.0656
     37 HO3'        1.3408   -0.4870    2.3219 H         1 ATP         0.4386
     38 H2'        -0.0384   -0.0310    0.0096 H         1 ATP         0.0788
     39 HO2'        2.1463   -0.7958    0.0370 H         1 ATP         0.4363
     40 H1'        -0.4769   -2.1002   -1.8093 H         1 ATP         0.1225
     41 H8         -3.2547   -2.8183    0.2325 H         1 ATP         0.3824
     42 HN62       -6.0352    2.3041   -1.7656 H         1 ATP         0.4018
     43 H2         -1.7412    2.6624   -2.8773 H         1 ATP         0.0652
     44 H44        -4.0029    2.9939   -2.5557 H         1 ATP         0.4503
     45 H45        -5.2179   -1.2649   -0.1322 H         1 ATP         0.5209
@<TRIPOS>BOND
     1    1    2 2
     2    1    3 1
     3    1    4 1
     4    1    8 1
     5    4   32 1
     6    5    6 2
     7    5    7 1
     8    5    8 1
     9    5   12 1
    10    9   10 2
    11    9   11 1
    12    9   12 1
    13    9   13 1
    14   13   14 1
    15   14   15 1
    16   14   33 1
    17   14   34 1
    18   15   16 1
    19   15   17 1
    20   15   35 1
    21   16   21 1
    22   17   18 1
    23   17   19 1
    24   17   36 1
    25   18   37 1
    26   19   20 1
    27   19   21 1
    28   19   38 1
    29   20   39 1
    30   21   22 1
    31   21   40 1
    32   22   23 ar
    33   22   31 ar
    34   23   24 ar
    35   23   41 1
    36   24   25 ar
    37   24   45 1
    38   25   26 ar
    39   25   31 ar
    40   26   27 2
    41   26   28 ar
    42   27   42 1
    43   28   29 ar
    44   28   44 1
    45   29   30 ar
    46   29   43 1
    47   30   31 ar
@<TRIPOS>SUBSTRUCTURE
     1 ATP         1 GROUP 0 A     ****
@<TRIPOS>MOLECULE
[[[3,4-dihydroxy-5-(6-imino-7,8-dihydro-1~{H}-purin-8-ylium-9-yl)tetrahydrofuran-2-yl]methoxy-oxido-phosphoryl]oxy-oxido-phosphoryl] hydrogen phosphate
   45    47     1     0     0
SMALL
USER_CHARGES

@<TRIPOS>ATOM
      1 PG         -3.1176   -7.8652    3.6621 P.3       1 ATP         1.5631
      2 O1G        -2.2854   -7.2174    2.5780 O.co2     1 ATP        -0.8806
      3 O2G        -4.6009   -7.5905    3.7720 O.co2     1 ATP        -0.8806
      4 O3G        -2.8934   -9.4810    3.5923 O.3       1 ATP        -0.8165
      5 PB         -2.2267   -6.1780    5.9211 P.3       1 ATP         1.6877
      6 O1B        -3.5737   -5.5014    6.0447 O.co2     1 ATP        -0.8727
      7 O2B        -1.3647   -6.4351    7.1370 O.co2     1 ATP        -0.8727
      8 O3B        -2.4185   -7.5815    5.1093 O.3       1 ATP        -0.8330
      9 PA         -0.7215   -3.8652    4.8532 P.3       1 ATP         1.6036
     10 O1A         0.3253   -3.7984    5.9441 O.co2     1 ATP        -0.9062
     11 O2A        -1.8707   -2.8812    4.8226 O.co2     1 ATP        -0.9062
     12 O3A        -1.3389   -5.3774    4.8095 O.3       1 ATP        -0.8166
     13 O5'         0.0118   -3.8395    3.3916 O.3       1 ATP        -0.5510
     14 C5'        -0.7840   -3.8935    2.2172 C.3       1 ATP         0.2099
     15 C4'        -0.0724   -3.1466    1.1027 C.3       1 ATP         0.0598
     16 O4'        -0.8674   -3.1929   -0.0945 O.3       1 ATP        -0.3455
     17 C3'         0.1338   -1.6715    1.4027 C.3       1 ATP         0.0742
     18 O3'         1.2893   -1.4445    2.1808 O.3       1 ATP        -0.6025
     19 C2'         0.2158   -1.0724    0.0128 C.3       1 ATP         0.1145
     20 O2'         1.5141   -1.2448   -0.5513 O.3       1 ATP        -0.5835
     21 C1'        -0.7897   -1.9176   -0.7583 C.3       1 ATP         0.3776
     22 N9         -2.1040   -1.3333   -0.7704 N.pl3     1 ATP        -0.4429
     23 C8         -3.2114   -1.8635   -0.2619 C.ar      1 ATP         0.2964
     24 N7         -4.2711   -1.0786   -0.4314 N.pl3     1 ATP        -0.4957
     25 C5         -3.7955    0.0193   -1.0917 C.ar      1 ATP        -0.1346
     26 C6         -4.4862    1.2344   -1.5586 C.ar      1 ATP         0.7213
     27 N6         -5.7554    1.4030   -1.3689 N.2       1 ATP        -0.8215
     28 N1         -3.6267    2.1218   -2.1949 N.pl3     1 ATP        -0.8455
     29 C2         -2.2761    1.8558   -2.3521 C.ar      1 ATP         0.6477
     30 N3         -1.6453    0.7881   -1.9466 N.2       1 ATP        -0.5707
     31 C4         -2.4722   -0.1108   -1.3117 C.ar      1 ATP         0.2637
     32 HOG3       -3.3696  -10.0467    4.2368 H         1 ATP         0.4378
     33 H5'1       -0.9348   -4.9415    1.9415 H         1 ATP         0.0340
     34 H5'2       -1.7548   -3.4350    2.4278 H         1 ATP         0.0340
     35 H4'         0.8874   -3.6466    0.8805 H         1 ATP         0.0910
     36 H3'        -0.7376   -1.2333    1.9867 H         1 ATP         0.0656
     37 HO3'        1.1626   -1.9325    3.0084 H         1 ATP         0.4386
     38 H2'        -0.0384   -0.0310    0.0096 H         1 ATP         0.0788
     39 HO2'        2.1463   -0.7958    0.0370 H         1 ATP         0.4363
     40 H1'        -0.4769   -2.1002   -1.8093 H         1 ATP         0.1225
     41 H8         -3.2547   -2.8183    0.2325 H         1 ATP         0.3824
     42 HN62       -6.0352    2.3041   -1.7656 H         1 ATP         0.4018
     43 H2         -1.7412    2.6624   -2.8773 H         1 ATP         0.0652
     44 H44        -4.0029    2.9939   -2.5557 H         1 ATP         0.4503
     45 H45        -5.2179   -1.2649   -0.1322 H         1 ATP         0.5209
@<TRIPOS>BOND
     1    1    2 2
     2    1    3 1
     3    1    4 1
     4    1    8 1
     5    4   32 1
     6    5    6 2
     7    5    7 1
     8    5    8 1
     9    5   12 1
    10    9   10 2
    11    9   11 1
    12    9   12 1
    13    9   13 1
    14   13   14 1
    15   14   15 1
    16   14   33 1
    17   14   34 1
    18   15   16 1
    19   15   17 1
    20   15   35 1
    21   16   21 1
    22   17   18 1
    23   17   19 1
    24   17   36 1
    25   18   37 1
    26   19   20 1
    27   19   21 1
    28   19   38 1
    29   20   39 1
    30   21   22 1
    31   21   40 1
    32   22   23 ar
    33   22   31 ar
    34   23   24 ar
    35   23   41 1
    36   24   25 ar
    37   24   45 1
    38   25   26 ar
    39   25   31 ar
    40   26   27 2
    41   26   28 ar
    42   27   42 1
    43   28   29 ar
    44   28   44 1
    45   29   30 ar
    46   29   43 1
    47   30   31 ar
@<TRIPOS>SUBSTRUCTURE
     1 ATP         1 GROUP 0 A     ****
@<TRIPOS>MOLECULE
[[[3,4-dihydroxy-5-(6-imino-7,8-dihydro-1~{H}-purin-8-ylium-9-yl)tetrahydrofuran-2-yl]methoxy-oxido-phosphoryl]oxy-oxido-phosphoryl] hydrogen phosphate
   45    47     1     0     0
SMALL
USER_CHARGES

@<TRIPOS>ATOM
      1 PG          4.2521   -3.9434   -7.6431 P.3       1 ATP         1.5631
      2 O1G         4.3535   -5.4035   -7.2619 O.co2     1 ATP        -0.8806
      3 O2G         5.3866   -3.2470   -8.3613 O.co2     1 ATP        -0.8806
      4 O3G         2.8822   -3.7260   -8.5044 O.3       1 ATP        -0.8165
      5 PB          3.4664   -1.4950   -6.1831 P.3       1 ATP         1.6877
      6 O1B         4.6910   -0.6677   -6.5046 O.co2     1 ATP        -0.8727
      7 O2B         2.1507   -1.2539   -6.8891 O.co2     1 ATP        -0.8727
      8 O3B         3.8518   -3.0756   -6.3200 O.3       1 ATP        -0.8330
      9 PA          2.1372   -2.2718   -3.6563 P.3       1 ATP         1.6036
     10 O1A         2.4859   -3.7437   -3.7017 O.co2     1 ATP        -0.9062
     11 O2A         0.7459   -1.7951   -4.0125 O.co2     1 ATP        -0.9062
     12 O3A         3.2120   -1.4489   -4.5713 O.3       1 ATP        -0.8166
     13 O5'         2.5245   -1.6648   -2.1878 O.3       1 ATP        -0.5510
     14 C5'         2.2816   -0.2918   -1.9206 C.3       1 ATP         0.2099
     15 C4'         2.7248    0.0226   -0.4980 C.3       1 ATP         0.0598
     16 O4'         2.4697    1.4219   -0.2462 O.3       1 ATP        -0.3455
     17 C3'         1.9404   -0.7419    0.5596 C.3       1 ATP         0.0742
     18 O3'         2.7418   -0.8086    1.7389 O.3       1 ATP        -0.6025
     19 C2'         0.7477    0.1630    0.7858 C.3       1 ATP         0.1145
     20 O2'         0.1373   -0.0577    2.0407 O.3       1 ATP        -0.5835
     21 C1'         1.3733    1.5427    0.6747 C.3       1 ATP         0.3776
     22 N9          0.4520    2.5240    0.1767 N.pl3     1 ATP        -0.4429
     23 C8         -0.6821    2.9098    0.7521 C.ar      1 ATP         0.2964
     24 N7         -1.3175    3.8384    0.0437 N.pl3     1 ATP        -0.4957
     25 C5         -0.5274    4.0494   -1.0512 C.ar      1 ATP        -0.1346
     26 C6         -0.6966    4.9597   -2.1977 C.ar      1 ATP         0.7213
     27 N6         -1.7259    5.7385   -2.2937 N.2       1 ATP        -0.8215
     28 N1          0.3493    4.8663   -3.1079 N.pl3     1 ATP        -0.8455
     29 C2          1.4148    4.0005   -2.9208 C.ar      1 ATP         0.6477
     30 N3          1.5838    3.1876   -1.9144 N.2       1 ATP        -0.5707
     31 C4          0.5619    3.2578   -0.9949 C.ar      1 ATP         0.2637
     32 HOG3        2.6720   -2.8240   -8.8276 H         1 ATP         0.4378
     33 H5'1        2.8432    0.3119   -2.6398 H         1 ATP         0.0340
     34 H5'2        1.2128   -0.0927   -2.0428 H         1 ATP         0.0340
     35 H4'         3.8044   -0.1397   -0.4040 H         1 ATP         0.0910
     36 H3'         1.6764   -1.7639    0.2728 H         1 ATP         0.0656
     37 HO3'        2.2232   -1.2979    2.3953 H         1 ATP         0.4386
     38 H2'        -0.0011    0.0027    0.0003 H         1 ATP         0.0788
     39 HO2'       -0.1563   -0.9855    2.0596 H         1 ATP         0.4363
     40 H1'         1.7826    1.9024    1.6451 H         1 ATP         0.1225
     41 H8         -1.0516    2.5207    1.6849 H         1 ATP         0.3824
     42 HN62       -1.6520    6.2842   -3.1564 H         1 ATP         0.4018
     43 H2          2.1542    4.0525   -3.7351 H         1 ATP         0.0652
     44 H44         0.3306    5.4533   -3.9370 H         1 ATP         0.4503
     45 H45        -2.1941    4.2838    0.2756 H         1 ATP         0.5209
@<TRIPOS>BOND
     1    1    2 2
     2    1    3 1
     3    1    4 1
     4    1    8 1
     5    4   32 1
     6    5    6 2
     7    5    7 1
     8    5    8 1
     9    5   12 1
    10    9   10 2
    11    9   11 1
    12    9   12 1
    13    9   13 1
    14   13   14 1
    15   14   15 1
    16   14   33 1
    17   14   34 1
    18   15   16 1
    19   15   17 1
    20   15   35 1
    21   16   21 1
    22   17   18 1
    23   17   19 1
    24   17   36 1
    25   18   37 1
    26   19   20 1
    27   19   21 1
    28   19   38 1
    29   20   39 1
    30   21   22 1
    31   21   40 1
    32   22   23 ar
    33   22   31 ar
    34   23   24 ar
    35   23   41 1
    36   24   25 ar
    37   24   45 1
    38   25   26 ar
    39   25   31 ar
    40   26   27 2
    41   26   28 ar
    42   27   42 1
    43   28   29 ar
    44   28   44 1
    45   29   30 ar
    46   29   43 1
    47   30   31 ar
@<TRIPOS>SUBSTRUCTURE
     1 ATP         1 GROUP 0 A     ****
@<TRIPOS>MOLECULE
[[[3,4-dihydroxy-5-(6-imino-7,8-dihydro-1~{H}-purin-8-ylium-9-yl)tetrahydrofuran-2-yl]methoxy-oxido-phosphoryl]oxy-oxido-phosphoryl] hydrogen phosphate
   45    47     1     0     0
SMALL
USER_CHARGES

@<TRIPOS>ATOM
      1 PG          1.3133   -0.9761   -7.1002 P.3       1 ATP         1.5631
      2 O1G         1.5232   -2.1417   -8.0409 O.co2     1 ATP        -0.8806
      3 O2G         2.4225   -0.5057   -6.1859 O.co2     1 ATP        -0.8806
      4 O3G         0.7795    0.3004   -7.9671 O.3       1 ATP        -0.8165
      5 PB         -0.3144   -2.3805   -5.0699 P.3       1 ATP         1.6877
      6 O1B        -1.6534   -2.0940   -4.4277 O.co2     1 ATP        -0.8727
      7 O2B         0.0013   -3.7415   -5.6492 O.co2     1 ATP        -0.8727
      8 O3B        -0.0273   -1.2471   -6.2095 O.3       1 ATP        -0.8330
      9 PA          1.2681   -2.6345   -2.5827 P.3       1 ATP         1.6036
     10 O1A         1.7719   -4.0417   -2.8198 O.co2     1 ATP        -0.9062
     11 O2A         0.1424   -2.3700   -1.6068 O.co2     1 ATP        -0.9062
     12 O3A         0.8674   -1.9707   -4.0210 O.3       1 ATP        -0.8166
     13 O5'         2.5245   -1.6648   -2.1878 O.3       1 ATP        -0.5510
     14 C5'         2.2816   -0.2918   -1.9206 C.3       1 ATP         0.2099
     15 C4'         2.7248    0.0226   -0.4980 C.3       1 ATP         0.0598
     16 O4'         2.4697    1.4219   -0.2462 O.3       1 ATP        -0.3455
     17 C3'         1.9404   -0.7419    0.5596 C.3       1 ATP         0.0742
     18 O3'         2.7418   -0.8086    1.7389 O.3       1 ATP        -0.6025
     19 C2'         0.7477    0.1630    0.7858 C.3       1 ATP         0.1145
     20 O2'         0.1373   -0.0577    2.0407 O.3       1 ATP        -0.5835
     21 C1'         1.3733    1.5427    0.6747 C.3       1 ATP         0.3776
     22 N9          0.4520    2.5240    0.1767 N.pl3     1 ATP        -0.4429
     23 C8          0.5691    3.2215   -0.9485 C.ar      1 ATP         0.2964
     24 N7         -0.4499    4.0551   -1.1342 N.pl3     1 ATP        -0.4957
     25 C5         -1.2618    3.8674   -0.0512 C.ar      1 ATP        -0.1346
     26 C6         -2.5420    4.5007    0.3120 C.ar      1 ATP         0.7213
     27 N6         -3.0874    5.3993   -0.4432 N.2       1 ATP        -0.8215
     28 N1         -3.0494    4.0205    1.5133 N.pl3     1 ATP        -0.8455
     29 C2         -2.3933    3.0527    2.2567 C.ar      1 ATP         0.6477
     30 N3         -1.2611    2.4796    1.9536 N.2       1 ATP        -0.5707
     31 C4         -0.7334    2.9358    0.7669 C.ar      1 ATP         0.2637
     32 HOG3        0.5951    1.1407   -7.4957 H         1 ATP         0.4378
     33 H5'1        2.8432    0.3119   -2.6398 H         1 ATP         0.0340
     34 H5'2        1.2128   -0.0927   -2.0428 H         1 ATP         0.0340
     35 H4'         3.8044   -0.1397   -0.4040 H         1 ATP         0.0910
     36 H3'         1.6764   -1.7639    0.2728 H         1 ATP         0.0656
     37 HO3'        3.5554   -1.2733    1.4914 H         1 ATP         0.4386
     38 H2'        -0.0011    0.0027    0.0003 H         1 ATP         0.0788
     39 HO2'        0.8082    0.1199    2.7232 H         1 ATP         0.4363
     40 H1'         1.7826    1.9024    1.6451 H         1 ATP         0.1225
     41 H8          1.3912    3.1285   -1.6365 H         1 ATP         0.3824
     42 HN62       -3.9637    5.7083   -0.0142 H         1 ATP         0.4018
     43 H2         -2.9317    2.7866    3.1796 H         1 ATP         0.0652
     44 H44        -3.9307    4.3923    1.8558 H         1 ATP         0.4503
     45 H45        -0.5835    4.6857   -1.9122 H         1 ATP         0.5209
@<TRIPOS>BOND
     1    1    2 2
     2    1    3 1
     3    1    4 1
     4    1    8 1
     5    4   32 1
     6    5    6 2
     7    5    7 1
     8    5    8 1
     9    5   12 1
    10    9   10 2
    11    9   11 1
    12    9   12 1
    13    9   13 1
    14   13   14 1
    15   14   15 1
    16   14   33 1
    17   14   34 1
    18   15   16 1
    19   15   17 1
    20   15   35 1
    21   16   21 1
    22   17   18 1
    23   17   19 1
    24   17   36 1
    25   18   37 1
    26   19   20 1
    27   19   21 1
    28   19   38 1
    29   20   39 1
    30   21   22 1
    31   21   40 1
    32   22   23 ar
    33   22   31 ar
    34   23   24 ar
    35   23   41 1
    36   24   25 ar
    37   24   45 1
    38   25   26 ar
    39   25   31 ar
    40   26   27 2
    41   26   28 ar
    42   27   42 1
    43   28   29 ar
    44   28   44 1
    45   29   30 ar
    46   29   43 1
    47   30   31 ar
@<TRIPOS>SUBSTRUCTURE
     1 ATP         1 GROUP 0 A     ****
@<TRIPOS>MOLECULE
[[[3,4-dihydroxy-5-(6-imino-7,8-dihydro-1~{H}-purin-8-ylium-9-yl)tetrahydrofuran-2-yl]methoxy-oxido-phosphoryl]oxy-oxido-phosphoryl] hydrogen phosphate
   45    47     1     0     0
SMALL
USER_CHARGES

@<TRIPOS>ATOM
      1 PG         -4.9448   -6.3238    6.6009 P.3       1 ATP         1.5631
      2 O1G        -6.1648   -5.4394    6.4710 O.co2     1 ATP        -0.8806
      3 O2G        -4.5009   -6.8425    7.9506 O.co2     1 ATP        -0.8806
      4 O3G        -5.1141   -7.5931    5.5878 O.3       1 ATP        -0.8165
      5 PB         -2.8860   -4.2261    6.2781 P.3       1 ATP         1.6877
      6 O1B        -3.8221   -3.0515    6.1004 O.co2     1 ATP        -0.8727
      7 O2B        -2.1578   -4.4569    7.5835 O.co2     1 ATP        -0.8727
      8 O3B        -3.6797   -5.5940    5.8725 O.3       1 ATP        -0.8330
      9 PA         -0.6019   -3.1447    4.7390 P.3       1 ATP         1.6036
     10 O1A         0.4236   -3.2066    5.8503 O.co2     1 ATP        -0.9062
     11 O2A        -1.2370   -1.8291    4.3448 O.co2     1 ATP        -0.9062
     12 O3A        -1.7942   -4.2134    5.0645 O.3       1 ATP        -0.8166
     13 O5'         0.0118   -3.8395    3.3916 O.3       1 ATP        -0.5510
     14 C5'        -0.7840   -3.8935    2.2172 C.3       1 ATP         0.2099
     15 C4'        -0.0724   -3.1466    1.1027 C.3       1 ATP         0.0598
     16 O4'        -0.8674   -3.1929   -0.0945 O.3       1 ATP        -0.3455
     17 C3'         0.1338   -1.6715    1.4027 C.3       1 ATP         0.0742
     18 O3'         1.2893   -1.4445    2.1808 O.3       1 ATP        -0.6025
     19 C2'         0.2158   -1.0724    0.0128 C.3       1 ATP         0.1145
     20 O2'         1.5141   -1.2448   -0.5513 O.3       1 ATP        -0.5835
     21 C1'        -0.7897   -1.9176   -0.7583 C.3       1 ATP         0.3776
     22 N9         -2.1040   -1.3333   -0.7704 N.pl3     1 ATP        -0.4429
     23 C8         -3.0590   -1.5123    0.1363 C.ar      1 ATP         0.2964
     24 N7         -4.1655   -0.8354   -0.1554 N.pl3     1 ATP        -0.4957
     25 C5         -3.8852   -0.1874   -1.3253 C.ar      1 ATP        -0.1346
     26 C6         -4.7113    0.7160   -2.1458 C.ar      1 ATP         0.7213
     27 N6         -5.9213    1.0209   -1.8021 N.2       1 ATP        -0.8215
     28 N1         -4.0411    1.1673   -3.2764 N.pl3     1 ATP        -0.8455
     29 C2         -2.7403    0.7865   -3.5638 C.ar      1 ATP         0.6477
     30 N3         -1.9921   -0.0108   -2.8519 N.2       1 ATP        -0.5707
     31 C4         -2.6302   -0.4747   -1.7239 C.ar      1 ATP         0.2637
     32 HOG3       -4.3986   -8.2634    5.5556 H         1 ATP         0.4378
     33 H5'1       -0.9348   -4.9415    1.9415 H         1 ATP         0.0340
     34 H5'2       -1.7548   -3.4350    2.4278 H         1 ATP         0.0340
     35 H4'         0.8874   -3.6466    0.8805 H         1 ATP         0.0910
     36 H3'        -0.7376   -1.2333    1.9867 H         1 ATP         0.0656
     37 HO3'        1.3408   -0.4870    2.3219 H         1 ATP         0.4386
     38 H2'        -0.0384   -0.0310    0.0096 H         1 ATP         0.0788
     39 HO2'        1.4998   -0.8412   -1.4369 H         1 ATP         0.4363
     40 H1'        -0.4769   -2.1002   -1.8093 H         1 ATP         0.1225
     41 H8         -2.9569   -2.1323    1.0098 H         1 ATP         0.3824
     42 HN62       -6.3169    1.6552   -2.5012 H         1 ATP         0.4018
     43 H2         -2.3612    1.2343   -4.4957 H         1 ATP         0.0652
     44 H44        -4.5223    1.7976   -3.9117 H         1 ATP         0.4503
     45 H45        -5.0218   -0.8132    0.3804 H         1 ATP         0.5209
@<TRIPOS>BOND
     1    1    2 2
     2    1    3 1
     3    1    4 1
     4    1    8 1
     5    4   32 1
     6    5    6 2
     7    5    7 1
     8    5    8 1
     9    5   12 1
    10    9   10 2
    11    9   11 1
    12    9   12 1
    13    9   13 1
    14   13   14 1
    15   14   15 1
    16   14   33 1
    17   14   34 1
    18   15   16 1
    19   15   17 1
    20   15   35 1
    21   16   21 1
    22   17   18 1
    23   17   19 1
    24   17   36 1
    25   18   37 1
    26   19   20 1
    27   19   21 1
    28   19   38 1
    29   20   39 1
    30   21   22 1
    31   21   40 1
    32   22   23 ar
    33   22   31 ar
    34   23   24 ar
    35   23   41 1
    36   24   25 ar
    37   24   45 1
    38   25   26 ar
    39   25   31 ar
    40   26   27 2
    41   26   28 ar
    42   27   42 1
    43   28   29 ar
    44   28   44 1
    45   29   30 ar
    46   29   43 1
    47   30   31 ar
@<TRIPOS>SUBSTRUCTURE
     1 ATP         1 GROUP 0 A     ****
@<TRIPOS>MOLECULE
[[[3,4-dihydroxy-5-(6-imino-7,8-dihydro-1~{H}-purin-8-ylium-9-yl)tetrahydrofuran-2-yl]methoxy-oxido-phosphoryl]oxy-oxido-phosphoryl] hydrogen phosphate
   45    47     1     0     0
SMALL
USER_CHARGES

@<TRIPOS>ATOM
      1 PG          0.1056   -2.9107   -7.4742 P.3       1 ATP         1.5631
      2 O1G        -0.0464   -4.3793   -7.1466 O.co2     1 ATP        -0.8806
      3 O2G         0.5919   -2.4642   -8.8351 O.co2     1 ATP        -0.8806
      4 O3G        -1.3089   -2.1593   -7.1569 O.3       1 ATP        -0.8165
      5 PB          2.6034   -2.4155   -5.9711 P.3       1 ATP         1.6877
      6 O1B         2.7949   -3.8158   -5.4329 O.co2     1 ATP        -0.8727
      7 O2B         3.4334   -1.8996   -7.1255 O.co2     1 ATP        -0.8727
      8 O3B         1.0240   -2.2025   -6.3258 O.3       1 ATP        -0.8330
      9 PA          4.0010   -0.9663   -3.8028 P.3       1 ATP         1.6036
     10 O1A         5.0351   -0.2791   -4.6680 O.co2     1 ATP        -0.9062
     11 O2A         4.3698   -2.1728   -2.9673 O.co2     1 ATP        -0.9062
     12 O3A         2.7156   -1.3587   -4.7320 O.3       1 ATP        -0.8166
     13 O5'         3.2903    0.1346   -2.8241 O.3       1 ATP        -0.5510
     14 C5'         2.2816   -0.2918   -1.9206 C.3       1 ATP         0.2099
     15 C4'         2.7248    0.0226   -0.4980 C.3       1 ATP         0.0598
     16 O4'         2.4697    1.4219   -0.2462 O.3       1 ATP        -0.3455
     17 C3'         1.9404   -0.7419    0.5596 C.3       1 ATP         0.0742
     18 O3'         2.7418   -0.8086    1.7389 O.3       1 ATP        -0.6025
     19 C2'         0.7477    0.1630    0.7858 C.3       1 ATP         0.1145
     20 O2'         0.1373   -0.0577    2.0407 O.3       1 ATP        -0.5835
     21 C1'         1.3733    1.5427    0.6747 C.3       1 ATP         0.3776
     22 N9          0.4520    2.5240    0.1767 N.pl3     1 ATP        -0.4429
     23 C8         -0.8620    2.5492    0.3743 C.ar      1 ATP         0.2964
     24 N7         -1.4419    3.5886   -0.2183 N.pl3     1 ATP        -0.4957
     25 C5         -0.4215    4.2614   -0.8294 C.ar      1 ATP        -0.1346
     26 C6         -0.4310    5.4918   -1.6405 C.ar      1 ATP         0.7213
     27 N6         -1.5302    6.1308   -1.8826 N.2       1 ATP        -0.8215
     28 N1          0.8382    5.8461   -2.0817 N.pl3     1 ATP        -0.8455
     29 C2          1.9625    5.0982   -1.7709 C.ar      1 ATP         0.6477
     30 N3          1.9930    4.0077   -1.0554 N.2       1 ATP        -0.5707
     31 C4          0.7483    3.6314   -0.6038 C.ar      1 ATP         0.2637
     32 HOG3       -1.3715   -1.1940   -7.3195 H         1 ATP         0.4378
     33 H5'1        1.3514    0.2330   -2.1577 H         1 ATP         0.0340
     34 H5'2        2.1280   -1.3678   -2.0460 H         1 ATP         0.0340
     35 H4'         3.8044   -0.1397   -0.4040 H         1 ATP         0.0910
     36 H3'         1.6764   -1.7639    0.2728 H         1 ATP         0.0656
     37 HO3'        2.2232   -1.2979    2.3953 H         1 ATP         0.4386
     38 H2'        -0.0011    0.0027    0.0003 H         1 ATP         0.0788
     39 HO2'       -0.1563   -0.9855    2.0596 H         1 ATP         0.4363
     40 H1'         1.7826    1.9024    1.6451 H         1 ATP         0.1225
     41 H8         -1.4030    1.8165    0.9473 H         1 ATP         0.3824
     42 HN62       -1.3197    6.9504   -2.4583 H         1 ATP         0.4018
     43 H2          2.8857    5.5186   -2.1994 H         1 ATP         0.0652
     44 H44         0.9433    6.6815   -2.6502 H         1 ATP         0.4503
     45 H45        -2.4254    3.8199   -0.2108 H         1 ATP         0.5209
@<TRIPOS>BOND
     1    1    2 2
     2    1    3 1
     3    1    4 1
     4    1    8 1
     5    4   32 1
     6    5    6 2
     7    5    7 1
     8    5    8 1
     9    5   12 1
    10    9   10 2
    11    9   11 1
    12    9   12 1
    13    9   13 1
    14   13   14 1
    15   14   15 1
    16   14   33 1
    17   14   34 1
    18   15   16 1
    19   15   17 1
    20   15   35 1
    21   16   21 1
    22   17   18 1
    23   17   19 1
    24   17   36 1
    25   18   37 1
    26   19   20 1
    27   19   21 1
    28   19   38 1
    29   20   39 1
    30   21   22 1
    31   21   40 1
    32   22   23 ar
    33   22   31 ar
    34   23   24 ar
    35   23   41 1
    36   24   25 ar
    37   24   45 1
    38   25   26 ar
    39   25   31 ar
    40   26   27 2
    41   26   28 ar
    42   27   42 1
    43   28   29 ar
    44   28   44 1
    45   29   30 ar
    46   29   43 1
    47   30   31 ar
@<TRIPOS>SUBSTRUCTURE
     1 ATP         1 GROUP 0 A     ****
@<TRIPOS>MOLECULE
[[[3,4-dihydroxy-5-(6-imino-7,8-dihydro-1~{H}-purin-8-ylium-9-yl)tetrahydrofuran-2-yl]methoxy-oxido-phosphoryl]oxy-oxido-phosphoryl] hydrogen phosphate
   45    47     1     0     0
SMALL
USER_CHARGES

@<TRIPOS>ATOM
      1 PG         -4.7296   -2.7789    7.9750 P.3       1 ATP         1.5631
      2 O1G        -5.9813   -2.0404    7.5562 O.co2     1 ATP        -0.8806
      3 O2G        -3.8791   -2.2791    9.1215 O.co2     1 ATP        -0.8806
      4 O3G        -5.1187   -4.3389    8.2598 O.3       1 ATP        -0.8165
      5 PB         -2.3976   -3.8533    6.5084 P.3       1 ATP         1.6877
      6 O1B        -1.3180   -3.1892    7.3336 O.co2     1 ATP        -0.8727
      7 O2B        -2.7167   -5.3225    6.6726 O.co2     1 ATP        -0.8727
      8 O3B        -3.7786   -2.9969    6.6667 O.3       1 ATP        -0.8330
      9 PA         -3.0195   -3.8900    3.6158 P.3       1 ATP         1.6036
     10 O1A        -4.2922   -3.0740    3.6837 O.co2     1 ATP        -0.9062
     11 O2A        -3.0722   -5.3927    3.4462 O.co2     1 ATP        -0.9062
     12 O3A        -2.1088   -3.5532    4.9300 O.3       1 ATP        -0.8166
     13 O5'        -2.0415   -3.2792    2.4560 O.3       1 ATP        -0.5510
     14 C5'        -0.7840   -3.8935    2.2172 C.3       1 ATP         0.2099
     15 C4'        -0.0724   -3.1466    1.1027 C.3       1 ATP         0.0598
     16 O4'        -0.8674   -3.1929   -0.0945 O.3       1 ATP        -0.3455
     17 C3'         0.1338   -1.6715    1.4027 C.3       1 ATP         0.0742
     18 O3'         1.2893   -1.4445    2.1808 O.3       1 ATP        -0.6025
     19 C2'         0.2158   -1.0724    0.0128 C.3       1 ATP         0.1145
     20 O2'         1.5141   -1.2448   -0.5513 O.3       1 ATP        -0.5835
     21 C1'        -0.7897   -1.9176   -0.7583 C.3       1 ATP         0.3776
     22 N9         -2.1040   -1.3333   -0.7704 N.pl3     1 ATP        -0.4429
     23 C8         -3.2114   -1.8635   -0.2619 C.ar      1 ATP         0.2964
     24 N7         -4.2711   -1.0786   -0.4314 N.pl3     1 ATP        -0.4957
     25 C5         -3.7955    0.0193   -1.0917 C.ar      1 ATP        -0.1346
     26 C6         -4.4862    1.2344   -1.5586 C.ar      1 ATP         0.7213
     27 N6         -5.7554    1.4030   -1.3689 N.2       1 ATP        -0.8215
     28 N1         -3.6267    2.1218   -2.1949 N.pl3     1 ATP        -0.8455
     29 C2         -2.2761    1.8558   -2.3521 C.ar      1 ATP         0.6477
     30 N3         -1.6453    0.7881   -1.9466 N.2       1 ATP        -0.5707
     31 C4         -2.4722   -0.1108   -1.3117 C.ar      1 ATP         0.2637
     32 HOG3       -4.4081   -4.9531    8.5427 H         1 ATP         0.4378
     33 H5'1       -0.1949   -3.8603    3.1385 H         1 ATP         0.0340
     34 H5'2       -0.9496   -4.9375    1.9351 H         1 ATP         0.0340
     35 H4'         0.8874   -3.6466    0.8805 H         1 ATP         0.0910
     36 H3'        -0.7376   -1.2333    1.9867 H         1 ATP         0.0656
     37 HO3'        1.3408   -0.4870    2.3219 H         1 ATP         0.4386
     38 H2'        -0.0384   -0.0310    0.0096 H         1 ATP         0.0788
     39 HO2'        2.1463   -0.7958    0.0370 H         1 ATP         0.4363
     40 H1'        -0.4769   -2.1002   -1.8093 H         1 ATP         0.1225
     41 H8         -3.2547   -2.8183    0.2325 H         1 ATP         0.3824
     42 HN62       -6.0352    2.3041   -1.7656 H         1 ATP         0.4018
     43 H2         -1.7412    2.6624   -2.8773 H         1 ATP         0.0652
     44 H44        -4.0029    2.9939   -2.5557 H         1 ATP         0.4503
     45 H45        -5.2179   -1.2649   -0.1322 H         1 ATP         0.5209
@<TRIPOS>BOND
     1    1    2 2
     2    1    3 1
     3    1    4 1
     4    1    8 1
     5    4   32 1
     6    5    6 2
     7    5    7 1
     8    5    8 1
     9    5   12 1
    10    9   10 2
    11    9   11 1
    12    9   12 1
    13    9   13 1
    14   13   14 1
    15   14   15 1
    16   14   33 1
    17   14   34 1
    18   15   16 1
    19   15   17 1
    20   15   35 1
    21   16   21 1
    22   17   18 1
    23   17   19 1
    24   17   36 1
    25   18   37 1
    26   19   20 1
    27   19   21 1
    28   19   38 1
    29   20   39 1
    30   21   22 1
    31   21   40 1
    32   22   23 ar
    33   22   31 ar
    34   23   24 ar
    35   23   41 1
    36   24   25 ar
    37   24   45 1
    38   25   26 ar
    39   25   31 ar
    40   26   27 2
    41   26   28 ar
    42   27   42 1
    43   28   29 ar
    44   28   44 1
    45   29   30 ar
    46   29   43 1
    47   30   31 ar
@<TRIPOS>SUBSTRUCTURE
     1 ATP         1 GROUP 0 A     ****
@<TRIPOS>MOLECULE
[[[3,4-dihydroxy-5-(6-imino-7,8-dihydro-1~{H}-purin-8-ylium-9-yl)tetrahydrofuran-2-yl]methoxy-oxido-phosphoryl]oxy-oxido-phosphoryl] hydrogen phosphate
   45    47     1     0     0
SMALL
USER_CHARGES

@<TRIPOS>ATOM
      1 PG          8.0443   -1.4533    1.1656 P.3       1 ATP         1.5631
      2 O1G         7.6646   -0.8068    2.4792 O.co2     1 ATP        -0.8806
      3 O2G         9.4007   -1.2090    0.5425 O.co2     1 ATP        -0.8806
      4 O3G         7.8161   -3.0648    1.2955 O.3       1 ATP        -0.8165
      5 PB          6.7076   -1.6936   -1.4610 P.3       1 ATP         1.6877
      6 O1B         7.8406   -1.1650   -2.3121 O.co2     1 ATP        -0.8727
      7 O2B         6.4013   -3.1733   -1.3957 O.co2     1 ATP        -0.8727
      8 O3B         6.8882   -1.1288    0.0602 O.3       1 ATP        -0.8330
      9 PA          4.4789   -0.9083   -3.2418 P.3       1 ATP         1.6036
     10 O1A         3.8928   -2.2901   -3.4350 O.co2     1 ATP        -0.9062
     11 O2A         5.3134   -0.2634   -4.3269 O.co2     1 ATP        -0.9062
     12 O3A         5.3405   -0.8925   -1.8536 O.3       1 ATP        -0.8166
     13 O5'         3.2903    0.1346   -2.8241 O.3       1 ATP        -0.5510
     14 C5'         2.2816   -0.2918   -1.9206 C.3       1 ATP         0.2099
     15 C4'         2.7248    0.0226   -0.4980 C.3       1 ATP         0.0598
     16 O4'         2.4697    1.4219   -0.2462 O.3       1 ATP        -0.3455
     17 C3'         1.9404   -0.7419    0.5596 C.3       1 ATP         0.0742
     18 O3'         2.7418   -0.8086    1.7389 O.3       1 ATP        -0.6025
     19 C2'         0.7477    0.1630    0.7858 C.3       1 ATP         0.1145
     20 O2'         0.1373   -0.0577    2.0407 O.3       1 ATP        -0.5835
     21 C1'         1.3733    1.5427    0.6747 C.3       1 ATP         0.3776
     22 N9          0.4520    2.5240    0.1767 N.pl3     1 ATP        -0.4429
     23 C8          0.2216    2.8192   -1.0985 C.ar      1 ATP         0.2964
     24 N7         -0.6906    3.7763   -1.2384 N.pl3     1 ATP        -0.4957
     25 C5         -1.0575    4.1037    0.0366 C.ar      1 ATP        -0.1346
     26 C6         -2.0291    5.0943    0.5330 C.ar      1 ATP         0.7213
     27 N6         -2.7093    5.8371   -0.2800 N.2       1 ATP        -0.8215
     28 N1         -2.1051    5.1136    1.9204 N.pl3     1 ATP        -0.8455
     29 C2         -1.3354    4.2774    2.7129 C.ar      1 ATP         0.6477
     30 N3         -0.4707    3.3945    2.2944 N.2       1 ATP        -0.5707
     31 C4         -0.3734    3.3525    0.9220 C.ar      1 ATP         0.2637
     32 HOG3        8.0196   -3.6292    0.5195 H         1 ATP         0.4378
     33 H5'1        1.3514    0.2330   -2.1577 H         1 ATP         0.0340
     34 H5'2        2.1280   -1.3678   -2.0460 H         1 ATP         0.0340
     35 H4'         3.8044   -0.1397   -0.4040 H         1 ATP         0.0910
     36 H3'         1.6764   -1.7639    0.2728 H         1 ATP         0.0656
     37 HO3'        3.5554   -1.2733    1.4914 H         1 ATP         0.4386
     38 H2'        -0.0011    0.0027    0.0003 H         1 ATP         0.0788
     39 HO2'       -0.6141    0.5574    2.1082 H         1 ATP         0.4363
     40 H1'         1.7826    1.9024    1.6451 H         1 ATP         0.1225
     41 H8          0.7125    2.3429   -1.9292 H         1 ATP         0.3824
     42 HN62       -3.3217    6.4517    0.2629 H         1 ATP         0.4018
     43 H2         -1.5188    4.4223    3.7890 H         1 ATP         0.0652
     44 H44        -2.7470    5.7626    2.3665 H         1 ATP         0.4503
     45 H45        -1.0305    4.1680   -2.1054 H         1 ATP         0.5209
@<TRIPOS>BOND
     1    1    2 2
     2    1    3 1
     3    1    4 1
     4    1    8 1
     5    4   32 1
     6    5    6 2
     7    5    7 1
     8    5    8 1
     9    5   12 1
    10    9   10 2
    11    9   11 1
    12    9   12 1
    13    9   13 1
    14   13   14 1
    15   14   15 1
    16   14   33 1
    17   14   34 1
    18   15   16 1
    19   15   17 1
    20   15   35 1
    21   16   21 1
    22   17   18 1
    23   17   19 1
    24   17   36 1
    25   18   37 1
    26   19   20 1
    27   19   21 1
    28   19   38 1
    29   20   39 1
    30   21   22 1
    31   21   40 1
    32   22   23 ar
    33   22   31 ar
    34   23   24 ar
    35   23   41 1
    36   24   25 ar
    37   24   45 1
    38   25   26 ar
    39   25   31 ar
    40   26   27 2
    41   26   28 ar
    42   27   42 1
    43   28   29 ar
    44   28   44 1
    45   29   30 ar
    46   29   43 1
    47   30   31 ar
@<TRIPOS>SUBSTRUCTURE
     1 ATP         1 GROUP 0 A     ****
@<TRIPOS>MOLECULE
[[[3,4-dihydroxy-5-(6-imino-7,8-dihydro-1~{H}-purin-8-ylium-9-yl)tetrahydrofuran-2-yl]methoxy-oxido-phosphoryl]oxy-oxido-phosphoryl] hydrogen phosphate
   45    47     1     0     0
SMALL
USER_CHARGES

@<TRIPOS>ATOM
      1 PG          4.1680   -8.7075    4.0002 P.3       1 ATP         1.5631
      2 O1G         3.8275  -10.0167    3.3240 O.co2     1 ATP        -0.8806
      3 O2G         4.3375   -8.6289    5.5012 O.co2     1 ATP        -0.8806
      4 O3G         5.5054   -8.0917    3.2945 O.3       1 ATP        -0.8165
      5 PB          3.0749   -5.9657    3.8236 P.3       1 ATP         1.6877
      6 O1B         2.8412   -5.7470    5.3018 O.co2     1 ATP        -0.8727
      7 O2B         4.2476   -5.3274    3.1130 O.co2     1 ATP        -0.8727
      8 O3B         3.0952   -7.5714    3.5289 O.3       1 ATP        -0.8330
      9 PA          0.1785   -6.1253    3.2400 P.3       1 ATP         1.6036
     10 O1A        -0.3146   -5.6401    4.5860 O.co2     1 ATP        -0.9062
     11 O2A         0.1316   -7.5950    2.8829 O.co2     1 ATP        -0.9062
     12 O3A         1.7063   -5.5909    3.0164 O.3       1 ATP        -0.8166
     13 O5'        -0.5687   -5.2869    2.0510 O.3       1 ATP        -0.5510
     14 C5'        -0.7840   -3.8935    2.2172 C.3       1 ATP         0.2099
     15 C4'        -0.0724   -3.1466    1.1027 C.3       1 ATP         0.0598
     16 O4'        -0.8674   -3.1929   -0.0945 O.3       1 ATP        -0.3455
     17 C3'         0.1338   -1.6715    1.4027 C.3       1 ATP         0.0742
     18 O3'         1.2893   -1.4445    2.1808 O.3       1 ATP        -0.6025
     19 C2'         0.2158   -1.0724    0.0128 C.3       1 ATP         0.1145
     20 O2'         1.5141   -1.2448   -0.5513 O.3       1 ATP        -0.5835
     21 C1'        -0.7897   -1.9176   -0.7583 C.3       1 ATP         0.3776
     22 N9         -2.1040   -1.3333   -0.7704 N.pl3     1 ATP        -0.4429
     23 C8         -3.0590   -1.5123    0.1363 C.ar      1 ATP         0.2964
     24 N7         -4.1655   -0.8354   -0.1554 N.pl3     1 ATP        -0.4957
     25 C5         -3.8852   -0.1874   -1.3253 C.ar      1 ATP        -0.1346
     26 C6         -4.7113    0.7160   -2.1458 C.ar      1 ATP         0.7213
     27 N6         -5.9213    1.0209   -1.8021 N.2       1 ATP        -0.8215
     28 N1         -4.0411    1.1673   -3.2764 N.pl3     1 ATP        -0.8455
     29 C2         -2.7403    0.7865   -3.5638 C.ar      1 ATP         0.6477
     30 N3         -1.9921   -0.0108   -2.8519 N.2       1 ATP        -0.5707
     31 C4         -2.6302   -0.4747   -1.7239 C.ar      1 ATP         0.2637
     32 HOG3        5.8560   -7.2369    3.6245 H         1 ATP         0.4378
     33 H5'1       -1.8598   -3.6968    2.1850 H         1 ATP         0.0340
     34 H5'2       -0.3933   -3.5903    3.1931 H         1 ATP         0.0340
     35 H4'         0.8874   -3.6466    0.8805 H         1 ATP         0.0910
     36 H3'        -0.7376   -1.2333    1.9867 H         1 ATP         0.0656
     37 HO3'        1.1626   -1.9325    3.0084 H         1 ATP         0.4386
     38 H2'        -0.0384   -0.0310    0.0096 H         1 ATP         0.0788
     39 HO2'        2.1463   -0.7958    0.0370 H         1 ATP         0.4363
     40 H1'        -0.4769   -2.1002   -1.8093 H         1 ATP         0.1225
     41 H8         -2.9569   -2.1323    1.0098 H         1 ATP         0.3824
     42 HN62       -6.3169    1.6552   -2.5012 H         1 ATP         0.4018
     43 H2         -2.3612    1.2343   -4.4957 H         1 ATP         0.0652
     44 H44        -4.5223    1.7976   -3.9117 H         1 ATP         0.4503
     45 H45        -5.0218   -0.8132    0.3804 H         1 ATP         0.5209
@<TRIPOS>BOND
     1    1    2 2
     2    1    3 1
     3    1    4 1
     4    1    8 1
     5    4   32 1
     6    5    6 2
     7    5    7 1
     8    5    8 1
     9    5   12 1
    10    9   10 2
    11    9   11 1
    12    9   12 1
    13    9   13 1
    14   13   14 1
    15   14   15 1
    16   14   33 1
    17   14   34 1
    18   15   16 1
    19   15   17 1
    20   15   35 1
    21   16   21 1
    22   17   18 1
    23   17   19 1
    24   17   36 1
    25   18   37 1
    26   19   20 1
    27   19   21 1
    28   19   38 1
    29   20   39 1
    30   21   22 1
    31   21   40 1
    32   22   23 ar
    33   22   31 ar
    34   23   24 ar
    35   23   41 1
    36   24   25 ar
    37   24   45 1
    38   25   26 ar
    39   25   31 ar
    40   26   27 2
    41   26   28 ar
    42   27   42 1
    43   28   29 ar
    44   28   44 1
    45   29   30 ar
    46   29   43 1
    47   30   31 ar
@<TRIPOS>SUBSTRUCTURE
     1 ATP         1 GROUP 0 A     ****
@<TRIPOS>MOLECULE
[[[3,4-dihydroxy-5-(6-imino-7,8-dihydro-1~{H}-purin-8-ylium-9-yl)tetrahydrofuran-2-yl]methoxy-oxido-phosphoryl]oxy-oxido-phosphoryl] hydrogen phosphate
   45    47     1     0     0
SMALL
USER_CHARGES

@<TRIPOS>ATOM
      1 PG         -5.3463   -6.2583    3.5686 P.3       1 ATP         1.5631
      2 O1G        -5.8320   -7.6875    3.4732 O.co2     1 ATP        -0.8806
      3 O2G        -4.7097   -5.5727    2.3802 O.co2     1 ATP        -0.8806
      4 O3G        -6.5752   -5.3278    4.1070 O.3       1 ATP        -0.8165
      5 PB         -2.8753   -6.7710    5.1097 P.3       1 ATP         1.6877
      6 O1B        -2.3065   -6.1966    6.3880 O.co2     1 ATP        -0.8727
      7 O2B        -2.9600   -8.2653    4.8920 O.co2     1 ATP        -0.8727
      8 O3B        -4.3509   -6.1204    4.8546 O.3       1 ATP        -0.8330
      9 PA         -0.5379   -6.2517    3.3713 P.3       1 ATP         1.6036
     10 O1A        -0.2956   -7.6832    2.9444 O.co2     1 ATP        -0.9062
     11 O2A         0.3403   -5.5964    4.4149 O.co2     1 ATP        -0.9062
     12 O3A        -2.0952   -6.1004    3.8421 O.3       1 ATP        -0.8166
     13 O5'        -0.5687   -5.2869    2.0510 O.3       1 ATP        -0.5510
     14 C5'        -0.7840   -3.8935    2.2172 C.3       1 ATP         0.2099
     15 C4'        -0.0724   -3.1466    1.1027 C.3       1 ATP         0.0598
     16 O4'        -0.8674   -3.1929   -0.0945 O.3       1 ATP        -0.3455
     17 C3'         0.1338   -1.6715    1.4027 C.3       1 ATP         0.0742
     18 O3'         1.2893   -1.4445    2.1808 O.3       1 ATP        -0.6025
     19 C2'         0.2158   -1.0724    0.0128 C.3       1 ATP         0.1145
     20 O2'         1.5141   -1.2448   -0.5513 O.3       1 ATP        -0.5835
     21 C1'        -0.7897   -1.9176   -0.7583 C.3       1 ATP         0.3776
     22 N9         -2.1040   -1.3333   -0.7704 N.pl3     1 ATP        -0.4429
     23 C8         -3.2114   -1.8635   -0.2619 C.ar      1 ATP         0.2964
     24 N7         -4.2711   -1.0786   -0.4314 N.pl3     1 ATP        -0.4957
     25 C5         -3.7955    0.0193   -1.0917 C.ar      1 ATP        -0.1346
     26 C6         -4.4862    1.2344   -1.5586 C.ar      1 ATP         0.7213
     27 N6         -5.7554    1.4030   -1.3689 N.2       1 ATP        -0.8215
     28 N1         -3.6267    2.1218   -2.1949 N.pl3     1 ATP        -0.8455
     29 C2         -2.2761    1.8558   -2.3521 C.ar      1 ATP         0.6477
     30 N3         -1.6453    0.7881   -1.9466 N.2       1 ATP        -0.5707
     31 C4         -2.4722   -0.1108   -1.3117 C.ar      1 ATP         0.2637
     32 HOG3       -6.4169   -4.3667    4.2230 H         1 ATP         0.4378
     33 H5'1       -1.8598   -3.6968    2.1850 H         1 ATP         0.0340
     34 H5'2       -0.3933   -3.5903    3.1931 H         1 ATP         0.0340
     35 H4'         0.8874   -3.6466    0.8805 H         1 ATP         0.0910
     36 H3'        -0.7376   -1.2333    1.9867 H         1 ATP         0.0656
     37 HO3'        1.3408   -0.4870    2.3219 H         1 ATP         0.4386
     38 H2'        -0.0384   -0.0310    0.0096 H         1 ATP         0.0788
     39 HO2'        2.1463   -0.7958    0.0370 H         1 ATP         0.4363
     40 H1'        -0.4769   -2.1002   -1.8093 H         1 ATP         0.1225
     41 H8         -3.2547   -2.8183    0.2325 H         1 ATP         0.3824
     42 HN62       -6.0352    2.3041   -1.7656 H         1 ATP         0.4018
     43 H2         -1.7412    2.6624   -2.8773 H         1 ATP         0.0652
     44 H44        -4.0029    2.9939   -2.5557 H         1 ATP         0.4503
     45 H45        -5.2179   -1.2649   -0.1322 H         1 ATP         0.5209
@<TRIPOS>BOND
     1    1    2 2
     2    1    3 1
     3    1    4 1
     4    1    8 1
     5    4   32 1
     6    5    6 2
     7    5    7 1
     8    5    8 1
     9    5   12 1
    10    9   10 2
    11    9   11 1
    12    9   12 1
    13    9   13 1
    14   13   14 1
    15   14   15 1
    16   14   33 1
    17   14   34 1
    18   15   16 1
    19   15   17 1
    20   15   35 1
    21   16   21 1
    22   17   18 1
    23   17   19 1
    24   17   36 1
    25   18   37 1
    26   19   20 1
    27   19   21 1
    28   19   38 1
    29   20   39 1
    30   21   22 1
    31   21   40 1
    32   22   23 ar
    33   22   31 ar
    34   23   24 ar
    35   23   41 1
    36   24   25 ar
    37   24   45 1
    38   25   26 ar
    39   25   31 ar
    40   26   27 2
    41   26   28 ar
    42   27   42 1
    43   28   29 ar
    44   28   44 1
    45   29   30 ar
    46   29   43 1
    47   30   31 ar
@<TRIPOS>SUBSTRUCTURE
     1 ATP         1 GROUP 0 A     ****
@<TRIPOS>MOLECULE
[[[3,4-dihydroxy-5-(6-imino-7,8-dihydro-1~{H}-purin-8-ylium-9-yl)tetrahydrofuran-2-yl]methoxy-oxido-phosphoryl]oxy-oxido-phosphoryl] hydrogen phosphate
   45    47     1     0     0
SMALL
USER_CHARGES

@<TRIPOS>ATOM
      1 PG          1.1551   -4.0218   -6.6612 P.3       1 ATP         1.5631
      2 O1G         1.8436   -3.9991   -8.0077 O.co2     1 ATP        -0.8806
      3 O2G        -0.2332   -3.4469   -6.4885 O.co2     1 ATP        -0.8806
      4 O3G         1.1534   -5.5569   -6.1053 O.3       1 ATP        -0.8165
      5 PB          2.6648   -1.8167   -5.3957 P.3       1 ATP         1.6877
      6 O1B         3.5647   -1.4912   -6.5669 O.co2     1 ATP        -0.8727
      7 O2B         1.4836   -0.9385   -5.0477 O.co2     1 ATP        -0.8727
      8 O3B         2.1452   -3.3570   -5.5470 O.3       1 ATP        -0.8330
      9 PA          4.4789   -0.9083   -3.2418 P.3       1 ATP         1.6036
     10 O1A         5.4277   -0.2314   -4.2071 O.co2     1 ATP        -0.9062
     11 O2A         4.9966   -1.5644   -1.9804 O.co2     1 ATP        -0.9062
     12 O3A         3.5882   -2.0049   -4.0627 O.3       1 ATP        -0.8166
     13 O5'         3.2903    0.1346   -2.8241 O.3       1 ATP        -0.5510
     14 C5'         2.2816   -0.2918   -1.9206 C.3       1 ATP         0.2099
     15 C4'         2.7248    0.0226   -0.4980 C.3       1 ATP         0.0598
     16 O4'         2.4697    1.4219   -0.2462 O.3       1 ATP        -0.3455
     17 C3'         1.9404   -0.7419    0.5596 C.3       1 ATP         0.0742
     18 O3'         2.7418   -0.8086    1.7389 O.3       1 ATP        -0.6025
     19 C2'         0.7477    0.1630    0.7858 C.3       1 ATP         0.1145
     20 O2'         0.1373   -0.0577    2.0407 O.3       1 ATP        -0.5835
     21 C1'         1.3733    1.5427    0.6747 C.3       1 ATP         0.3776
     22 N9          0.4520    2.5240    0.1767 N.pl3     1 ATP        -0.4429
     23 C8          0.5691    3.2215   -0.9485 C.ar      1 ATP         0.2964
     24 N7         -0.4499    4.0551   -1.1342 N.pl3     1 ATP        -0.4957
     25 C5         -1.2618    3.8674   -0.0512 C.ar      1 ATP        -0.1346
     26 C6         -2.5420    4.5007    0.3120 C.ar      1 ATP         0.7213
     27 N6         -3.0874    5.3993   -0.4432 N.2       1 ATP        -0.8215
     28 N1         -3.0494    4.0205    1.5133 N.pl3     1 ATP        -0.8455
     29 C2         -2.3933    3.0527    2.2567 C.ar      1 ATP         0.6477
     30 N3         -1.2611    2.4796    1.9536 N.2       1 ATP        -0.5707
     31 C4         -0.7334    2.9358    0.7669 C.ar      1 ATP         0.2637
     32 HOG3        0.7390   -5.7378   -5.2347 H         1 ATP         0.4378
     33 H5'1        1.3514    0.2330   -2.1577 H         1 ATP         0.0340
     34 H5'2        2.1280   -1.3678   -2.0460 H         1 ATP         0.0340
     35 H4'         3.8044   -0.1397   -0.4040 H         1 ATP         0.0910
     36 H3'         1.6764   -1.7639    0.2728 H         1 ATP         0.0656
     37 HO3'        3.5554   -1.2733    1.4914 H         1 ATP         0.4386
     38 H2'        -0.0011    0.0027    0.0003 H         1 ATP         0.0788
     39 HO2'        0.8082    0.1199    2.7232 H         1 ATP         0.4363
     40 H1'         1.7826    1.9024    1.6451 H         1 ATP         0.1225
     41 H8          1.3912    3.1285   -1.6365 H         1 ATP         0.3824
     42 HN62       -3.9637    5.7083   -0.0142 H         1 ATP         0.4018
     43 H2         -2.9317    2.7866    3.1796 H         1 ATP         0.0652
     44 H44        -3.9307    4.3923    1.8558 H         1 ATP         0.4503
     45 H45        -0.5835    4.6857   -1.9122 H         1 ATP         0.5209
@<TRIPOS>BOND
     1    1    2 2
     2    1    3 1
     3    1    4 1
     4    1    8 1
     5    4   32 1
     6    5    6 2
     7    5    7 1
     8    5    8 1
     9    5   12 1
    10    9   10 2
    11    9   11 1
    12    9   12 1
    13    9   13 1
    14   13   14 1
    15   14   15 1
    16   14   33 1
    17   14   34 1
    18   15   16 1
    19   15   17 1
    20   15   35 1
    21   16   21 1
    22   17   18 1
    23   17   19 1
    24   17   36 1
    25   18   37 1
    26   19   20 1
    27   19   21 1
    28   19   38 1
    29   20   39 1
    30   21   22 1
    31   21   40 1
    32   22   23 ar
    33   22   31 ar
    34   23   24 ar
    35   23   41 1
    36   24   25 ar
    37   24   45 1
    38   25   26 ar
    39   25   31 ar
    40   26   27 2
    41   26   28 ar
    42   27   42 1
    43   28   29 ar
    44   28   44 1
    45   29   30 ar
    46   29   43 1
    47   30   31 ar
@<TRIPOS>SUBSTRUCTURE
     1 ATP         1 GROUP 0 A     ****
@<TRIPOS>MOLECULE
[[[3,4-dihydroxy-5-(6-imino-7,8-dihydro-1~{H}-purin-8-ylium-9-yl)tetrahydrofuran-2-yl]methoxy-oxido-phosphoryl]oxy-oxido-phosphoryl] hydrogen phosphate
   45    47     1     0     0
SMALL
USER_CHARGES

@<TRIPOS>ATOM
      1 PG         -0.6116   -8.2983    7.5947 P.3       1 ATP         1.5631
      2 O1G         0.3399   -9.4290    7.2727 O.co2     1 ATP        -0.8806
      3 O2G        -2.0270   -8.5789    8.0481 O.co2     1 ATP        -0.8806
      4 O3G         0.0992   -7.3184    8.6904 O.3       1 ATP        -0.8165
      5 PB         -1.2307   -7.4856    4.8198 P.3       1 ATP         1.6877
      6 O1B        -0.3617   -8.5026    4.1140 O.co2     1 ATP        -0.8727
      7 O2B        -2.7321   -7.6534    4.8917 O.co2     1 ATP        -0.8727
      8 O3B        -0.6556   -7.2653    6.3319 O.3       1 ATP        -0.8330
      9 PA          0.5355   -5.2351    4.0645 P.3       1 ATP         1.6036
     10 O1A         1.3877   -5.9879    3.0658 O.co2     1 ATP        -0.9062
     11 O2A         1.0595   -4.9242    5.4496 O.co2     1 ATP        -0.9062
     12 O3A        -0.8973   -6.0051    4.2183 O.3       1 ATP        -0.8166
     13 O5'         0.0118   -3.8395    3.3916 O.3       1 ATP        -0.5510
     14 C5'        -0.7840   -3.8935    2.2172 C.3       1 ATP         0.2099
     15 C4'        -0.0724   -3.1466    1.1027 C.3       1 ATP         0.0598
     16 O4'        -0.8674   -3.1929   -0.0945 O.3       1 ATP        -0.3455
     17 C3'         0.1338   -1.6715    1.4027 C.3       1 ATP         0.0742
     18 O3'         1.2893   -1.4445    2.1808 O.3       1 ATP        -0.6025
     19 C2'         0.2158   -1.0724    0.0128 C.3       1 ATP         0.1145
     20 O2'         1.5141   -1.2448   -0.5513 O.3       1 ATP        -0.5835
     21 C1'        -0.7897   -1.9176   -0.7583 C.3       1 ATP         0.3776
     22 N9         -2.1040   -1.3333   -0.7704 N.pl3     1 ATP        -0.4429
     23 C8         -3.0590   -1.5123    0.1363 C.ar      1 ATP         0.2964
     24 N7         -4.1655   -0.8354   -0.1554 N.pl3     1 ATP        -0.4957
     25 C5         -3.8852   -0.1874   -1.3253 C.ar      1 ATP        -0.1346
     26 C6         -4.7113    0.7160   -2.1458 C.ar      1 ATP         0.7213
     27 N6         -5.9213    1.0209   -1.8021 N.2       1 ATP        -0.8215
     28 N1         -4.0411    1.1673   -3.2764 N.pl3     1 ATP        -0.8455
     29 C2         -2.7403    0.7865   -3.5638 C.ar      1 ATP         0.6477
     30 N3         -1.9921   -0.0108   -2.8519 N.2       1 ATP        -0.5707
     31 C4         -2.6302   -0.4747   -1.7239 C.ar      1 ATP         0.2637
     32 HOG3       -0.3958   -6.5315    9.0034 H         1 ATP         0.4378
     33 H5'1       -0.9348   -4.9415    1.9415 H         1 ATP         0.0340
     34 H5'2       -1.7548   -3.4350    2.4278 H         1 ATP         0.0340
     35 H4'         0.8874   -3.6466    0.8805 H         1 ATP         0.0910
     36 H3'        -0.7376   -1.2333    1.9867 H         1 ATP         0.0656
     37 HO3'        1.3408   -0.4870    2.3219 H         1 ATP         0.4386
     38 H2'        -0.0384   -0.0310    0.0096 H         1 ATP         0.0788
     39 HO2'        1.4998   -0.8412   -1.4369 H         1 ATP         0.4363
     40 H1'        -0.4769   -2.1002   -1.8093 H         1 ATP         0.1225
     41 H8         -2.9569   -2.1323    1.0098 H         1 ATP         0.3824
     42 HN62       -6.3169    1.6552   -2.5012 H         1 ATP         0.4018
     43 H2         -2.3612    1.2343   -4.4957 H         1 ATP         0.0652
     44 H44        -4.5223    1.7976   -3.9117 H         1 ATP         0.4503
     45 H45        -5.0218   -0.8132    0.3804 H         1 ATP         0.5209
@<TRIPOS>BOND
     1    1    2 2
     2    1    3 1
     3    1    4 1
     4    1    8 1
     5    4   32 1
     6    5    6 2
     7    5    7 1
     8    5    8 1
     9    5   12 1
    10    9   10 2
    11    9   11 1
    12    9   12 1
    13    9   13 1
    14   13   14 1
    15   14   15 1
    16   14   33 1
    17   14   34 1
    18   15   16 1
    19   15   17 1
    20   15   35 1
    21   16   21 1
    22   17   18 1
    23   17   19 1
    24   17   36 1
    25   18   37 1
    26   19   20 1
    27   19   21 1
    28   19   38 1
    29   20   39 1
    30   21   22 1
    31   21   40 1
    32   22   23 ar
    33   22   31 ar
    34   23   24 ar
    35   23   41 1
    36   24   25 ar
    37   24   45 1
    38   25   26 ar
    39   25   31 ar
    40   26   27 2
    41   26   28 ar
    42   27   42 1
    43   28   29 ar
    44   28   44 1
    45   29   30 ar
    46   29   43 1
    47   30   31 ar
@<TRIPOS>SUBSTRUCTURE
     1 ATP         1 GROUP 0 A     ****
@<TRIPOS>MOLECULE
[[[3,4-dihydroxy-5-(6-imino-7,8-dihydro-1~{H}-purin-8-ylium-9-yl)tetrahydrofuran-2-yl]methoxy-oxido-phosphoryl]oxy-oxido-phosphoryl] hydrogen phosphate
   45    47     1     0     0
SMALL
USER_CHARGES

@<TRIPOS>ATOM
      1 PG         -2.1464   -4.3347    9.1390 P.3       1 ATP         1.5631
      2 O1G        -2.8197   -5.6459    9.4781 O.co2     1 ATP        -0.8806
      3 O2G        -2.7563   -3.0161    9.5599 O.co2     1 ATP        -0.8806
      4 O3G        -0.6058   -4.3885    9.6769 O.3       1 ATP        -0.8165
      5 PB         -2.8860   -4.2261    6.2781 P.3       1 ATP         1.6877
      6 O1B        -3.6593   -5.5246    6.2210 O.co2     1 ATP        -0.8727
      7 O2B        -3.5970   -2.8914    6.3051 O.co2     1 ATP        -0.8727
      8 O3B        -1.8463   -4.2908    7.5353 O.3       1 ATP        -0.8330
      9 PA         -0.6019   -3.1447    4.7390 P.3       1 ATP         1.6036
     10 O1A         0.4236   -3.2066    5.8503 O.co2     1 ATP        -0.9062
     11 O2A        -1.2370   -1.8291    4.3448 O.co2     1 ATP        -0.9062
     12 O3A        -1.7942   -4.2134    5.0645 O.3       1 ATP        -0.8166
     13 O5'         0.0118   -3.8395    3.3916 O.3       1 ATP        -0.5510
     14 C5'        -0.7840   -3.8935    2.2172 C.3       1 ATP         0.2099
     15 C4'        -0.0724   -3.1466    1.1027 C.3       1 ATP         0.0598
     16 O4'        -0.8674   -3.1929   -0.0945 O.3       1 ATP        -0.3455
     17 C3'         0.1338   -1.6715    1.4027 C.3       1 ATP         0.0742
     18 O3'         1.2893   -1.4445    2.1808 O.3       1 ATP        -0.6025
     19 C2'         0.2158   -1.0724    0.0128 C.3       1 ATP         0.1145
     20 O2'         1.5141   -1.2448   -0.5513 O.3       1 ATP        -0.5835
     21 C1'        -0.7897   -1.9176   -0.7583 C.3       1 ATP         0.3776
     22 N9         -2.1040   -1.3333   -0.7704 N.pl3     1 ATP        -0.4429
     23 C8         -3.0590   -1.5123    0.1363 C.ar      1 ATP         0.2964
     24 N7         -4.1655   -0.8354   -0.1554 N.pl3     1 ATP        -0.4957
     25 C5         -3.8852   -0.1874   -1.3253 C.ar      1 ATP        -0.1346
     26 C6         -4.7113    0.7160   -2.1458 C.ar      1 ATP         0.7213
     27 N6         -5.9213    1.0209   -1.8021 N.2       1 ATP        -0.8215
     28 N1         -4.0411    1.1673   -3.2764 N.pl3     1 ATP        -0.8455
     29 C2         -2.7403    0.7865   -3.5638 C.ar      1 ATP         0.6477
     30 N3         -1.9921   -0.0108   -2.8519 N.2       1 ATP        -0.5707
     31 C4         -2.6302   -0.4747   -1.7239 C.ar      1 ATP         0.2637
     32 HOG3       -0.0329   -3.6056    9.5315 H         1 ATP         0.4378
     33 H5'1       -0.9348   -4.9415    1.9415 H         1 ATP         0.0340
     34 H5'2       -1.7548   -3.4350    2.4278 H         1 ATP         0.0340
     35 H4'         0.8874   -3.6466    0.8805 H         1 ATP         0.0910
     36 H3'        -0.7376   -1.2333    1.9867 H         1 ATP         0.0656
     37 HO3'        1.1626   -1.9325    3.0084 H         1 ATP         0.4386
     38 H2'        -0.0384   -0.0310    0.0096 H         1 ATP         0.0788
     39 HO2'        2.1463   -0.7958    0.0370 H         1 ATP         0.4363
     40 H1'        -0.4769   -2.1002   -1.8093 H         1 ATP         0.1225
     41 H8         -2.9569   -2.1323    1.0098 H         1 ATP         0.3824
     42 HN62       -6.3169    1.6552   -2.5012 H         1 ATP         0.4018
     43 H2         -2.3612    1.2343   -4.4957 H         1 ATP         0.0652
     44 H44        -4.5223    1.7976   -3.9117 H         1 ATP         0.4503
     45 H45        -5.0218   -0.8132    0.3804 H         1 ATP         0.5209
@<TRIPOS>BOND
     1    1    2 2
     2    1    3 1
     3    1    4 1
     4    1    8 1
     5    4   32 1
     6    5    6 2
     7    5    7 1
     8    5    8 1
     9    5   12 1
    10    9   10 2
    11    9   11 1
    12    9   12 1
    13    9   13 1
    14   13   14 1
    15   14   15 1
    16   14   33 1
    17   14   34 1
    18   15   16 1
    19   15   17 1
    20   15   35 1
    21   16   21 1
    22   17   18 1
    23   17   19 1
    24   17   36 1
    25   18   37 1
    26   19   20 1
    27   19   21 1
    28   19   38 1
    29   20   39 1
    30   21   22 1
    31   21   40 1
    32   22   23 ar
    33   22   31 ar
    34   23   24 ar
    35   23   41 1
    36   24   25 ar
    37   24   45 1
    38   25   26 ar
    39   25   31 ar
    40   26   27 2
    41   26   28 ar
    42   27   42 1
    43   28   29 ar
    44   28   44 1
    45   29   30 ar
    46   29   43 1
    47   30   31 ar
@<TRIPOS>SUBSTRUCTURE
     1 ATP         1 GROUP 0 A     ****
@<TRIPOS>MOLECULE
[[[3,4-dihydroxy-5-(6-imino-7,8-dihydro-1~{H}-purin-8-ylium-9-yl)tetrahydrofuran-2-yl]methoxy-oxido-phosphoryl]oxy-oxido-phosphoryl] hydrogen phosphate
   45    47     1     0     0
SMALL
USER_CHARGES

@<TRIPOS>ATOM
      1 PG          4.0920    5.3149    0.8584 P.3       1 ATP         1.5631
      2 O1G         2.8011    6.0942    0.9754 O.co2     1 ATP        -0.8806
      3 O2G         5.3926    6.0111    0.5245 O.co2     1 ATP        -0.8806
      4 O3G         4.3028    4.4516    2.2281 O.3       1 ATP        -0.8165
      5 PB          3.5940    4.0992   -1.7907 P.3       1 ATP         1.6877
      6 O1B         2.2320    4.7083   -2.0384 O.co2     1 ATP        -0.8727
      7 O2B         4.8272    4.6274   -2.4890 O.co2     1 ATP        -0.8727
      8 O3B         3.8725    4.0767   -0.1821 O.3       1 ATP        -0.8330
      9 PA          3.2344    1.6562   -3.4210 P.3       1 ATP         1.6036
     10 O1A         4.4053    1.8754   -4.3543 O.co2     1 ATP        -0.9062
     11 O2A         1.8186    1.9327   -3.8780 O.co2     1 ATP        -0.9062
     12 O3A         3.5002    2.4887   -2.0403 O.3       1 ATP        -0.8166
     13 O5'         3.2903    0.1346   -2.8241 O.3       1 ATP        -0.5510
     14 C5'         2.2816   -0.2918   -1.9206 C.3       1 ATP         0.2099
     15 C4'         2.7248    0.0226   -0.4980 C.3       1 ATP         0.0598
     16 O4'         2.4697    1.4219   -0.2462 O.3       1 ATP        -0.3455
     17 C3'         1.9404   -0.7419    0.5596 C.3       1 ATP         0.0742
     18 O3'         2.7418   -0.8086    1.7389 O.3       1 ATP        -0.6025
     19 C2'         0.7477    0.1630    0.7858 C.3       1 ATP         0.1145
     20 O2'         0.1373   -0.0577    2.0407 O.3       1 ATP        -0.5835
     21 C1'         1.3733    1.5427    0.6747 C.3       1 ATP         0.3776
     22 N9          0.4520    2.5240    0.1767 N.pl3     1 ATP        -0.4429
     23 C8         -0.2004    2.4829   -0.9804 C.ar      1 ATP         0.2964
     24 N7         -0.9830    3.5431   -1.1568 N.pl3     1 ATP        -0.4957
     25 C5         -0.8095    4.3012   -0.0331 C.ar      1 ATP        -0.1346
     26 C6         -1.4065    5.5904    0.3585 C.ar      1 ATP         0.7213
     27 N6         -2.2501    6.2030   -0.4084 N.2       1 ATP        -0.8215
     28 N1         -0.9585    6.0272    1.5994 N.pl3     1 ATP        -0.8455
     29 C2         -0.0508    5.3009    2.3532 C.ar      1 ATP         0.6477
     30 N3          0.4890    4.1592    2.0257 N.2       1 ATP        -0.5707
     31 C4          0.0637    3.7006    0.7995 C.ar      1 ATP         0.2637
     32 HOG3        5.1023    3.8888    2.3069 H         1 ATP         0.4378
     33 H5'1        1.3514    0.2330   -2.1577 H         1 ATP         0.0340
     34 H5'2        2.1280   -1.3678   -2.0460 H         1 ATP         0.0340
     35 H4'         3.8044   -0.1397   -0.4040 H         1 ATP         0.0910
     36 H3'         1.6764   -1.7639    0.2728 H         1 ATP         0.0656
     37 HO3'        2.2232   -1.2979    2.3953 H         1 ATP         0.4386
     38 H2'        -0.0011    0.0027    0.0003 H         1 ATP         0.0788
     39 HO2'       -0.6141    0.5574    2.1082 H         1 ATP         0.4363
     40 H1'         1.7826    1.9024    1.6451 H         1 ATP         0.1225
     41 H8         -0.1116    1.6863   -1.6984 H         1 ATP         0.3824
     42 HN62       -2.5420    7.0730    0.0447 H         1 ATP         0.4018
     43 H2          0.1969    5.7893    3.3086 H         1 ATP         0.0652
     44 H44        -1.3097    6.9080    1.9642 H         1 ATP         0.4503
     45 H45        -1.5735    3.7351   -1.9538 H         1 ATP         0.5209
@<TRIPOS>BOND
     1    1    2 2
     2    1    3 1
     3    1    4 1
     4    1    8 1
     5    4   32 1
     6    5    6 2
     7    5    7 1
     8    5    8 1
     9    5   12 1
    10    9   10 2
    11    9   11 1
    12    9   12 1
    13    9   13 1
    14   13   14 1
    15   14   15 1
    16   14   33 1
    17   14   34 1
    18   15   16 1
    19   15   17 1
    20   15   35 1
    21   16   21 1
    22   17   18 1
    23   17   19 1
    24   17   36 1
    25   18   37 1
    26   19   20 1
    27   19   21 1
    28   19   38 1
    29   20   39 1
    30   21   22 1
    31   21   40 1
    32   22   23 ar
    33   22   31 ar
    34   23   24 ar
    35   23   41 1
    36   24   25 ar
    37   24   45 1
    38   25   26 ar
    39   25   31 ar
    40   26   27 2
    41   26   28 ar
    42   27   42 1
    43   28   29 ar
    44   28   44 1
    45   29   30 ar
    46   29   43 1
    47   30   31 ar
@<TRIPOS>SUBSTRUCTURE
     1 ATP         1 GROUP 0 A     ****
@<TRIPOS>MOLECULE
[[[3,4-dihydroxy-5-(6-imino-7,8-dihydro-1~{H}-purin-8-ylium-9-yl)tetrahydrofuran-2-yl]methoxy-oxido-phosphoryl]oxy-oxido-phosphoryl] hydrogen phosphate
   45    47     1     0     0
SMALL
USER_CHARGES

@<TRIPOS>ATOM
      1 PG          4.2521   -3.9434   -7.6431 P.3       1 ATP         1.5631
      2 O1G         3.1820   -3.7580   -8.6956 O.co2     1 ATP        -0.8806
      3 O2G         4.6849   -5.3264   -7.2097 O.co2     1 ATP        -0.8806
      4 O3G         5.5771   -3.1041   -8.0970 O.3       1 ATP        -0.8165
      5 PB          3.4664   -1.4950   -6.1831 P.3       1 ATP         1.6877
      6 O1B         4.6910   -0.6677   -6.5046 O.co2     1 ATP        -0.8727
      7 O2B         2.1507   -1.2539   -6.8891 O.co2     1 ATP        -0.8727
      8 O3B         3.8518   -3.0756   -6.3200 O.3       1 ATP        -0.8330
      9 PA          2.1372   -2.2718   -3.6563 P.3       1 ATP         1.6036
     10 O1A         2.4859   -3.7437   -3.7017 O.co2     1 ATP        -0.9062
     11 O2A         0.7459   -1.7951   -4.0125 O.co2     1 ATP        -0.9062
     12 O3A         3.2120   -1.4489   -4.5713 O.3       1 ATP        -0.8166
     13 O5'         2.5245   -1.6648   -2.1878 O.3       1 ATP        -0.5510
     14 C5'         2.2816   -0.2918   -1.9206 C.3       1 ATP         0.2099
     15 C4'         2.7248    0.0226   -0.4980 C.3       1 ATP         0.0598
     16 O4'         2.4697    1.4219   -0.2462 O.3       1 ATP        -0.3455
     17 C3'         1.9404   -0.7419    0.5596 C.3       1 ATP         0.0742
     18 O3'         2.7418   -0.8086    1.7389 O.3       1 ATP        -0.6025
     19 C2'         0.7477    0.1630    0.7858 C.3       1 ATP         0.1145
     20 O2'         0.1373   -0.0577    2.0407 O.3       1 ATP        -0.5835
     21 C1'         1.3733    1.5427    0.6747 C.3       1 ATP         0.3776
     22 N9          0.4520    2.5240    0.1767 N.pl3     1 ATP        -0.4429
     23 C8         -0.3347    3.3121    0.9021 C.ar      1 ATP         0.2964
     24 N7         -1.0768    4.1172    0.1479 N.pl3     1 ATP        -0.4957
     25 C5         -0.7318    3.8130   -1.1389 C.ar      1 ATP        -0.1346
     26 C6         -1.2094    4.3661   -2.4187 C.ar      1 ATP         0.7213
     27 N6         -2.1040    5.3007   -2.4569 N.2       1 ATP        -0.8215
     28 N1         -0.5949    3.7732   -3.5151 N.pl3     1 ATP        -0.8455
     29 C2          0.3569    2.7758   -3.3770 C.ar      1 ATP         0.6477
     30 N3          0.7934    2.2726   -2.2552 N.2       1 ATP        -0.5707
     31 C4          0.2019    2.8412   -1.1500 C.ar      1 ATP         0.2637
     32 HOG3        6.3652   -3.1242   -7.5132 H         1 ATP         0.4378
     33 H5'1        2.8432    0.3119   -2.6398 H         1 ATP         0.0340
     34 H5'2        1.2128   -0.0927   -2.0428 H         1 ATP         0.0340
     35 H4'         3.8044   -0.1397   -0.4040 H         1 ATP         0.0910
     36 H3'         1.6764   -1.7639    0.2728 H         1 ATP         0.0656
     37 HO3'        2.2232   -1.2979    2.3953 H         1 ATP         0.4386
     38 H2'        -0.0011    0.0027    0.0003 H         1 ATP         0.0788
     39 HO2'       -0.6141    0.5574    2.1082 H         1 ATP         0.4363
     40 H1'         1.7826    1.9024    1.6451 H         1 ATP         0.1225
     41 H8         -0.3729    3.3063    1.9775 H         1 ATP         0.3824
     42 HN62       -2.2940    5.5408   -3.4335 H         1 ATP         0.4018
     43 H2          0.7413    2.4168   -4.3445 H         1 ATP         0.0652
     44 H44        -0.8531    4.0829   -4.4476 H         1 ATP         0.4503
     45 H45        -1.7471    4.8016    0.4689 H         1 ATP         0.5209
@<TRIPOS>BOND
     1    1    2 2
     2    1    3 1
     3    1    4 1
     4    1    8 1
     5    4   32 1
     6    5    6 2
     7    5    7 1
     8    5    8 1
     9    5   12 1
    10    9   10 2
    11    9   11 1
    12    9   12 1
    13    9   13 1
    14   13   14 1
    15   14   15 1
    16   14   33 1
    17   14   34 1
    18   15   16 1
    19   15   17 1
    20   15   35 1
    21   16   21 1
    22   17   18 1
    23   17   19 1
    24   17   36 1
    25   18   37 1
    26   19   20 1
    27   19   21 1
    28   19   38 1
    29   20   39 1
    30   21   22 1
    31   21   40 1
    32   22   23 ar
    33   22   31 ar
    34   23   24 ar
    35   23   41 1
    36   24   25 ar
    37   24   45 1
    38   25   26 ar
    39   25   31 ar
    40   26   27 2
    41   26   28 ar
    42   27   42 1
    43   28   29 ar
    44   28   44 1
    45   29   30 ar
    46   29   43 1
    47   30   31 ar
@<TRIPOS>SUBSTRUCTURE
     1 ATP         1 GROUP 0 A     ****
@<TRIPOS>MOLECULE
[[[3,4-dihydroxy-5-(6-imino-7,8-dihydro-1~{H}-purin-8-ylium-9-yl)tetrahydrofuran-2-yl]methoxy-oxido-phosphoryl]oxy-oxido-phosphoryl] hydrogen phosphate
   45    47     1     0     0
SMALL
USER_CHARGES

@<TRIPOS>ATOM
      1 PG          1.9830   -3.7537   -6.9784 P.3       1 ATP         1.5631
      2 O1G         2.5092   -3.3916   -8.3493 O.co2     1 ATP        -0.8806
      3 O2G         0.5047   -3.6759   -6.6677 O.co2     1 ATP        -0.8806
      4 O3G         2.5147   -5.2497   -6.5972 O.3       1 ATP        -0.8165
      5 PB          2.8230   -1.2994   -5.5593 P.3       1 ATP         1.6877
      6 O1B         3.4685   -0.5990   -6.7341 O.co2     1 ATP        -0.8727
      7 O2B         1.4598   -0.8842   -5.0523 O.co2     1 ATP        -0.8727
      8 O3B         2.8055   -2.9054   -5.8525 O.3       1 ATP        -0.8330
      9 PA          4.4374   -0.0466   -3.4193 P.3       1 ATP         1.6036
     10 O1A         5.0360    0.9827   -4.3535 O.co2     1 ATP        -0.9062
     11 O2A         5.2435   -0.6084   -2.2686 O.co2     1 ATP        -0.9062
     12 O3A         3.8708   -1.2955   -4.3076 O.3       1 ATP        -0.8166
     13 O5'         3.0213    0.5153   -2.8245 O.3       1 ATP        -0.5510
     14 C5'         2.2816   -0.2918   -1.9206 C.3       1 ATP         0.2099
     15 C4'         2.7248    0.0226   -0.4980 C.3       1 ATP         0.0598
     16 O4'         2.4697    1.4219   -0.2462 O.3       1 ATP        -0.3455
     17 C3'         1.9404   -0.7419    0.5596 C.3       1 ATP         0.0742
     18 O3'         2.7418   -0.8086    1.7389 O.3       1 ATP        -0.6025
     19 C2'         0.7477    0.1630    0.7858 C.3       1 ATP         0.1145
     20 O2'         0.1373   -0.0577    2.0407 O.3       1 ATP        -0.5835
     21 C1'         1.3733    1.5427    0.6747 C.3       1 ATP         0.3776
     22 N9          0.4520    2.5240    0.1767 N.pl3     1 ATP        -0.4429
     23 C8         -0.2004    2.4829   -0.9804 C.ar      1 ATP         0.2964
     24 N7         -0.9830    3.5431   -1.1568 N.pl3     1 ATP        -0.4957
     25 C5         -0.8095    4.3012   -0.0331 C.ar      1 ATP        -0.1346
     26 C6         -1.4065    5.5904    0.3585 C.ar      1 ATP         0.7213
     27 N6         -2.2501    6.2030   -0.4084 N.2       1 ATP        -0.8215
     28 N1         -0.9585    6.0272    1.5994 N.pl3     1 ATP        -0.8455
     29 C2         -0.0508    5.3009    2.3532 C.ar      1 ATP         0.6477
     30 N3          0.4890    4.1592    2.0257 N.2       1 ATP        -0.5707
     31 C4          0.0637    3.7006    0.7995 C.ar      1 ATP         0.2637
     32 HOG3        3.4824   -5.4043   -6.5542 H         1 ATP         0.4378
     33 H5'1        1.2163   -0.0770   -2.0471 H         1 ATP         0.0340
     34 H5'2        2.4655   -1.3443   -2.1563 H         1 ATP         0.0340
     35 H4'         3.8044   -0.1397   -0.4040 H         1 ATP         0.0910
     36 H3'         1.6764   -1.7639    0.2728 H         1 ATP         0.0656
     37 HO3'        3.5554   -1.2733    1.4914 H         1 ATP         0.4386
     38 H2'        -0.0011    0.0027    0.0003 H         1 ATP         0.0788
     39 HO2'       -0.1563   -0.9855    2.0596 H         1 ATP         0.4363
     40 H1'         1.7826    1.9024    1.6451 H         1 ATP         0.1225
     41 H8         -0.1116    1.6863   -1.6984 H         1 ATP         0.3824
     42 HN62       -2.5420    7.0730    0.0447 H         1 ATP         0.4018
     43 H2          0.1969    5.7893    3.3086 H         1 ATP         0.0652
     44 H44        -1.3097    6.9080    1.9642 H         1 ATP         0.4503
     45 H45        -1.5735    3.7351   -1.9538 H         1 ATP         0.5209
@<TRIPOS>BOND
     1    1    2 2
     2    1    3 1
     3    1    4 1
     4    1    8 1
     5    4   32 1
     6    5    6 2
     7    5    7 1
     8    5    8 1
     9    5   12 1
    10    9   10 2
    11    9   11 1
    12    9   12 1
    13    9   13 1
    14   13   14 1
    15   14   15 1
    16   14   33 1
    17   14   34 1
    18   15   16 1
    19   15   17 1
    20   15   35 1
    21   16   21 1
    22   17   18 1
    23   17   19 1
    24   17   36 1
    25   18   37 1
    26   19   20 1
    27   19   21 1
    28   19   38 1
    29   20   39 1
    30   21   22 1
    31   21   40 1
    32   22   23 ar
    33   22   31 ar
    34   23   24 ar
    35   23   41 1
    36   24   25 ar
    37   24   45 1
    38   25   26 ar
    39   25   31 ar
    40   26   27 2
    41   26   28 ar
    42   27   42 1
    43   28   29 ar
    44   28   44 1
    45   29   30 ar
    46   29   43 1
    47   30   31 ar
@<TRIPOS>SUBSTRUCTURE
     1 ATP         1 GROUP 0 A     ****
@<TRIPOS>MOLECULE
[[[3,4-dihydroxy-5-(6-imino-7,8-dihydro-1~{H}-purin-8-ylium-9-yl)tetrahydrofuran-2-yl]methoxy-oxido-phosphoryl]oxy-oxido-phosphoryl] hydrogen phosphate
   45    47     1     0     0
SMALL
USER_CHARGES

@<TRIPOS>ATOM
      1 PG          7.4581   -0.3958   -5.6498 P.3       1 ATP         1.5631
      2 O1G         8.1284   -1.6527   -6.1579 O.co2     1 ATP        -0.8806
      3 O2G         8.1821    0.5479   -4.7154 O.co2     1 ATP        -0.8806
      4 O3G         6.9170    0.4581   -6.9320 O.3       1 ATP        -0.8165
      5 PB          4.7775   -1.6435   -5.6233 P.3       1 ATP         1.6877
      6 O1B         4.1761   -0.8520   -6.7632 O.co2     1 ATP        -0.8727
      7 O2B         5.2213   -3.0769   -5.8133 O.co2     1 ATP        -0.8727
      8 O3B         6.0180   -0.7908   -4.9912 O.3       1 ATP        -0.8330
      9 PA          3.9668   -2.1116   -2.8163 P.3       1 ATP         1.6036
     10 O1A         5.0719   -1.3107   -2.1623 O.co2     1 ATP        -0.9062
     11 O2A         4.0210   -3.6235   -2.8465 O.co2     1 ATP        -0.9062
     12 O3A         3.7633   -1.5743   -4.3459 O.3       1 ATP        -0.8166
     13 O5'         2.5245   -1.6648   -2.1878 O.3       1 ATP        -0.5510
     14 C5'         2.2816   -0.2918   -1.9206 C.3       1 ATP         0.2099
     15 C4'         2.7248    0.0226   -0.4980 C.3       1 ATP         0.0598
     16 O4'         2.4697    1.4219   -0.2462 O.3       1 ATP        -0.3455
     17 C3'         1.9404   -0.7419    0.5596 C.3       1 ATP         0.0742
     18 O3'         2.7418   -0.8086    1.7389 O.3       1 ATP        -0.6025
     19 C2'         0.7477    0.1630    0.7858 C.3       1 ATP         0.1145
     20 O2'         0.1373   -0.0577    2.0407 O.3       1 ATP        -0.5835
     21 C1'         1.3733    1.5427    0.6747 C.3       1 ATP         0.3776
     22 N9          0.4520    2.5240    0.1767 N.pl3     1 ATP        -0.4429
     23 C8         -0.2004    2.4829   -0.9804 C.ar      1 ATP         0.2964
     24 N7         -0.9830    3.5431   -1.1568 N.pl3     1 ATP        -0.4957
     25 C5         -0.8095    4.3012   -0.0331 C.ar      1 ATP        -0.1346
     26 C6         -1.4065    5.5904    0.3585 C.ar      1 ATP         0.7213
     27 N6         -2.2501    6.2030   -0.4084 N.2       1 ATP        -0.8215
     28 N1         -0.9585    6.0272    1.5994 N.pl3     1 ATP        -0.8455
     29 C2         -0.0508    5.3009    2.3532 C.ar      1 ATP         0.6477
     30 N3          0.4890    4.1592    2.0257 N.2       1 ATP        -0.5707
     31 C4          0.0637    3.7006    0.7995 C.ar      1 ATP         0.2637
     32 HOG3        6.2633    0.0378   -7.5306 H         1 ATP         0.4378
     33 H5'1        2.8432    0.3119   -2.6398 H         1 ATP         0.0340
     34 H5'2        1.2128   -0.0927   -2.0428 H         1 ATP         0.0340
     35 H4'         3.8044   -0.1397   -0.4040 H         1 ATP         0.0910
     36 H3'         1.6764   -1.7639    0.2728 H         1 ATP         0.0656
     37 HO3'        2.2232   -1.2979    2.3953 H         1 ATP         0.4386
     38 H2'        -0.0011    0.0027    0.0003 H         1 ATP         0.0788
     39 HO2'       -0.6141    0.5574    2.1082 H         1 ATP         0.4363
     40 H1'         1.7826    1.9024    1.6451 H         1 ATP         0.1225
     41 H8         -0.1116    1.6863   -1.6984 H         1 ATP         0.3824
     42 HN62       -2.5420    7.0730    0.0447 H         1 ATP         0.4018
     43 H2          0.1969    5.7893    3.3086 H         1 ATP         0.0652
     44 H44        -1.3097    6.9080    1.9642 H         1 ATP         0.4503
     45 H45        -1.5735    3.7351   -1.9538 H         1 ATP         0.5209
@<TRIPOS>BOND
     1    1    2 2
     2    1    3 1
     3    1    4 1
     4    1    8 1
     5    4   32 1
     6    5    6 2
     7    5    7 1
     8    5    8 1
     9    5   12 1
    10    9   10 2
    11    9   11 1
    12    9   12 1
    13    9   13 1
    14   13   14 1
    15   14   15 1
    16   14   33 1
    17   14   34 1
    18   15   16 1
    19   15   17 1
    20   15   35 1
    21   16   21 1
    22   17   18 1
    23   17   19 1
    24   17   36 1
    25   18   37 1
    26   19   20 1
    27   19   21 1
    28   19   38 1
    29   20   39 1
    30   21   22 1
    31   21   40 1
    32   22   23 ar
    33   22   31 ar
    34   23   24 ar
    35   23   41 1
    36   24   25 ar
    37   24   45 1
    38   25   26 ar
    39   25   31 ar
    40   26   27 2
    41   26   28 ar
    42   27   42 1
    43   28   29 ar
    44   28   44 1
    45   29   30 ar
    46   29   43 1
    47   30   31 ar
@<TRIPOS>SUBSTRUCTURE
     1 ATP         1 GROUP 0 A     ****
@<TRIPOS>MOLECULE
[[[3,4-dihydroxy-5-(6-imino-7,8-dihydro-1~{H}-purin-8-ylium-9-yl)tetrahydrofuran-2-yl]methoxy-oxido-phosphoryl]oxy-oxido-phosphoryl] hydrogen phosphate
   45    47     1     0     0
SMALL
USER_CHARGES

@<TRIPOS>ATOM
      1 PG         -0.9061   -1.4218   -7.4882 P.3       1 ATP         1.5631
      2 O1G        -0.5913   -0.1122   -8.1761 O.co2     1 ATP        -0.8806
      3 O2G        -2.3287   -1.7885   -7.1283 O.co2     1 ATP        -0.8806
      4 O3G        -0.2643   -2.6377   -8.3689 O.3       1 ATP        -0.8165
      5 PB          0.2146   -2.8219   -5.1372 P.3       1 ATP         1.6877
      6 O1B        -1.0851   -3.0411   -4.3954 O.co2     1 ATP        -0.8727
      7 O2B         0.8924   -3.9514   -5.8804 O.co2     1 ATP        -0.8727
      8 O3B         0.0287   -1.5611   -6.1576 O.3       1 ATP        -0.8330
      9 PA          2.0064   -2.7685   -2.7831 P.3       1 ATP         1.6036
     10 O1A         2.9063   -3.9109   -3.2021 O.co2     1 ATP        -0.9062
     11 O2A         0.9442   -2.9689   -1.7242 O.co2     1 ATP        -0.9062
     12 O3A         1.2930   -2.1462   -4.1148 O.3       1 ATP        -0.8166
     13 O5'         2.9216   -1.4836   -2.3516 O.3       1 ATP        -0.5510
     14 C5'         2.2816   -0.2918   -1.9206 C.3       1 ATP         0.2099
     15 C4'         2.7248    0.0226   -0.4980 C.3       1 ATP         0.0598
     16 O4'         2.4697    1.4219   -0.2462 O.3       1 ATP        -0.3455
     17 C3'         1.9404   -0.7419    0.5596 C.3       1 ATP         0.0742
     18 O3'         2.7418   -0.8086    1.7389 O.3       1 ATP        -0.6025
     19 C2'         0.7477    0.1630    0.7858 C.3       1 ATP         0.1145
     20 O2'         0.1373   -0.0577    2.0407 O.3       1 ATP        -0.5835
     21 C1'         1.3733    1.5427    0.6747 C.3       1 ATP         0.3776
     22 N9          0.4520    2.5240    0.1767 N.pl3     1 ATP        -0.4429
     23 C8         -0.2004    2.4829   -0.9804 C.ar      1 ATP         0.2964
     24 N7         -0.9830    3.5431   -1.1568 N.pl3     1 ATP        -0.4957
     25 C5         -0.8095    4.3012   -0.0331 C.ar      1 ATP        -0.1346
     26 C6         -1.4065    5.5904    0.3585 C.ar      1 ATP         0.7213
     27 N6         -2.2501    6.2030   -0.4084 N.2       1 ATP        -0.8215
     28 N1         -0.9585    6.0272    1.5994 N.pl3     1 ATP        -0.8455
     29 C2         -0.0508    5.3009    2.3532 C.ar      1 ATP         0.6477
     30 N3          0.4890    4.1592    2.0257 N.2       1 ATP        -0.5707
     31 C4          0.0637    3.7006    0.7995 C.ar      1 ATP         0.2637
     32 HOG3       -0.3838   -3.5580   -8.0510 H         1 ATP         0.4378
     33 H5'1        2.5589    0.5217   -2.5976 H         1 ATP         0.0340
     34 H5'2        1.1982   -0.4388   -1.9617 H         1 ATP         0.0340
     35 H4'         3.8044   -0.1397   -0.4040 H         1 ATP         0.0910
     36 H3'         1.6764   -1.7639    0.2728 H         1 ATP         0.0656
     37 HO3'        3.5554   -1.2733    1.4914 H         1 ATP         0.4386
     38 H2'        -0.0011    0.0027    0.0003 H         1 ATP         0.0788
     39 HO2'       -0.1563   -0.9855    2.0596 H         1 ATP         0.4363
     40 H1'         1.7826    1.9024    1.6451 H         1 ATP         0.1225
     41 H8         -0.1116    1.6863   -1.6984 H         1 ATP         0.3824
     42 HN62       -2.5420    7.0730    0.0447 H         1 ATP         0.4018
     43 H2          0.1969    5.7893    3.3086 H         1 ATP         0.0652
     44 H44        -1.3097    6.9080    1.9642 H         1 ATP         0.4503
     45 H45        -1.5735    3.7351   -1.9538 H         1 ATP         0.5209
@<TRIPOS>BOND
     1    1    2 2
     2    1    3 1
     3    1    4 1
     4    1    8 1
     5    4   32 1
     6    5    6 2
     7    5    7 1
     8    5    8 1
     9    5   12 1
    10    9   10 2
    11    9   11 1
    12    9   12 1
    13    9   13 1
    14   13   14 1
    15   14   15 1
    16   14   33 1
    17   14   34 1
    18   15   16 1
    19   15   17 1
    20   15   35 1
    21   16   21 1
    22   17   18 1
    23   17   19 1
    24   17   36 1
    25   18   37 1
    26   19   20 1
    27   19   21 1
    28   19   38 1
    29   20   39 1
    30   21   22 1
    31   21   40 1
    32   22   23 ar
    33   22   31 ar
    34   23   24 ar
    35   23   41 1
    36   24   25 ar
    37   24   45 1
    38   25   26 ar
    39   25   31 ar
    40   26   27 2
    41   26   28 ar
    42   27   42 1
    43   28   29 ar
    44   28   44 1
    45   29   30 ar
    46   29   43 1
    47   30   31 ar
@<TRIPOS>SUBSTRUCTURE
     1 ATP         1 GROUP 0 A     ****
@<TRIPOS>MOLECULE
[[[3,4-dihydroxy-5-(6-imino-7,8-dihydro-1~{H}-purin-8-ylium-9-yl)tetrahydrofuran-2-yl]methoxy-oxido-phosphoryl]oxy-oxido-phosphoryl] hydrogen phosphate
   45    47     1     0     0
SMALL
USER_CHARGES

@<TRIPOS>ATOM
      1 PG          3.1668   -5.3063   -5.7082 P.3       1 ATP         1.5631
      2 O1G         4.3186   -5.3833   -6.6854 O.co2     1 ATP        -0.8806
      3 O2G         1.7940   -5.8189   -6.0828 O.co2     1 ATP        -0.8806
      4 O3G         3.6230   -6.0188   -4.3117 O.3       1 ATP        -0.8165
      5 PB          2.6034   -2.4155   -5.9711 P.3       1 ATP         1.6877
      6 O1B         3.6800   -2.0922   -6.9830 O.co2     1 ATP        -0.8727
      7 O2B         1.1521   -2.5303   -6.3811 O.co2     1 ATP        -0.8727
      8 O3B         3.0296   -3.7720   -5.1688 O.3       1 ATP        -0.8330
      9 PA          4.0010   -0.9663   -3.8028 P.3       1 ATP         1.6036
     10 O1A         5.0351   -0.2791   -4.6680 O.co2     1 ATP        -0.9062
     11 O2A         4.3698   -2.1728   -2.9673 O.co2     1 ATP        -0.9062
     12 O3A         2.7156   -1.3587   -4.7320 O.3       1 ATP        -0.8166
     13 O5'         3.2903    0.1346   -2.8241 O.3       1 ATP        -0.5510
     14 C5'         2.2816   -0.2918   -1.9206 C.3       1 ATP         0.2099
     15 C4'         2.7248    0.0226   -0.4980 C.3       1 ATP         0.0598
     16 O4'         2.4697    1.4219   -0.2462 O.3       1 ATP        -0.3455
     17 C3'         1.9404   -0.7419    0.5596 C.3       1 ATP         0.0742
     18 O3'         2.7418   -0.8086    1.7389 O.3       1 ATP        -0.6025
     19 C2'         0.7477    0.1630    0.7858 C.3       1 ATP         0.1145
     20 O2'         0.1373   -0.0577    2.0407 O.3       1 ATP        -0.5835
     21 C1'         1.3733    1.5427    0.6747 C.3       1 ATP         0.3776
     22 N9          0.4520    2.5240    0.1767 N.pl3     1 ATP        -0.4429
     23 C8         -0.8620    2.5492    0.3743 C.ar      1 ATP         0.2964
     24 N7         -1.4419    3.5886   -0.2183 N.pl3     1 ATP        -0.4957
     25 C5         -0.4215    4.2614   -0.8294 C.ar      1 ATP        -0.1346
     26 C6         -0.4310    5.4918   -1.6405 C.ar      1 ATP         0.7213
     27 N6         -1.5302    6.1308   -1.8826 N.2       1 ATP        -0.8215
     28 N1          0.8382    5.8461   -2.0817 N.pl3     1 ATP        -0.8455
     29 C2          1.9625    5.0982   -1.7709 C.ar      1 ATP         0.6477
     30 N3          1.9930    4.0077   -1.0554 N.2       1 ATP        -0.5707
     31 C4          0.7483    3.6314   -0.6038 C.ar      1 ATP         0.2637
     32 HOG3        2.9798   -6.0501   -3.5717 H         1 ATP         0.4378
     33 H5'1        1.3514    0.2330   -2.1577 H         1 ATP         0.0340
     34 H5'2        2.1280   -1.3678   -2.0460 H         1 ATP         0.0340
     35 H4'         3.8044   -0.1397   -0.4040 H         1 ATP         0.0910
     36 H3'         1.6764   -1.7639    0.2728 H         1 ATP         0.0656
     37 HO3'        2.2232   -1.2979    2.3953 H         1 ATP         0.4386
     38 H2'        -0.0011    0.0027    0.0003 H         1 ATP         0.0788
     39 HO2'       -0.1563   -0.9855    2.0596 H         1 ATP         0.4363
     40 H1'         1.7826    1.9024    1.6451 H         1 ATP         0.1225
     41 H8         -1.4030    1.8165    0.9473 H         1 ATP         0.3824
     42 HN62       -1.3197    6.9504   -2.4583 H         1 ATP         0.4018
     43 H2          2.8857    5.5186   -2.1994 H         1 ATP         0.0652
     44 H44         0.9433    6.6815   -2.6502 H         1 ATP         0.4503
     45 H45        -2.4254    3.8199   -0.2108 H         1 ATP         0.5209
@<TRIPOS>BOND
     1    1    2 2
     2    1    3 1
     3    1    4 1
     4    1    8 1
     5    4   32 1
     6    5    6 2
     7    5    7 1
     8    5    8 1
     9    5   12 1
    10    9   10 2
    11    9   11 1
    12    9   12 1
    13    9   13 1
    14   13   14 1
    15   14   15 1
    16   14   33 1
    17   14   34 1
    18   15   16 1
    19   15   17 1
    20   15   35 1
    21   16   21 1
    22   17   18 1
    23   17   19 1
    24   17   36 1
    25   18   37 1
    26   19   20 1
    27   19   21 1
    28   19   38 1
    29   20   39 1
    30   21   22 1
    31   21   40 1
    32   22   23 ar
    33   22   31 ar
    34   23   24 ar
    35   23   41 1
    36   24   25 ar
    37   24   45 1
    38   25   26 ar
    39   25   31 ar
    40   26   27 2
    41   26   28 ar
    42   27   42 1
    43   28   29 ar
    44   28   44 1
    45   29   30 ar
    46   29   43 1
    47   30   31 ar
@<TRIPOS>SUBSTRUCTURE
     1 ATP         1 GROUP 0 A     ****
@<TRIPOS>MOLECULE
[[[3,4-dihydroxy-5-(6-imino-7,8-dihydro-1~{H}-purin-8-ylium-9-yl)tetrahydrofuran-2-yl]methoxy-oxido-phosphoryl]oxy-oxido-phosphoryl] hydrogen phosphate
   45    47     1     0     0
SMALL
USER_CHARGES

@<TRIPOS>ATOM
      1 PG          1.6518   -3.2596   -7.4946 P.3       1 ATP         1.5631
      2 O1G         2.1632   -4.5629   -6.9225 O.co2     1 ATP        -0.8806
      3 O2G         2.1715   -2.7328   -8.8137 O.co2     1 ATP        -0.8806
      4 O3G         0.0223   -3.3304   -7.5705 O.3       1 ATP        -0.8165
      5 PB          1.2668   -0.5462   -6.3844 P.3       1 ATP         1.6877
      6 O1B         2.0324    0.2148   -7.4438 O.co2     1 ATP        -0.8727
      7 O2B        -0.2455   -0.5510   -6.3624 O.co2     1 ATP        -0.8727
      8 O3B         1.7955   -2.0908   -6.3646 O.3       1 ATP        -0.8330
      9 PA          3.3343   -0.0514   -4.3264 P.3       1 ATP         1.6036
     10 O1A         4.1298    0.9787   -5.0986 O.co2     1 ATP        -0.9062
     11 O2A         3.8296   -1.4756   -4.2002 O.co2     1 ATP        -0.9062
     12 O3A         1.8106   -0.0877   -4.9151 O.3       1 ATP        -0.8166
     13 O5'         3.0213    0.5153   -2.8245 O.3       1 ATP        -0.5510
     14 C5'         2.2816   -0.2918   -1.9206 C.3       1 ATP         0.2099
     15 C4'         2.7248    0.0226   -0.4980 C.3       1 ATP         0.0598
     16 O4'         2.4697    1.4219   -0.2462 O.3       1 ATP        -0.3455
     17 C3'         1.9404   -0.7419    0.5596 C.3       1 ATP         0.0742
     18 O3'         2.7418   -0.8086    1.7389 O.3       1 ATP        -0.6025
     19 C2'         0.7477    0.1630    0.7858 C.3       1 ATP         0.1145
     20 O2'         0.1373   -0.0577    2.0407 O.3       1 ATP        -0.5835
     21 C1'         1.3733    1.5427    0.6747 C.3       1 ATP         0.3776
     22 N9          0.4520    2.5240    0.1767 N.pl3     1 ATP        -0.4429
     23 C8         -0.6821    2.9098    0.7521 C.ar      1 ATP         0.2964
     24 N7         -1.3175    3.8384    0.0437 N.pl3     1 ATP        -0.4957
     25 C5         -0.5274    4.0494   -1.0512 C.ar      1 ATP        -0.1346
     26 C6         -0.6966    4.9597   -2.1977 C.ar      1 ATP         0.7213
     27 N6         -1.7259    5.7385   -2.2937 N.2       1 ATP        -0.8215
     28 N1          0.3493    4.8663   -3.1079 N.pl3     1 ATP        -0.8455
     29 C2          1.4148    4.0005   -2.9208 C.ar      1 ATP         0.6477
     30 N3          1.5838    3.1876   -1.9144 N.2       1 ATP        -0.5707
     31 C4          0.5619    3.2578   -0.9949 C.ar      1 ATP         0.2637
     32 HOG3       -0.4628   -2.5541   -7.9229 H         1 ATP         0.4378
     33 H5'1        1.2163   -0.0770   -2.0471 H         1 ATP         0.0340
     34 H5'2        2.4655   -1.3443   -2.1563 H         1 ATP         0.0340
     35 H4'         3.8044   -0.1397   -0.4040 H         1 ATP         0.0910
     36 H3'         1.6764   -1.7639    0.2728 H         1 ATP         0.0656
     37 HO3'        3.5554   -1.2733    1.4914 H         1 ATP         0.4386
     38 H2'        -0.0011    0.0027    0.0003 H         1 ATP         0.0788
     39 HO2'       -0.1563   -0.9855    2.0596 H         1 ATP         0.4363
     40 H1'         1.7826    1.9024    1.6451 H         1 ATP         0.1225
     41 H8         -1.0516    2.5207    1.6849 H         1 ATP         0.3824
     42 HN62       -1.6520    6.2842   -3.1564 H         1 ATP         0.4018
     43 H2          2.1542    4.0525   -3.7351 H         1 ATP         0.0652
     44 H44         0.3306    5.4533   -3.9370 H         1 ATP         0.4503
     45 H45        -2.1941    4.2838    0.2756 H         1 ATP         0.5209
@<TRIPOS>BOND
     1    1    2 2
     2    1    3 1
     3    1    4 1
     4    1    8 1
     5    4   32 1
     6    5    6 2
     7    5    7 1
     8    5    8 1
     9    5   12 1
    10    9   10 2
    11    9   11 1
    12    9   12 1
    13    9   13 1
    14   13   14 1
    15   14   15 1
    16   14   33 1
    17   14   34 1
    18   15   16 1
    19   15   17 1
    20   15   35 1
    21   16   21 1
    22   17   18 1
    23   17   19 1
    24   17   36 1
    25   18   37 1
    26   19   20 1
    27   19   21 1
    28   19   38 1
    29   20   39 1
    30   21   22 1
    31   21   40 1
    32   22   23 ar
    33   22   31 ar
    34   23   24 ar
    35   23   41 1
    36   24   25 ar
    37   24   45 1
    38   25   26 ar
    39   25   31 ar
    40   26   27 2
    41   26   28 ar
    42   27   42 1
    43   28   29 ar
    44   28   44 1
    45   29   30 ar
    46   29   43 1
    47   30   31 ar
@<TRIPOS>SUBSTRUCTURE
     1 ATP         1 GROUP 0 A     ****
@<TRIPOS>MOLECULE
[[[3,4-dihydroxy-5-(6-imino-7,8-dihydro-1~{H}-purin-8-ylium-9-yl)tetrahydrofuran-2-yl]methoxy-oxido-phosphoryl]oxy-oxido-phosphoryl] hydrogen phosphate
   45    47     1     0     0
SMALL
USER_CHARGES

@<TRIPOS>ATOM
      1 PG         -3.3712   -2.9886   -2.4003 P.3       1 ATP         1.5631
      2 O1G        -3.5428   -2.3882   -1.0228 O.co2     1 ATP        -0.8806
      3 O2G        -3.6423   -4.4559   -2.6479 O.co2     1 ATP        -0.8806
      4 O3G        -4.2507   -2.1127   -3.4611 O.3       1 ATP        -0.8165
      5 PB         -0.4171   -3.1149   -2.4234 P.3       1 ATP         1.6877
      6 O1B        -0.1802   -2.5286   -1.0495 O.co2     1 ATP        -0.8727
      7 O2B        -0.2816   -4.6001   -2.6754 O.co2     1 ATP        -0.8727
      8 O3B        -1.8805   -2.6249   -2.9563 O.3       1 ATP        -0.8330
      9 PA          2.1372   -2.2718   -3.6563 P.3       1 ATP         1.6036
     10 O1A         2.4977   -1.2667   -4.7287 O.co2     1 ATP        -0.9062
     11 O2A         2.6452   -3.6953   -3.7281 O.co2     1 ATP        -0.9062
     12 O3A         0.5112   -2.3140   -3.5013 O.3       1 ATP        -0.8166
     13 O5'         2.5245   -1.6648   -2.1878 O.3       1 ATP        -0.5510
     14 C5'         2.2816   -0.2918   -1.9206 C.3       1 ATP         0.2099
     15 C4'         2.7248    0.0226   -0.4980 C.3       1 ATP         0.0598
     16 O4'         2.4697    1.4219   -0.2462 O.3       1 ATP        -0.3455
     17 C3'         1.9404   -0.7419    0.5596 C.3       1 ATP         0.0742
     18 O3'         2.7418   -0.8086    1.7389 O.3       1 ATP        -0.6025
     19 C2'         0.7477    0.1630    0.7858 C.3       1 ATP         0.1145
     20 O2'         0.1373   -0.0577    2.0407 O.3       1 ATP        -0.5835
     21 C1'         1.3733    1.5427    0.6747 C.3       1 ATP         0.3776
     22 N9          0.4520    2.5240    0.1767 N.pl3     1 ATP        -0.4429
     23 C8         -0.6821    2.9098    0.7521 C.ar      1 ATP         0.2964
     24 N7         -1.3175    3.8384    0.0437 N.pl3     1 ATP        -0.4957
     25 C5         -0.5274    4.0494   -1.0512 C.ar      1 ATP        -0.1346
     26 C6         -0.6966    4.9597   -2.1977 C.ar      1 ATP         0.7213
     27 N6         -1.7259    5.7385   -2.2937 N.2       1 ATP        -0.8215
     28 N1          0.3493    4.8663   -3.1079 N.pl3     1 ATP        -0.8455
     29 C2          1.4148    4.0005   -2.9208 C.ar      1 ATP         0.6477
     30 N3          1.5838    3.1876   -1.9144 N.2       1 ATP        -0.5707
     31 C4          0.5619    3.2578   -0.9949 C.ar      1 ATP         0.2637
     32 HOG3       -4.2433   -2.3785   -4.4053 H         1 ATP         0.4378
     33 H5'1        2.8432    0.3119   -2.6398 H         1 ATP         0.0340
     34 H5'2        1.2128   -0.0927   -2.0428 H         1 ATP         0.0340
     35 H4'         3.8044   -0.1397   -0.4040 H         1 ATP         0.0910
     36 H3'         1.6764   -1.7639    0.2728 H         1 ATP         0.0656
     37 HO3'        2.2232   -1.2979    2.3953 H         1 ATP         0.4386
     38 H2'        -0.0011    0.0027    0.0003 H         1 ATP         0.0788
     39 HO2'       -0.1563   -0.9855    2.0596 H         1 ATP         0.4363
     40 H1'         1.7826    1.9024    1.6451 H         1 ATP         0.1225
     41 H8         -1.0516    2.5207    1.6849 H         1 ATP         0.3824
     42 HN62       -1.6520    6.2842   -3.1564 H         1 ATP         0.4018
     43 H2          2.1542    4.0525   -3.7351 H         1 ATP         0.0652
     44 H44         0.3306    5.4533   -3.9370 H         1 ATP         0.4503
     45 H45        -2.1941    4.2838    0.2756 H         1 ATP         0.5209
@<TRIPOS>BOND
     1    1    2 2
     2    1    3 1
     3    1    4 1
     4    1    8 1
     5    4   32 1
     6    5    6 2
     7    5    7 1
     8    5    8 1
     9    5   12 1
    10    9   10 2
    11    9   11 1
    12    9   12 1
    13    9   13 1
    14   13   14 1
    15   14   15 1
    16   14   33 1
    17   14   34 1
    18   15   16 1
    19   15   17 1
    20   15   35 1
    21   16   21 1
    22   17   18 1
    23   17   19 1
    24   17   36 1
    25   18   37 1
    26   19   20 1
    27   19   21 1
    28   19   38 1
    29   20   39 1
    30   21   22 1
    31   21   40 1
    32   22   23 ar
    33   22   31 ar
    34   23   24 ar
    35   23   41 1
    36   24   25 ar
    37   24   45 1
    38   25   26 ar
    39   25   31 ar
    40   26   27 2
    41   26   28 ar
    42   27   42 1
    43   28   29 ar
    44   28   44 1
    45   29   30 ar
    46   29   43 1
    47   30   31 ar
@<TRIPOS>SUBSTRUCTURE
     1 ATP         1 GROUP 0 A     ****
@<TRIPOS>MOLECULE
[[[3,4-dihydroxy-5-(6-imino-7,8-dihydro-1~{H}-purin-8-ylium-9-yl)tetrahydrofuran-2-yl]methoxy-oxido-phosphoryl]oxy-oxido-phosphoryl] hydrogen phosphate
   45    47     1     0     0
SMALL
USER_CHARGES

@<TRIPOS>ATOM
      1 PG         -1.6321   -9.7566    5.2149 P.3       1 ATP         1.5631
      2 O1G        -1.0596  -10.8070    4.2894 O.co2     1 ATP        -0.8806
      3 O2G        -3.1210   -9.6704    5.4663 O.co2     1 ATP        -0.8806
      4 O3G        -0.8685   -9.8619    6.6543 O.3       1 ATP        -0.8165
      5 PB          0.4405   -7.7708    4.5046 P.3       1 ATP         1.6877
      6 O1B         1.1709   -7.7602    5.8289 O.co2     1 ATP        -0.8727
      7 O2B         1.0076   -8.4936    3.3030 O.co2     1 ATP        -0.8727
      8 O3B        -1.0876   -8.2887    4.7537 O.3       1 ATP        -0.8330
      9 PA          1.1153   -5.0160    3.6616 P.3       1 ATP         1.6036
     10 O1A         1.7973   -5.3763    2.3595 O.co2     1 ATP        -0.9062
     11 O2A         1.9269   -4.6320    4.8795 O.co2     1 ATP        -0.9062
     12 O3A         0.1056   -6.2308    4.0794 O.3       1 ATP        -0.8166
     13 O5'         0.0118   -3.8395    3.3916 O.3       1 ATP        -0.5510
     14 C5'        -0.7840   -3.8935    2.2172 C.3       1 ATP         0.2099
     15 C4'        -0.0724   -3.1466    1.1027 C.3       1 ATP         0.0598
     16 O4'        -0.8674   -3.1929   -0.0945 O.3       1 ATP        -0.3455
     17 C3'         0.1338   -1.6715    1.4027 C.3       1 ATP         0.0742
     18 O3'         1.2893   -1.4445    2.1808 O.3       1 ATP        -0.6025
     19 C2'         0.2158   -1.0724    0.0128 C.3       1 ATP         0.1145
     20 O2'         1.5141   -1.2448   -0.5513 O.3       1 ATP        -0.5835
     21 C1'        -0.7897   -1.9176   -0.7583 C.3       1 ATP         0.3776
     22 N9         -2.1040   -1.3333   -0.7704 N.pl3     1 ATP        -0.4429
     23 C8         -3.0590   -1.5123    0.1363 C.ar      1 ATP         0.2964
     24 N7         -4.1655   -0.8354   -0.1554 N.pl3     1 ATP        -0.4957
     25 C5         -3.8852   -0.1874   -1.3253 C.ar      1 ATP        -0.1346
     26 C6         -4.7113    0.7160   -2.1458 C.ar      1 ATP         0.7213
     27 N6         -5.9213    1.0209   -1.8021 N.2       1 ATP        -0.8215
     28 N1         -4.0411    1.1673   -3.2764 N.pl3     1 ATP        -0.8455
     29 C2         -2.7403    0.7865   -3.5638 C.ar      1 ATP         0.6477
     30 N3         -1.9921   -0.0108   -2.8519 N.2       1 ATP        -0.5707
     31 C4         -2.6302   -0.4747   -1.7239 C.ar      1 ATP         0.2637
     32 HOG3       -1.1296   -9.2415    7.3678 H         1 ATP         0.4378
     33 H5'1       -0.9348   -4.9415    1.9415 H         1 ATP         0.0340
     34 H5'2       -1.7548   -3.4350    2.4278 H         1 ATP         0.0340
     35 H4'         0.8874   -3.6466    0.8805 H         1 ATP         0.0910
     36 H3'        -0.7376   -1.2333    1.9867 H         1 ATP         0.0656
     37 HO3'        1.3408   -0.4870    2.3219 H         1 ATP         0.4386
     38 H2'        -0.0384   -0.0310    0.0096 H         1 ATP         0.0788
     39 HO2'        2.1463   -0.7958    0.0370 H         1 ATP         0.4363
     40 H1'        -0.4769   -2.1002   -1.8093 H         1 ATP         0.1225
     41 H8         -2.9569   -2.1323    1.0098 H         1 ATP         0.3824
     42 HN62       -6.3169    1.6552   -2.5012 H         1 ATP         0.4018
     43 H2         -2.3612    1.2343   -4.4957 H         1 ATP         0.0652
     44 H44        -4.5223    1.7976   -3.9117 H         1 ATP         0.4503
     45 H45        -5.0218   -0.8132    0.3804 H         1 ATP         0.5209
@<TRIPOS>BOND
     1    1    2 2
     2    1    3 1
     3    1    4 1
     4    1    8 1
     5    4   32 1
     6    5    6 2
     7    5    7 1
     8    5    8 1
     9    5   12 1
    10    9   10 2
    11    9   11 1
    12    9   12 1
    13    9   13 1
    14   13   14 1
    15   14   15 1
    16   14   33 1
    17   14   34 1
    18   15   16 1
    19   15   17 1
    20   15   35 1
    21   16   21 1
    22   17   18 1
    23   17   19 1
    24   17   36 1
    25   18   37 1
    26   19   20 1
    27   19   21 1
    28   19   38 1
    29   20   39 1
    30   21   22 1
    31   21   40 1
    32   22   23 ar
    33   22   31 ar
    34   23   24 ar
    35   23   41 1
    36   24   25 ar
    37   24   45 1
    38   25   26 ar
    39   25   31 ar
    40   26   27 2
    41   26   28 ar
    42   27   42 1
    43   28   29 ar
    44   28   44 1
    45   29   30 ar
    46   29   43 1
    47   30   31 ar
@<TRIPOS>SUBSTRUCTURE
     1 ATP         1 GROUP 0 A     ****
@<TRIPOS>MOLECULE
[[[3,4-dihydroxy-5-(6-imino-7,8-dihydro-1~{H}-purin-8-ylium-9-yl)tetrahydrofuran-2-yl]methoxy-oxido-phosphoryl]oxy-oxido-phosphoryl] hydrogen phosphate
   45    47     1     0     0
SMALL
USER_CHARGES

@<TRIPOS>ATOM
      1 PG          0.2013    3.7746   -4.6354 P.3       1 ATP         1.5631
      2 O1G         0.7869    4.7592   -5.6229 O.co2     1 ATP        -0.8806
      3 O2G         0.8854    3.4981   -3.3150 O.co2     1 ATP        -0.8806
      4 O3G        -1.3476    4.1971   -4.3383 O.3       1 ATP        -0.8165
      5 PB          0.9889    1.2869   -6.0263 P.3       1 ATP         1.6877
      6 O1B         0.2301    0.0558   -6.4691 O.co2     1 ATP        -0.8727
      7 O2B         1.9135    2.0199   -6.9726 O.co2     1 ATP        -0.8727
      8 O3B        -0.0714    2.3571   -5.3969 O.3       1 ATP        -0.8330
      9 PA          3.0675   -0.0857   -4.4293 P.3       1 ATP         1.6036
     10 O1A         4.2683    0.4444   -5.1827 O.co2     1 ATP        -0.9062
     11 O2A         2.5798   -1.5012   -4.6487 O.co2     1 ATP        -0.9062
     12 O3A         1.8107    0.9323   -4.6611 O.3       1 ATP        -0.8166
     13 O5'         3.2903    0.1346   -2.8241 O.3       1 ATP        -0.5510
     14 C5'         2.2816   -0.2918   -1.9206 C.3       1 ATP         0.2099
     15 C4'         2.7248    0.0226   -0.4980 C.3       1 ATP         0.0598
     16 O4'         2.4697    1.4219   -0.2462 O.3       1 ATP        -0.3455
     17 C3'         1.9404   -0.7419    0.5596 C.3       1 ATP         0.0742
     18 O3'         2.7418   -0.8086    1.7389 O.3       1 ATP        -0.6025
     19 C2'         0.7477    0.1630    0.7858 C.3       1 ATP         0.1145
     20 O2'         0.1373   -0.0577    2.0407 O.3       1 ATP        -0.5835
     21 C1'         1.3733    1.5427    0.6747 C.3       1 ATP         0.3776
     22 N9          0.4520    2.5240    0.1767 N.pl3     1 ATP        -0.4429
     23 C8         -0.2004    2.4829   -0.9804 C.ar      1 ATP         0.2964
     24 N7         -0.9830    3.5431   -1.1568 N.pl3     1 ATP        -0.4957
     25 C5         -0.8095    4.3012   -0.0331 C.ar      1 ATP        -0.1346
     26 C6         -1.4065    5.5904    0.3585 C.ar      1 ATP         0.7213
     27 N6         -2.2501    6.2030   -0.4084 N.2       1 ATP        -0.8215
     28 N1         -0.9585    6.0272    1.5994 N.pl3     1 ATP        -0.8455
     29 C2         -0.0508    5.3009    2.3532 C.ar      1 ATP         0.6477
     30 N3          0.4890    4.1592    2.0257 N.2       1 ATP        -0.5707
     31 C4          0.0637    3.7006    0.7995 C.ar      1 ATP         0.2637
     32 HOG3       -1.5251    5.0840   -3.9585 H         1 ATP         0.4378
     33 H5'1        1.3514    0.2330   -2.1577 H         1 ATP         0.0340
     34 H5'2        2.1280   -1.3678   -2.0460 H         1 ATP         0.0340
     35 H4'         3.8044   -0.1397   -0.4040 H         1 ATP         0.0910
     36 H3'         1.6764   -1.7639    0.2728 H         1 ATP         0.0656
     37 HO3'        3.5554   -1.2733    1.4914 H         1 ATP         0.4386
     38 H2'        -0.0011    0.0027    0.0003 H         1 ATP         0.0788
     39 HO2'       -0.6141    0.5574    2.1082 H         1 ATP         0.4363
     40 H1'         1.7826    1.9024    1.6451 H         1 ATP         0.1225
     41 H8         -0.1116    1.6863   -1.6984 H         1 ATP         0.3824
     42 HN62       -2.5420    7.0730    0.0447 H         1 ATP         0.4018
     43 H2          0.1969    5.7893    3.3086 H         1 ATP         0.0652
     44 H44        -1.3097    6.9080    1.9642 H         1 ATP         0.4503
     45 H45        -1.5735    3.7351   -1.9538 H         1 ATP         0.5209
@<TRIPOS>BOND
     1    1    2 2
     2    1    3 1
     3    1    4 1
     4    1    8 1
     5    4   32 1
     6    5    6 2
     7    5    7 1
     8    5    8 1
     9    5   12 1
    10    9   10 2
    11    9   11 1
    12    9   12 1
    13    9   13 1
    14   13   14 1
    15   14   15 1
    16   14   33 1
    17   14   34 1
    18   15   16 1
    19   15   17 1
    20   15   35 1
    21   16   21 1
    22   17   18 1
    23   17   19 1
    24   17   36 1
    25   18   37 1
    26   19   20 1
    27   19   21 1
    28   19   38 1
    29   20   39 1
    30   21   22 1
    31   21   40 1
    32   22   23 ar
    33   22   31 ar
    34   23   24 ar
    35   23   41 1
    36   24   25 ar
    37   24   45 1
    38   25   26 ar
    39   25   31 ar
    40   26   27 2
    41   26   28 ar
    42   27   42 1
    43   28   29 ar
    44   28   44 1
    45   29   30 ar
    46   29   43 1
    47   30   31 ar
@<TRIPOS>SUBSTRUCTURE
     1 ATP         1 GROUP 0 A     ****
@<TRIPOS>MOLECULE
[[[3,4-dihydroxy-5-(6-imino-7,8-dihydro-1~{H}-purin-8-ylium-9-yl)tetrahydrofuran-2-yl]methoxy-oxido-phosphoryl]oxy-oxido-phosphoryl] hydrogen phosphate
   45    47     1     0     0
SMALL
USER_CHARGES

@<TRIPOS>ATOM
      1 PG         -0.1587   -5.1174    1.9317 P.3       1 ATP         1.5631
      2 O1G         0.4516   -6.4996    1.9995 O.co2     1 ATP        -0.8806
      3 O2G        -1.6551   -4.9337    1.8099 O.co2     1 ATP        -0.8806
      4 O3G         0.3668   -4.2548    3.2145 O.3       1 ATP        -0.8165
      5 PB          0.5532   -4.4960   -0.8702 P.3       1 ATP         1.6877
      6 O1B         1.2651   -5.7918   -1.1887 O.co2     1 ATP        -0.8727
      7 O2B        -0.8458   -4.2255   -1.3775 O.co2     1 ATP        -0.8727
      8 O3B         0.5765   -4.2697    0.7465 O.3       1 ATP        -0.8330
      9 PA          2.0064   -2.7685   -2.7831 P.3       1 ATP         1.6036
     10 O1A         0.8006   -2.2901   -3.5625 O.co2     1 ATP        -0.9062
     11 O2A         2.9220   -3.8315   -3.3500 O.co2     1 ATP        -0.9062
     12 O3A         1.5163   -3.2502   -1.3007 O.3       1 ATP        -0.8166
     13 O5'         2.9216   -1.4836   -2.3516 O.3       1 ATP        -0.5510
     14 C5'         2.2816   -0.2918   -1.9206 C.3       1 ATP         0.2099
     15 C4'         2.7248    0.0226   -0.4980 C.3       1 ATP         0.0598
     16 O4'         2.4697    1.4219   -0.2462 O.3       1 ATP        -0.3455
     17 C3'         1.9404   -0.7419    0.5596 C.3       1 ATP         0.0742
     18 O3'         2.7418   -0.8086    1.7389 O.3       1 ATP        -0.6025
     19 C2'         0.7477    0.1630    0.7858 C.3       1 ATP         0.1145
     20 O2'         0.1373   -0.0577    2.0407 O.3       1 ATP        -0.5835
     21 C1'         1.3733    1.5427    0.6747 C.3       1 ATP         0.3776
     22 N9          0.4520    2.5240    0.1767 N.pl3     1 ATP        -0.4429
     23 C8          0.2216    2.8192   -1.0985 C.ar      1 ATP         0.2964
     24 N7         -0.6906    3.7763   -1.2384 N.pl3     1 ATP        -0.4957
     25 C5         -1.0575    4.1037    0.0366 C.ar      1 ATP        -0.1346
     26 C6         -2.0291    5.0943    0.5330 C.ar      1 ATP         0.7213
     27 N6         -2.7093    5.8371   -0.2800 N.2       1 ATP        -0.8215
     28 N1         -2.1051    5.1136    1.9204 N.pl3     1 ATP        -0.8455
     29 C2         -1.3354    4.2774    2.7129 C.ar      1 ATP         0.6477
     30 N3         -0.4707    3.3945    2.2944 N.2       1 ATP        -0.5707
     31 C4         -0.3734    3.3525    0.9220 C.ar      1 ATP         0.2637
     32 HOG3        0.0569   -3.3294    3.3134 H         1 ATP         0.4378
     33 H5'1        2.5589    0.5217   -2.5976 H         1 ATP         0.0340
     34 H5'2        1.1982   -0.4388   -1.9617 H         1 ATP         0.0340
     35 H4'         3.8044   -0.1397   -0.4040 H         1 ATP         0.0910
     36 H3'         1.6764   -1.7639    0.2728 H         1 ATP         0.0656
     37 HO3'        2.2232   -1.2979    2.3953 H         1 ATP         0.4386
     38 H2'        -0.0011    0.0027    0.0003 H         1 ATP         0.0788
     39 HO2'       -0.1563   -0.9855    2.0596 H         1 ATP         0.4363
     40 H1'         1.7826    1.9024    1.6451 H         1 ATP         0.1225
     41 H8          0.7125    2.3429   -1.9292 H         1 ATP         0.3824
     42 HN62       -3.3217    6.4517    0.2629 H         1 ATP         0.4018
     43 H2         -1.5188    4.4223    3.7890 H         1 ATP         0.0652
     44 H44        -2.7470    5.7626    2.3665 H         1 ATP         0.4503
     45 H45        -1.0305    4.1680   -2.1054 H         1 ATP         0.5209
@<TRIPOS>BOND
     1    1    2 2
     2    1    3 1
     3    1    4 1
     4    1    8 1
     5    4   32 1
     6    5    6 2
     7    5    7 1
     8    5    8 1
     9    5   12 1
    10    9   10 2
    11    9   11 1
    12    9   12 1
    13    9   13 1
    14   13   14 1
    15   14   15 1
    16   14   33 1
    17   14   34 1
    18   15   16 1
    19   15   17 1
    20   15   35 1
    21   16   21 1
    22   17   18 1
    23   17   19 1
    24   17   36 1
    25   18   37 1
    26   19   20 1
    27   19   21 1
    28   19   38 1
    29   20   39 1
    30   21   22 1
    31   21   40 1
    32   22   23 ar
    33   22   31 ar
    34   23   24 ar
    35   23   41 1
    36   24   25 ar
    37   24   45 1
    38   25   26 ar
    39   25   31 ar
    40   26   27 2
    41   26   28 ar
    42   27   42 1
    43   28   29 ar
    44   28   44 1
    45   29   30 ar
    46   29   43 1
    47   30   31 ar
@<TRIPOS>SUBSTRUCTURE
     1 ATP         1 GROUP 0 A     ****
@<TRIPOS>MOLECULE
[[[3,4-dihydroxy-5-(6-imino-7,8-dihydro-1~{H}-purin-8-ylium-9-yl)tetrahydrofuran-2-yl]methoxy-oxido-phosphoryl]oxy-oxido-phosphoryl] hydrogen phosphate
   45    47     1     0     0
SMALL
USER_CHARGES

@<TRIPOS>ATOM
      1 PG          2.6084   -8.3240    6.3658 P.3       1 ATP         1.5631
      2 O1G         1.6579   -8.8260    7.4297 O.co2     1 ATP        -0.8806
      3 O2G         3.9461   -7.7247    6.7388 O.co2     1 ATP        -0.8806
      4 O3G         2.8605   -9.5240    5.2876 O.3       1 ATP        -0.8165
      5 PB          1.2029   -5.8036    5.7216 P.3       1 ATP         1.6877
      6 O1B         0.0557   -5.9589    6.6949 O.co2     1 ATP        -0.8727
      7 O2B         2.3480   -4.8570    6.0050 O.co2     1 ATP        -0.8727
      8 O3B         1.8143   -7.2814    5.3932 O.3       1 ATP        -0.8330
      9 PA         -0.5379   -6.2517    3.3713 P.3       1 ATP         1.6036
     10 O1A        -1.8637   -6.1587    4.0951 O.co2     1 ATP        -0.9062
     11 O2A         0.0275   -7.5943    2.9622 O.co2     1 ATP        -0.9062
     12 O3A         0.5944   -5.4624    4.2457 O.3       1 ATP        -0.8166
     13 O5'        -0.5687   -5.2869    2.0510 O.3       1 ATP        -0.5510
     14 C5'        -0.7840   -3.8935    2.2172 C.3       1 ATP         0.2099
     15 C4'        -0.0724   -3.1466    1.1027 C.3       1 ATP         0.0598
     16 O4'        -0.8674   -3.1929   -0.0945 O.3       1 ATP        -0.3455
     17 C3'         0.1338   -1.6715    1.4027 C.3       1 ATP         0.0742
     18 O3'         1.2893   -1.4445    2.1808 O.3       1 ATP        -0.6025
     19 C2'         0.2158   -1.0724    0.0128 C.3       1 ATP         0.1145
     20 O2'         1.5141   -1.2448   -0.5513 O.3       1 ATP        -0.5835
     21 C1'        -0.7897   -1.9176   -0.7583 C.3       1 ATP         0.3776
     22 N9         -2.1040   -1.3333   -0.7704 N.pl3     1 ATP        -0.4429
     23 C8         -3.0590   -1.5123    0.1363 C.ar      1 ATP         0.2964
     24 N7         -4.1655   -0.8354   -0.1554 N.pl3     1 ATP        -0.4957
     25 C5         -3.8852   -0.1874   -1.3253 C.ar      1 ATP        -0.1346
     26 C6         -4.7113    0.7160   -2.1458 C.ar      1 ATP         0.7213
     27 N6         -5.9213    1.0209   -1.8021 N.2       1 ATP        -0.8215
     28 N1         -4.0411    1.1673   -3.2764 N.pl3     1 ATP        -0.8455
     29 C2         -2.7403    0.7865   -3.5638 C.ar      1 ATP         0.6477
     30 N3         -1.9921   -0.0108   -2.8519 N.2       1 ATP        -0.5707
     31 C4         -2.6302   -0.4747   -1.7239 C.ar      1 ATP         0.2637
     32 HOG3        3.4598   -9.3527    4.5301 H         1 ATP         0.4378
     33 H5'1       -1.8598   -3.6968    2.1850 H         1 ATP         0.0340
     34 H5'2       -0.3933   -3.5903    3.1931 H         1 ATP         0.0340
     35 H4'         0.8874   -3.6466    0.8805 H         1 ATP         0.0910
     36 H3'        -0.7376   -1.2333    1.9867 H         1 ATP         0.0656
     37 HO3'        1.1626   -1.9325    3.0084 H         1 ATP         0.4386
     38 H2'        -0.0384   -0.0310    0.0096 H         1 ATP         0.0788
     39 HO2'        1.4998   -0.8412   -1.4369 H         1 ATP         0.4363
     40 H1'        -0.4769   -2.1002   -1.8093 H         1 ATP         0.1225
     41 H8         -2.9569   -2.1323    1.0098 H         1 ATP         0.3824
     42 HN62       -6.3169    1.6552   -2.5012 H         1 ATP         0.4018
     43 H2         -2.3612    1.2343   -4.4957 H         1 ATP         0.0652
     44 H44        -4.5223    1.7976   -3.9117 H         1 ATP         0.4503
     45 H45        -5.0218   -0.8132    0.3804 H         1 ATP         0.5209
@<TRIPOS>BOND
     1    1    2 2
     2    1    3 1
     3    1    4 1
     4    1    8 1
     5    4   32 1
     6    5    6 2
     7    5    7 1
     8    5    8 1
     9    5   12 1
    10    9   10 2
    11    9   11 1
    12    9   12 1
    13    9   13 1
    14   13   14 1
    15   14   15 1
    16   14   33 1
    17   14   34 1
    18   15   16 1
    19   15   17 1
    20   15   35 1
    21   16   21 1
    22   17   18 1
    23   17   19 1
    24   17   36 1
    25   18   37 1
    26   19   20 1
    27   19   21 1
    28   19   38 1
    29   20   39 1
    30   21   22 1
    31   21   40 1
    32   22   23 ar
    33   22   31 ar
    34   23   24 ar
    35   23   41 1
    36   24   25 ar
    37   24   45 1
    38   25   26 ar
    39   25   31 ar
    40   26   27 2
    41   26   28 ar
    42   27   42 1
    43   28   29 ar
    44   28   44 1
    45   29   30 ar
    46   29   43 1
    47   30   31 ar
@<TRIPOS>SUBSTRUCTURE
     1 ATP         1 GROUP 0 A     ****
@<TRIPOS>MOLECULE
[[[3,4-dihydroxy-5-(6-imino-7,8-dihydro-1~{H}-purin-8-ylium-9-yl)tetrahydrofuran-2-yl]methoxy-oxido-phosphoryl]oxy-oxido-phosphoryl] hydrogen phosphate
   45    47     1     0     0
SMALL
USER_CHARGES

@<TRIPOS>ATOM
      1 PG          6.8110    1.6914    0.3893 P.3       1 ATP         1.5631
      2 O1G         5.3402    2.0287    0.2871 O.co2     1 ATP        -0.8806
      3 O2G         7.8661    2.6587   -0.0994 O.co2     1 ATP        -0.8806
      4 O3G         7.1463    1.2973    1.9379 O.3       1 ATP        -0.8165
      5 PB          6.9461   -0.2229   -1.8604 P.3       1 ATP         1.6877
      6 O1B         7.7755    0.7161   -2.7076 O.co2     1 ATP        -0.8727
      7 O2B         7.1297   -1.7218   -1.9435 O.co2     1 ATP        -0.8727
      8 O3B         7.0706    0.2339   -0.2979 O.3       1 ATP        -0.8330
      9 PA          4.4374   -0.0466   -3.4193 P.3       1 ATP         1.6036
     10 O1A         4.3033   -1.5210   -3.7328 O.co2     1 ATP        -0.9062
     11 O2A         4.9277    0.9261   -4.4696 O.co2     1 ATP        -0.9062
     12 O3A         5.3672    0.1247   -2.0867 O.3       1 ATP        -0.8166
     13 O5'         3.0213    0.5153   -2.8245 O.3       1 ATP        -0.5510
     14 C5'         2.2816   -0.2918   -1.9206 C.3       1 ATP         0.2099
     15 C4'         2.7248    0.0226   -0.4980 C.3       1 ATP         0.0598
     16 O4'         2.4697    1.4219   -0.2462 O.3       1 ATP        -0.3455
     17 C3'         1.9404   -0.7419    0.5596 C.3       1 ATP         0.0742
     18 O3'         2.7418   -0.8086    1.7389 O.3       1 ATP        -0.6025
     19 C2'         0.7477    0.1630    0.7858 C.3       1 ATP         0.1145
     20 O2'         0.1373   -0.0577    2.0407 O.3       1 ATP        -0.5835
     21 C1'         1.3733    1.5427    0.6747 C.3       1 ATP         0.3776
     22 N9          0.4520    2.5240    0.1767 N.pl3     1 ATP        -0.4429
     23 C8          0.5691    3.2215   -0.9485 C.ar      1 ATP         0.2964
     24 N7         -0.4499    4.0551   -1.1342 N.pl3     1 ATP        -0.4957
     25 C5         -1.2618    3.8674   -0.0512 C.ar      1 ATP        -0.1346
     26 C6         -2.5420    4.5007    0.3120 C.ar      1 ATP         0.7213
     27 N6         -3.0874    5.3993   -0.4432 N.2       1 ATP        -0.8215
     28 N1         -3.0494    4.0205    1.5133 N.pl3     1 ATP        -0.8455
     29 C2         -2.3933    3.0527    2.2567 C.ar      1 ATP         0.6477
     30 N3         -1.2611    2.4796    1.9536 N.2       1 ATP        -0.5707
     31 C4         -0.7334    2.9358    0.7669 C.ar      1 ATP         0.2637
     32 HOG3        8.0677    1.0514    2.1680 H         1 ATP         0.4378
     33 H5'1        1.2163   -0.0770   -2.0471 H         1 ATP         0.0340
     34 H5'2        2.4655   -1.3443   -2.1563 H         1 ATP         0.0340
     35 H4'         3.8044   -0.1397   -0.4040 H         1 ATP         0.0910
     36 H3'         1.6764   -1.7639    0.2728 H         1 ATP         0.0656
     37 HO3'        3.5554   -1.2733    1.4914 H         1 ATP         0.4386
     38 H2'        -0.0011    0.0027    0.0003 H         1 ATP         0.0788
     39 HO2'       -0.6141    0.5574    2.1082 H         1 ATP         0.4363
     40 H1'         1.7826    1.9024    1.6451 H         1 ATP         0.1225
     41 H8          1.3912    3.1285   -1.6365 H         1 ATP         0.3824
     42 HN62       -3.9637    5.7083   -0.0142 H         1 ATP         0.4018
     43 H2         -2.9317    2.7866    3.1796 H         1 ATP         0.0652
     44 H44        -3.9307    4.3923    1.8558 H         1 ATP         0.4503
     45 H45        -0.5835    4.6857   -1.9122 H         1 ATP         0.5209
@<TRIPOS>BOND
     1    1    2 2
     2    1    3 1
     3    1    4 1
     4    1    8 1
     5    4   32 1
     6    5    6 2
     7    5    7 1
     8    5    8 1
     9    5   12 1
    10    9   10 2
    11    9   11 1
    12    9   12 1
    13    9   13 1
    14   13   14 1
    15   14   15 1
    16   14   33 1
    17   14   34 1
    18   15   16 1
    19   15   17 1
    20   15   35 1
    21   16   21 1
    22   17   18 1
    23   17   19 1
    24   17   36 1
    25   18   37 1
    26   19   20 1
    27   19   21 1
    28   19   38 1
    29   20   39 1
    30   21   22 1
    31   21   40 1
    32   22   23 ar
    33   22   31 ar
    34   23   24 ar
    35   23   41 1
    36   24   25 ar
    37   24   45 1
    38   25   26 ar
    39   25   31 ar
    40   26   27 2
    41   26   28 ar
    42   27   42 1
    43   28   29 ar
    44   28   44 1
    45   29   30 ar
    46   29   43 1
    47   30   31 ar
@<TRIPOS>SUBSTRUCTURE
     1 ATP         1 GROUP 0 A     ****
@<TRIPOS>MOLECULE
[[[3,4-dihydroxy-5-(6-imino-7,8-dihydro-1~{H}-purin-8-ylium-9-yl)tetrahydrofuran-2-yl]methoxy-oxido-phosphoryl]oxy-oxido-phosphoryl] hydrogen phosphate
   45    47     1     0     0
SMALL
USER_CHARGES

@<TRIPOS>ATOM
      1 PG          0.5697   -2.9745   -7.6047 P.3       1 ATP         1.5631
      2 O1G         1.0430   -2.4849   -8.9552 O.co2     1 ATP        -0.8806
      3 O2G        -0.9057   -3.0641   -7.2838 O.co2     1 ATP        -0.8806
      4 O3G         1.2534   -4.4278   -7.3111 O.3       1 ATP        -0.8165
      5 PB          2.9040   -1.8329   -6.1936 P.3       1 ATP         1.6877
      6 O1B         3.5741   -3.1378   -5.8255 O.co2     1 ATP        -0.8727
      7 O2B         3.4248   -0.9771   -7.3267 O.co2     1 ATP        -0.8727
      8 O3B         1.3137   -2.1114   -6.4362 O.3       1 ATP        -0.8330
      9 PA          3.9554   -0.2064   -3.9565 P.3       1 ATP         1.6036
     10 O1A         4.6400    0.8514   -4.7948 O.co2     1 ATP        -0.9062
     11 O2A         4.7576   -1.2975   -3.2816 O.co2     1 ATP        -0.9062
     12 O3A         2.7840   -0.9098   -4.8526 O.3       1 ATP        -0.8166
     13 O5'         3.0213    0.5153   -2.8245 O.3       1 ATP        -0.5510
     14 C5'         2.2816   -0.2918   -1.9206 C.3       1 ATP         0.2099
     15 C4'         2.7248    0.0226   -0.4980 C.3       1 ATP         0.0598
     16 O4'         2.4697    1.4219   -0.2462 O.3       1 ATP        -0.3455
     17 C3'         1.9404   -0.7419    0.5596 C.3       1 ATP         0.0742
     18 O3'         2.7418   -0.8086    1.7389 O.3       1 ATP        -0.6025
     19 C2'         0.7477    0.1630    0.7858 C.3       1 ATP         0.1145
     20 O2'         0.1373   -0.0577    2.0407 O.3       1 ATP        -0.5835
     21 C1'         1.3733    1.5427    0.6747 C.3       1 ATP         0.3776
     22 N9          0.4520    2.5240    0.1767 N.pl3     1 ATP        -0.4429
     23 C8         -0.8620    2.5492    0.3743 C.ar      1 ATP         0.2964
     24 N7         -1.4419    3.5886   -0.2183 N.pl3     1 ATP        -0.4957
     25 C5         -0.4215    4.2614   -0.8294 C.ar      1 ATP        -0.1346
     26 C6         -0.4310    5.4918   -1.6405 C.ar      1 ATP         0.7213
     27 N6         -1.5302    6.1308   -1.8826 N.2       1 ATP        -0.8215
     28 N1          0.8382    5.8461   -2.0817 N.pl3     1 ATP        -0.8455
     29 C2          1.9625    5.0982   -1.7709 C.ar      1 ATP         0.6477
     30 N3          1.9930    4.0077   -1.0554 N.2       1 ATP        -0.5707
     31 C4          0.7483    3.6314   -0.6038 C.ar      1 ATP         0.2637
     32 HOG3        1.0431   -4.8807   -6.4667 H         1 ATP         0.4378
     33 H5'1        1.2163   -0.0770   -2.0471 H         1 ATP         0.0340
     34 H5'2        2.4655   -1.3443   -2.1563 H         1 ATP         0.0340
     35 H4'         3.8044   -0.1397   -0.4040 H         1 ATP         0.0910
     36 H3'         1.6764   -1.7639    0.2728 H         1 ATP         0.0656
     37 HO3'        2.2232   -1.2979    2.3953 H         1 ATP         0.4386
     38 H2'        -0.0011    0.0027    0.0003 H         1 ATP         0.0788
     39 HO2'       -0.1563   -0.9855    2.0596 H         1 ATP         0.4363
     40 H1'         1.7826    1.9024    1.6451 H         1 ATP         0.1225
     41 H8         -1.4030    1.8165    0.9473 H         1 ATP         0.3824
     42 HN62       -1.3197    6.9504   -2.4583 H         1 ATP         0.4018
     43 H2          2.8857    5.5186   -2.1994 H         1 ATP         0.0652
     44 H44         0.9433    6.6815   -2.6502 H         1 ATP         0.4503
     45 H45        -2.4254    3.8199   -0.2108 H         1 ATP         0.5209
@<TRIPOS>BOND
     1    1    2 2
     2    1    3 1
     3    1    4 1
     4    1    8 1
     5    4   32 1
     6    5    6 2
     7    5    7 1
     8    5    8 1
     9    5   12 1
    10    9   10 2
    11    9   11 1
    12    9   12 1
    13    9   13 1
    14   13   14 1
    15   14   15 1
    16   14   33 1
    17   14   34 1
    18   15   16 1
    19   15   17 1
    20   15   35 1
    21   16   21 1
    22   17   18 1
    23   17   19 1
    24   17   36 1
    25   18   37 1
    26   19   20 1
    27   19   21 1
    28   19   38 1
    29   20   39 1
    30   21   22 1
    31   21   40 1
    32   22   23 ar
    33   22   31 ar
    34   23   24 ar
    35   23   41 1
    36   24   25 ar
    37   24   45 1
    38   25   26 ar
    39   25   31 ar
    40   26   27 2
    41   26   28 ar
    42   27   42 1
    43   28   29 ar
    44   28   44 1
    45   29   30 ar
    46   29   43 1
    47   30   31 ar
@<TRIPOS>SUBSTRUCTURE
     1 ATP         1 GROUP 0 A     ****
@<TRIPOS>MOLECULE
[[[3,4-dihydroxy-5-(6-imino-7,8-dihydro-1~{H}-purin-8-ylium-9-yl)tetrahydrofuran-2-yl]methoxy-oxido-phosphoryl]oxy-oxido-phosphoryl] hydrogen phosphate
   45    47     1     0     0
SMALL
USER_CHARGES

@<TRIPOS>ATOM
      1 PG          2.3401   -0.2563   -8.4345 P.3       1 ATP         1.5631
      2 O1G         3.4514    0.7516   -8.6258 O.co2     1 ATP        -0.8806
      3 O2G         0.9316    0.0424   -8.8978 O.co2     1 ATP        -0.8806
      4 O3G         2.8103   -1.6770   -9.0877 O.3       1 ATP        -0.8165
      5 PB          1.4094   -1.8679   -6.1367 P.3       1 ATP         1.6877
      6 O1B        -0.0482   -1.4675   -6.1877 O.co2     1 ATP        -0.8727
      7 O2B         1.8688   -3.2184   -6.6394 O.co2     1 ATP        -0.8727
      8 O3B         2.2967   -0.7081   -6.8668 O.3       1 ATP        -0.8330
      9 PA          1.5544   -2.4558   -3.2404 P.3       1 ATP         1.6036
     10 O1A         2.0071   -3.8949   -3.3601 O.co2     1 ATP        -0.9062
     11 O2A         0.1180   -2.1225   -2.9010 O.co2     1 ATP        -0.9062
     12 O3A         1.9553   -1.6633   -4.6119 O.3       1 ATP        -0.8166
     13 O5'         2.5245   -1.6648   -2.1878 O.3       1 ATP        -0.5510
     14 C5'         2.2816   -0.2918   -1.9206 C.3       1 ATP         0.2099
     15 C4'         2.7248    0.0226   -0.4980 C.3       1 ATP         0.0598
     16 O4'         2.4697    1.4219   -0.2462 O.3       1 ATP        -0.3455
     17 C3'         1.9404   -0.7419    0.5596 C.3       1 ATP         0.0742
     18 O3'         2.7418   -0.8086    1.7389 O.3       1 ATP        -0.6025
     19 C2'         0.7477    0.1630    0.7858 C.3       1 ATP         0.1145
     20 O2'         0.1373   -0.0577    2.0407 O.3       1 ATP        -0.5835
     21 C1'         1.3733    1.5427    0.6747 C.3       1 ATP         0.3776
     22 N9          0.4520    2.5240    0.1767 N.pl3     1 ATP        -0.4429
     23 C8         -0.8620    2.5492    0.3743 C.ar      1 ATP         0.2964
     24 N7         -1.4419    3.5886   -0.2183 N.pl3     1 ATP        -0.4957
     25 C5         -0.4215    4.2614   -0.8294 C.ar      1 ATP        -0.1346
     26 C6         -0.4310    5.4918   -1.6405 C.ar      1 ATP         0.7213
     27 N6         -1.5302    6.1308   -1.8826 N.2       1 ATP        -0.8215
     28 N1          0.8382    5.8461   -2.0817 N.pl3     1 ATP        -0.8455
     29 C2          1.9625    5.0982   -1.7709 C.ar      1 ATP         0.6477
     30 N3          1.9930    4.0077   -1.0554 N.2       1 ATP        -0.5707
     31 C4          0.7483    3.6314   -0.6038 C.ar      1 ATP         0.2637
     32 HOG3        2.1930   -2.4381   -9.0438 H         1 ATP         0.4378
     33 H5'1        2.8432    0.3119   -2.6398 H         1 ATP         0.0340
     34 H5'2        1.2128   -0.0927   -2.0428 H         1 ATP         0.0340
     35 H4'         3.8044   -0.1397   -0.4040 H         1 ATP         0.0910
     36 H3'         1.6764   -1.7639    0.2728 H         1 ATP         0.0656
     37 HO3'        2.2232   -1.2979    2.3953 H         1 ATP         0.4386
     38 H2'        -0.0011    0.0027    0.0003 H         1 ATP         0.0788
     39 HO2'       -0.1563   -0.9855    2.0596 H         1 ATP         0.4363
     40 H1'         1.7826    1.9024    1.6451 H         1 ATP         0.1225
     41 H8         -1.4030    1.8165    0.9473 H         1 ATP         0.3824
     42 HN62       -1.3197    6.9504   -2.4583 H         1 ATP         0.4018
     43 H2          2.8857    5.5186   -2.1994 H         1 ATP         0.0652
     44 H44         0.9433    6.6815   -2.6502 H         1 ATP         0.4503
     45 H45        -2.4254    3.8199   -0.2108 H         1 ATP         0.5209
@<TRIPOS>BOND
     1    1    2 2
     2    1    3 1
     3    1    4 1
     4    1    8 1
     5    4   32 1
     6    5    6 2
     7    5    7 1
     8    5    8 1
     9    5   12 1
    10    9   10 2
    11    9   11 1
    12    9   12 1
    13    9   13 1
    14   13   14 1
    15   14   15 1
    16   14   33 1
    17   14   34 1
    18   15   16 1
    19   15   17 1
    20   15   35 1
    21   16   21 1
    22   17   18 1
    23   17   19 1
    24   17   36 1
    25   18   37 1
    26   19   20 1
    27   19   21 1
    28   19   38 1
    29   20   39 1
    30   21   22 1
    31   21   40 1
    32   22   23 ar
    33   22   31 ar
    34   23   24 ar
    35   23   41 1
    36   24   25 ar
    37   24   45 1
    38   25   26 ar
    39   25   31 ar
    40   26   27 2
    41   26   28 ar
    42   27   42 1
    43   28   29 ar
    44   28   44 1
    45   29   30 ar
    46   29   43 1
    47   30   31 ar
@<TRIPOS>SUBSTRUCTURE
     1 ATP         1 GROUP 0 A     ****
@<TRIPOS>MOLECULE
[[[3,4-dihydroxy-5-(6-imino-7,8-dihydro-1~{H}-purin-8-ylium-9-yl)tetrahydrofuran-2-yl]methoxy-oxido-phosphoryl]oxy-oxido-phosphoryl] hydrogen phosphate
   45    47     1     0     0
SMALL
USER_CHARGES

@<TRIPOS>ATOM
      1 PG         -0.4454   -1.5874   -5.8908 P.3       1 ATP         1.5631
      2 O1G        -0.9253   -0.3355   -5.1908 O.co2     1 ATP        -0.8806
      3 O2G        -0.4234   -2.9189   -5.1737 O.co2     1 ATP        -0.8806
      4 O3G        -1.2867   -1.7601   -7.2794 O.3       1 ATP        -0.8165
      5 PB          2.4557   -1.0249   -5.7856 P.3       1 ATP         1.6877
      6 O1B         2.7110   -2.1355   -4.7911 O.co2     1 ATP        -0.8727
      7 O2B         3.4846   -0.6584   -6.8318 O.co2     1 ATP        -0.8727
      8 O3B         1.0299   -1.3063   -6.5297 O.3       1 ATP        -0.8330
      9 PA          2.9232    1.2546   -3.9579 P.3       1 ATP         1.6036
     10 O1A         2.0227    2.3093   -3.3521 O.co2     1 ATP        -0.9062
     11 O2A         4.2011    1.6439   -4.6686 O.co2     1 ATP        -0.9062
     12 O3A         2.0371    0.3242   -4.9674 O.3       1 ATP        -0.8166
     13 O5'         3.2903    0.1346   -2.8241 O.3       1 ATP        -0.5510
     14 C5'         2.2816   -0.2918   -1.9206 C.3       1 ATP         0.2099
     15 C4'         2.7248    0.0226   -0.4980 C.3       1 ATP         0.0598
     16 O4'         2.4697    1.4219   -0.2462 O.3       1 ATP        -0.3455
     17 C3'         1.9404   -0.7419    0.5596 C.3       1 ATP         0.0742
     18 O3'         2.7418   -0.8086    1.7389 O.3       1 ATP        -0.6025
     19 C2'         0.7477    0.1630    0.7858 C.3       1 ATP         0.1145
     20 O2'         0.1373   -0.0577    2.0407 O.3       1 ATP        -0.5835
     21 C1'         1.3733    1.5427    0.6747 C.3       1 ATP         0.3776
     22 N9          0.4520    2.5240    0.1767 N.pl3     1 ATP        -0.4429
     23 C8         -0.8620    2.5492    0.3743 C.ar      1 ATP         0.2964
     24 N7         -1.4419    3.5886   -0.2183 N.pl3     1 ATP        -0.4957
     25 C5         -0.4215    4.2614   -0.8294 C.ar      1 ATP        -0.1346
     26 C6         -0.4310    5.4918   -1.6405 C.ar      1 ATP         0.7213
     27 N6         -1.5302    6.1308   -1.8826 N.2       1 ATP        -0.8215
     28 N1          0.8382    5.8461   -2.0817 N.pl3     1 ATP        -0.8455
     29 C2          1.9625    5.0982   -1.7709 C.ar      1 ATP         0.6477
     30 N3          1.9930    4.0077   -1.0554 N.2       1 ATP        -0.5707
     31 C4          0.7483    3.6314   -0.6038 C.ar      1 ATP         0.2637
     32 HOG3       -1.0897   -2.5320   -7.8517 H         1 ATP         0.4378
     33 H5'1        1.3514    0.2330   -2.1577 H         1 ATP         0.0340
     34 H5'2        2.1280   -1.3678   -2.0460 H         1 ATP         0.0340
     35 H4'         3.8044   -0.1397   -0.4040 H         1 ATP         0.0910
     36 H3'         1.6764   -1.7639    0.2728 H         1 ATP         0.0656
     37 HO3'        2.2232   -1.2979    2.3953 H         1 ATP         0.4386
     38 H2'        -0.0011    0.0027    0.0003 H         1 ATP         0.0788
     39 HO2'       -0.1563   -0.9855    2.0596 H         1 ATP         0.4363
     40 H1'         1.7826    1.9024    1.6451 H         1 ATP         0.1225
     41 H8         -1.4030    1.8165    0.9473 H         1 ATP         0.3824
     42 HN62       -1.3197    6.9504   -2.4583 H         1 ATP         0.4018
     43 H2          2.8857    5.5186   -2.1994 H         1 ATP         0.0652
     44 H44         0.9433    6.6815   -2.6502 H         1 ATP         0.4503
     45 H45        -2.4254    3.8199   -0.2108 H         1 ATP         0.5209
@<TRIPOS>BOND
     1    1    2 2
     2    1    3 1
     3    1    4 1
     4    1    8 1
     5    4   32 1
     6    5    6 2
     7    5    7 1
     8    5    8 1
     9    5   12 1
    10    9   10 2
    11    9   11 1
    12    9   12 1
    13    9   13 1
    14   13   14 1
    15   14   15 1
    16   14   33 1
    17   14   34 1
    18   15   16 1
    19   15   17 1
    20   15   35 1
    21   16   21 1
    22   17   18 1
    23   17   19 1
    24   17   36 1
    25   18   37 1
    26   19   20 1
    27   19   21 1
    28   19   38 1
    29   20   39 1
    30   21   22 1
    31   21   40 1
    32   22   23 ar
    33   22   31 ar
    34   23   24 ar
    35   23   41 1
    36   24   25 ar
    37   24   45 1
    38   25   26 ar
    39   25   31 ar
    40   26   27 2
    41   26   28 ar
    42   27   42 1
    43   28   29 ar
    44   28   44 1
    45   29   30 ar
    46   29   43 1
    47   30   31 ar
@<TRIPOS>SUBSTRUCTURE
     1 ATP         1 GROUP 0 A     ****
@<TRIPOS>MOLECULE
[[[3,4-dihydroxy-5-(6-imino-7,8-dihydro-1~{H}-purin-8-ylium-9-yl)tetrahydrofuran-2-yl]methoxy-oxido-phosphoryl]oxy-oxido-phosphoryl] hydrogen phosphate
   45    47     1     0     0
SMALL
USER_CHARGES

@<TRIPOS>ATOM
      1 PG          4.5299   -0.3246   -7.8551 P.3       1 ATP         1.5631
      2 O1G         5.7692    0.5343   -7.9726 O.co2     1 ATP        -0.8806
      3 O2G         3.2175    0.1172   -8.4637 O.co2     1 ATP        -0.8806
      4 O3G         4.8807   -1.8200   -8.4088 O.3       1 ATP        -0.8165
      5 PB          5.3053   -1.3616   -5.1968 P.3       1 ATP         1.6877
      6 O1B         5.5928   -2.7869   -5.6132 O.co2     1 ATP        -0.8727
      7 O2B         6.4265   -0.3851   -4.9196 O.co2     1 ATP        -0.8727
      8 O3B         4.2866   -0.6940   -6.2841 O.3       1 ATP        -0.8330
      9 PA          2.8603   -2.1317   -3.7189 P.3       1 ATP         1.6036
     10 O1A         3.0799   -3.6286   -3.7531 O.co2     1 ATP        -0.9062
     11 O2A         1.8581   -1.4755   -4.6434 O.co2     1 ATP        -0.9062
     12 O3A         4.3010   -1.3849   -3.9101 O.3       1 ATP        -0.8166
     13 O5'         2.5245   -1.6648   -2.1878 O.3       1 ATP        -0.5510
     14 C5'         2.2816   -0.2918   -1.9206 C.3       1 ATP         0.2099
     15 C4'         2.7248    0.0226   -0.4980 C.3       1 ATP         0.0598
     16 O4'         2.4697    1.4219   -0.2462 O.3       1 ATP        -0.3455
     17 C3'         1.9404   -0.7419    0.5596 C.3       1 ATP         0.0742
     18 O3'         2.7418   -0.8086    1.7389 O.3       1 ATP        -0.6025
     19 C2'         0.7477    0.1630    0.7858 C.3       1 ATP         0.1145
     20 O2'         0.1373   -0.0577    2.0407 O.3       1 ATP        -0.5835
     21 C1'         1.3733    1.5427    0.6747 C.3       1 ATP         0.3776
     22 N9          0.4520    2.5240    0.1767 N.pl3     1 ATP        -0.4429
     23 C8         -0.8620    2.5492    0.3743 C.ar      1 ATP         0.2964
     24 N7         -1.4419    3.5886   -0.2183 N.pl3     1 ATP        -0.4957
     25 C5         -0.4215    4.2614   -0.8294 C.ar      1 ATP        -0.1346
     26 C6         -0.4310    5.4918   -1.6405 C.ar      1 ATP         0.7213
     27 N6         -1.5302    6.1308   -1.8826 N.2       1 ATP        -0.8215
     28 N1          0.8382    5.8461   -2.0817 N.pl3     1 ATP        -0.8455
     29 C2          1.9625    5.0982   -1.7709 C.ar      1 ATP         0.6477
     30 N3          1.9930    4.0077   -1.0554 N.2       1 ATP        -0.5707
     31 C4          0.7483    3.6314   -0.6038 C.ar      1 ATP         0.2637
     32 HOG3        4.1733   -2.4996   -8.3984 H         1 ATP         0.4378
     33 H5'1        2.8432    0.3119   -2.6398 H         1 ATP         0.0340
     34 H5'2        1.2128   -0.0927   -2.0428 H         1 ATP         0.0340
     35 H4'         3.8044   -0.1397   -0.4040 H         1 ATP         0.0910
     36 H3'         1.6764   -1.7639    0.2728 H         1 ATP         0.0656
     37 HO3'        2.2232   -1.2979    2.3953 H         1 ATP         0.4386
     38 H2'        -0.0011    0.0027    0.0003 H         1 ATP         0.0788
     39 HO2'       -0.1563   -0.9855    2.0596 H         1 ATP         0.4363
     40 H1'         1.7826    1.9024    1.6451 H         1 ATP         0.1225
     41 H8         -1.4030    1.8165    0.9473 H         1 ATP         0.3824
     42 HN62       -1.3197    6.9504   -2.4583 H         1 ATP         0.4018
     43 H2          2.8857    5.5186   -2.1994 H         1 ATP         0.0652
     44 H44         0.9433    6.6815   -2.6502 H         1 ATP         0.4503
     45 H45        -2.4254    3.8199   -0.2108 H         1 ATP         0.5209
@<TRIPOS>BOND
     1    1    2 2
     2    1    3 1
     3    1    4 1
     4    1    8 1
     5    4   32 1
     6    5    6 2
     7    5    7 1
     8    5    8 1
     9    5   12 1
    10    9   10 2
    11    9   11 1
    12    9   12 1
    13    9   13 1
    14   13   14 1
    15   14   15 1
    16   14   33 1
    17   14   34 1
    18   15   16 1
    19   15   17 1
    20   15   35 1
    21   16   21 1
    22   17   18 1
    23   17   19 1
    24   17   36 1
    25   18   37 1
    26   19   20 1
    27   19   21 1
    28   19   38 1
    29   20   39 1
    30   21   22 1
    31   21   40 1
    32   22   23 ar
    33   22   31 ar
    34   23   24 ar
    35   23   41 1
    36   24   25 ar
    37   24   45 1
    38   25   26 ar
    39   25   31 ar
    40   26   27 2
    41   26   28 ar
    42   27   42 1
    43   28   29 ar
    44   28   44 1
    45   29   30 ar
    46   29   43 1
    47   30   31 ar
@<TRIPOS>SUBSTRUCTURE
     1 ATP         1 GROUP 0 A     ****
@<TRIPOS>MOLECULE
[[[3,4-dihydroxy-5-(6-imino-7,8-dihydro-1~{H}-purin-8-ylium-9-yl)tetrahydrofuran-2-yl]methoxy-oxido-phosphoryl]oxy-oxido-phosphoryl] hydrogen phosphate
   45    47     1     0     0
SMALL
USER_CHARGES

@<TRIPOS>ATOM
      1 PG          2.9566    0.4458   -8.9830 P.3       1 ATP         1.5631
      2 O1G         3.2238   -0.8751   -9.6695 O.co2     1 ATP        -0.8806
      3 O2G         3.8423    1.6458   -9.2346 O.co2     1 ATP        -0.8806
      4 O3G         1.4077    0.8755   -9.2698 O.3       1 ATP        -0.8165
      5 PB          1.9171   -0.8520   -6.5379 P.3       1 ATP         1.6877
      6 O1B         0.4691   -0.4440   -6.6939 O.co2     1 ATP        -0.8727
      7 O2B         2.3720   -2.2605   -6.8493 O.co2     1 ATP        -0.8727
      8 O3B         2.8492    0.1959   -7.3737 O.3       1 ATP        -0.8330
      9 PA          2.3336    0.9636   -4.2390 P.3       1 ATP         1.6036
     10 O1A         0.8796    1.3120   -4.0049 O.co2     1 ATP        -0.9062
     11 O2A         3.2620    1.9405   -4.9270 O.co2     1 ATP        -0.9062
     12 O3A         2.4109   -0.4633   -5.0313 O.3       1 ATP        -0.8166
     13 O5'         3.0213    0.5153   -2.8245 O.3       1 ATP        -0.5510
     14 C5'         2.2816   -0.2918   -1.9206 C.3       1 ATP         0.2099
     15 C4'         2.7248    0.0226   -0.4980 C.3       1 ATP         0.0598
     16 O4'         2.4697    1.4219   -0.2462 O.3       1 ATP        -0.3455
     17 C3'         1.9404   -0.7419    0.5596 C.3       1 ATP         0.0742
     18 O3'         2.7418   -0.8086    1.7389 O.3       1 ATP        -0.6025
     19 C2'         0.7477    0.1630    0.7858 C.3       1 ATP         0.1145
     20 O2'         0.1373   -0.0577    2.0407 O.3       1 ATP        -0.5835
     21 C1'         1.3733    1.5427    0.6747 C.3       1 ATP         0.3776
     22 N9          0.4520    2.5240    0.1767 N.pl3     1 ATP        -0.4429
     23 C8         -0.8620    2.5492    0.3743 C.ar      1 ATP         0.2964
     24 N7         -1.4419    3.5886   -0.2183 N.pl3     1 ATP        -0.4957
     25 C5         -0.4215    4.2614   -0.8294 C.ar      1 ATP        -0.1346
     26 C6         -0.4310    5.4918   -1.6405 C.ar      1 ATP         0.7213
     27 N6         -1.5302    6.1308   -1.8826 N.2       1 ATP        -0.8215
     28 N1          0.8382    5.8461   -2.0817 N.pl3     1 ATP        -0.8455
     29 C2          1.9625    5.0982   -1.7709 C.ar      1 ATP         0.6477
     30 N3          1.9930    4.0077   -1.0554 N.2       1 ATP        -0.5707
     31 C4          0.7483    3.6314   -0.6038 C.ar      1 ATP         0.2637
     32 HOG3        0.6931    0.2753   -8.9676 H         1 ATP         0.4378
     33 H5'1        1.2163   -0.0770   -2.0471 H         1 ATP         0.0340
     34 H5'2        2.4655   -1.3443   -2.1563 H         1 ATP         0.0340
     35 H4'         3.8044   -0.1397   -0.4040 H         1 ATP         0.0910
     36 H3'         1.6764   -1.7639    0.2728 H         1 ATP         0.0656
     37 HO3'        2.2232   -1.2979    2.3953 H         1 ATP         0.4386
     38 H2'        -0.0011    0.0027    0.0003 H         1 ATP         0.0788
     39 HO2'       -0.1563   -0.9855    2.0596 H         1 ATP         0.4363
     40 H1'         1.7826    1.9024    1.6451 H         1 ATP         0.1225
     41 H8         -1.4030    1.8165    0.9473 H         1 ATP         0.3824
     42 HN62       -1.3197    6.9504   -2.4583 H         1 ATP         0.4018
     43 H2          2.8857    5.5186   -2.1994 H         1 ATP         0.0652
     44 H44         0.9433    6.6815   -2.6502 H         1 ATP         0.4503
     45 H45        -2.4254    3.8199   -0.2108 H         1 ATP         0.5209
@<TRIPOS>BOND
     1    1    2 2
     2    1    3 1
     3    1    4 1
     4    1    8 1
     5    4   32 1
     6    5    6 2
     7    5    7 1
     8    5    8 1
     9    5   12 1
    10    9   10 2
    11    9   11 1
    12    9   12 1
    13    9   13 1
    14   13   14 1
    15   14   15 1
    16   14   33 1
    17   14   34 1
    18   15   16 1
    19   15   17 1
    20   15   35 1
    21   16   21 1
    22   17   18 1
    23   17   19 1
    24   17   36 1
    25   18   37 1
    26   19   20 1
    27   19   21 1
    28   19   38 1
    29   20   39 1
    30   21   22 1
    31   21   40 1
    32   22   23 ar
    33   22   31 ar
    34   23   24 ar
    35   23   41 1
    36   24   25 ar
    37   24   45 1
    38   25   26 ar
    39   25   31 ar
    40   26   27 2
    41   26   28 ar
    42   27   42 1
    43   28   29 ar
    44   28   44 1
    45   29   30 ar
    46   29   43 1
    47   30   31 ar
@<TRIPOS>SUBSTRUCTURE
     1 ATP         1 GROUP 0 A     ****
@<TRIPOS>MOLECULE
[[[3,4-dihydroxy-5-(6-imino-7,8-dihydro-1~{H}-purin-8-ylium-9-yl)tetrahydrofuran-2-yl]methoxy-oxido-phosphoryl]oxy-oxido-phosphoryl] hydrogen phosphate
   45    47     1     0     0
SMALL
USER_CHARGES

@<TRIPOS>ATOM
      1 PG          2.3401   -0.2563   -8.4345 P.3       1 ATP         1.5631
      2 O1G         2.5967   -1.4760   -9.2913 O.co2     1 ATP        -0.8806
      3 O2G         3.2014    0.9802   -8.5647 O.co2     1 ATP        -0.8806
      4 O3G         0.7765    0.1803   -8.6089 O.3       1 ATP        -0.8165
      5 PB          1.4094   -1.8679   -6.1367 P.3       1 ATP         1.6877
      6 O1B        -0.0482   -1.4675   -6.1877 O.co2     1 ATP        -0.8727
      7 O2B         1.8688   -3.2184   -6.6394 O.co2     1 ATP        -0.8727
      8 O3B         2.2967   -0.7081   -6.8668 O.3       1 ATP        -0.8330
      9 PA          1.5544   -2.4558   -3.2404 P.3       1 ATP         1.6036
     10 O1A         2.0071   -3.8949   -3.3601 O.co2     1 ATP        -0.9062
     11 O2A         0.1180   -2.1225   -2.9010 O.co2     1 ATP        -0.9062
     12 O3A         1.9553   -1.6633   -4.6119 O.3       1 ATP        -0.8166
     13 O5'         2.5245   -1.6648   -2.1878 O.3       1 ATP        -0.5510
     14 C5'         2.2816   -0.2918   -1.9206 C.3       1 ATP         0.2099
     15 C4'         2.7248    0.0226   -0.4980 C.3       1 ATP         0.0598
     16 O4'         2.4697    1.4219   -0.2462 O.3       1 ATP        -0.3455
     17 C3'         1.9404   -0.7419    0.5596 C.3       1 ATP         0.0742
     18 O3'         2.7418   -0.8086    1.7389 O.3       1 ATP        -0.6025
     19 C2'         0.7477    0.1630    0.7858 C.3       1 ATP         0.1145
     20 O2'         0.1373   -0.0577    2.0407 O.3       1 ATP        -0.5835
     21 C1'         1.3733    1.5427    0.6747 C.3       1 ATP         0.3776
     22 N9          0.4520    2.5240    0.1767 N.pl3     1 ATP        -0.4429
     23 C8         -0.6821    2.9098    0.7521 C.ar      1 ATP         0.2964
     24 N7         -1.3175    3.8384    0.0437 N.pl3     1 ATP        -0.4957
     25 C5         -0.5274    4.0494   -1.0512 C.ar      1 ATP        -0.1346
     26 C6         -0.6966    4.9597   -2.1977 C.ar      1 ATP         0.7213
     27 N6         -1.7259    5.7385   -2.2937 N.2       1 ATP        -0.8215
     28 N1          0.3493    4.8663   -3.1079 N.pl3     1 ATP        -0.8455
     29 C2          1.4148    4.0005   -2.9208 C.ar      1 ATP         0.6477
     30 N3          1.5838    3.1876   -1.9144 N.2       1 ATP        -0.5707
     31 C4          0.5619    3.2578   -0.9949 C.ar      1 ATP         0.2637
     32 HOG3        0.4518    0.9616   -8.1125 H         1 ATP         0.4378
     33 H5'1        2.8432    0.3119   -2.6398 H         1 ATP         0.0340
     34 H5'2        1.2128   -0.0927   -2.0428 H         1 ATP         0.0340
     35 H4'         3.8044   -0.1397   -0.4040 H         1 ATP         0.0910
     36 H3'         1.6764   -1.7639    0.2728 H         1 ATP         0.0656
     37 HO3'        2.2232   -1.2979    2.3953 H         1 ATP         0.4386
     38 H2'        -0.0011    0.0027    0.0003 H         1 ATP         0.0788
     39 HO2'       -0.1563   -0.9855    2.0596 H         1 ATP         0.4363
     40 H1'         1.7826    1.9024    1.6451 H         1 ATP         0.1225
     41 H8         -1.0516    2.5207    1.6849 H         1 ATP         0.3824
     42 HN62       -1.6520    6.2842   -3.1564 H         1 ATP         0.4018
     43 H2          2.1542    4.0525   -3.7351 H         1 ATP         0.0652
     44 H44         0.3306    5.4533   -3.9370 H         1 ATP         0.4503
     45 H45        -2.1941    4.2838    0.2756 H         1 ATP         0.5209
@<TRIPOS>BOND
     1    1    2 2
     2    1    3 1
     3    1    4 1
     4    1    8 1
     5    4   32 1
     6    5    6 2
     7    5    7 1
     8    5    8 1
     9    5   12 1
    10    9   10 2
    11    9   11 1
    12    9   12 1
    13    9   13 1
    14   13   14 1
    15   14   15 1
    16   14   33 1
    17   14   34 1
    18   15   16 1
    19   15   17 1
    20   15   35 1
    21   16   21 1
    22   17   18 1
    23   17   19 1
    24   17   36 1
    25   18   37 1
    26   19   20 1
    27   19   21 1
    28   19   38 1
    29   20   39 1
    30   21   22 1
    31   21   40 1
    32   22   23 ar
    33   22   31 ar
    34   23   24 ar
    35   23   41 1
    36   24   25 ar
    37   24   45 1
    38   25   26 ar
    39   25   31 ar
    40   26   27 2
    41   26   28 ar
    42   27   42 1
    43   28   29 ar
    44   28   44 1
    45   29   30 ar
    46   29   43 1
    47   30   31 ar
@<TRIPOS>SUBSTRUCTURE
     1 ATP         1 GROUP 0 A     ****
@<TRIPOS>MOLECULE
[[[3,4-dihydroxy-5-(6-imino-7,8-dihydro-1~{H}-purin-8-ylium-9-yl)tetrahydrofuran-2-yl]methoxy-oxido-phosphoryl]oxy-oxido-phosphoryl] hydrogen phosphate
   45    47     1     0     0
SMALL
USER_CHARGES

@<TRIPOS>ATOM
      1 PG          7.3410   -2.4395   -5.1616 P.3       1 ATP         1.5631
      2 O1G         8.3093   -1.9788   -4.0950 O.co2     1 ATP        -0.8806
      3 O2G         7.4051   -1.8779   -6.5645 O.co2     1 ATP        -0.8806
      4 O3G         7.4053   -4.0685   -5.2518 O.3       1 ATP        -0.8165
      5 PB          4.4037   -2.7655   -5.2588 P.3       1 ATP         1.6877
      6 O1B         4.1532   -1.9564   -6.5119 O.co2     1 ATP        -0.8727
      7 O2B         4.3702   -4.2774   -5.2828 O.co2     1 ATP        -0.8727
      8 O3B         5.8170   -2.2836   -4.5986 O.3       1 ATP        -0.8330
      9 PA          3.3344   -2.6384   -2.5028 P.3       1 ATP         1.6036
     10 O1A         4.6018   -2.1602   -1.8281 O.co2     1 ATP        -0.9062
     11 O2A         2.8987   -4.0835   -2.3952 O.co2     1 ATP        -0.9062
     12 O3A         3.3987   -2.2379   -4.0856 O.3       1 ATP        -0.8166
     13 O5'         2.0820   -1.6920   -2.0440 O.3       1 ATP        -0.5510
     14 C5'         2.2816   -0.2918   -1.9206 C.3       1 ATP         0.2099
     15 C4'         2.7248    0.0226   -0.4980 C.3       1 ATP         0.0598
     16 O4'         2.4697    1.4219   -0.2462 O.3       1 ATP        -0.3455
     17 C3'         1.9404   -0.7419    0.5596 C.3       1 ATP         0.0742
     18 O3'         2.7418   -0.8086    1.7389 O.3       1 ATP        -0.6025
     19 C2'         0.7477    0.1630    0.7858 C.3       1 ATP         0.1145
     20 O2'         0.1373   -0.0577    2.0407 O.3       1 ATP        -0.5835
     21 C1'         1.3733    1.5427    0.6747 C.3       1 ATP         0.3776
     22 N9          0.4520    2.5240    0.1767 N.pl3     1 ATP        -0.4429
     23 C8          0.2216    2.8192   -1.0985 C.ar      1 ATP         0.2964
     24 N7         -0.6906    3.7763   -1.2384 N.pl3     1 ATP        -0.4957
     25 C5         -1.0575    4.1037    0.0366 C.ar      1 ATP        -0.1346
     26 C6         -2.0291    5.0943    0.5330 C.ar      1 ATP         0.7213
     27 N6         -2.7093    5.8371   -0.2800 N.2       1 ATP        -0.8215
     28 N1         -2.1051    5.1136    1.9204 N.pl3     1 ATP        -0.8455
     29 C2         -1.3354    4.2774    2.7129 C.ar      1 ATP         0.6477
     30 N3         -0.4707    3.3945    2.2944 N.2       1 ATP        -0.5707
     31 C4         -0.3734    3.3525    0.9220 C.ar      1 ATP         0.2637
     32 HOG3        6.8298   -4.5231   -5.9033 H         1 ATP         0.4378
     33 H5'1        3.0463    0.0197   -2.6385 H         1 ATP         0.0340
     34 H5'2        1.3428    0.2199   -2.1523 H         1 ATP         0.0340
     35 H4'         3.8044   -0.1397   -0.4040 H         1 ATP         0.0910
     36 H3'         1.6764   -1.7639    0.2728 H         1 ATP         0.0656
     37 HO3'        2.2232   -1.2979    2.3953 H         1 ATP         0.4386
     38 H2'        -0.0011    0.0027    0.0003 H         1 ATP         0.0788
     39 HO2'       -0.6141    0.5574    2.1082 H         1 ATP         0.4363
     40 H1'         1.7826    1.9024    1.6451 H         1 ATP         0.1225
     41 H8          0.7125    2.3429   -1.9292 H         1 ATP         0.3824
     42 HN62       -3.3217    6.4517    0.2629 H         1 ATP         0.4018
     43 H2         -1.5188    4.4223    3.7890 H         1 ATP         0.0652
     44 H44        -2.7470    5.7626    2.3665 H         1 ATP         0.4503
     45 H45        -1.0305    4.1680   -2.1054 H         1 ATP         0.5209
@<TRIPOS>BOND
     1    1    2 2
     2    1    3 1
     3    1    4 1
     4    1    8 1
     5    4   32 1
     6    5    6 2
     7    5    7 1
     8    5    8 1
     9    5   12 1
    10    9   10 2
    11    9   11 1
    12    9   12 1
    13    9   13 1
    14   13   14 1
    15   14   15 1
    16   14   33 1
    17   14   34 1
    18   15   16 1
    19   15   17 1
    20   15   35 1
    21   16   21 1
    22   17   18 1
    23   17   19 1
    24   17   36 1
    25   18   37 1
    26   19   20 1
    27   19   21 1
    28   19   38 1
    29   20   39 1
    30   21   22 1
    31   21   40 1
    32   22   23 ar
    33   22   31 ar
    34   23   24 ar
    35   23   41 1
    36   24   25 ar
    37   24   45 1
    38   25   26 ar
    39   25   31 ar
    40   26   27 2
    41   26   28 ar
    42   27   42 1
    43   28   29 ar
    44   28   44 1
    45   29   30 ar
    46   29   43 1
    47   30   31 ar
@<TRIPOS>SUBSTRUCTURE
     1 ATP         1 GROUP 0 A     ****
@<TRIPOS>MOLECULE
[[[3,4-dihydroxy-5-(6-imino-7,8-dihydro-1~{H}-purin-8-ylium-9-yl)tetrahydrofuran-2-yl]methoxy-oxido-phosphoryl]oxy-oxido-phosphoryl] hydrogen phosphate
   45    47     1     0     0
SMALL
USER_CHARGES

@<TRIPOS>ATOM
      1 PG          6.5095   -4.2296   -4.6284 P.3       1 ATP         1.5631
      2 O1G         5.4251   -5.1013   -5.2213 O.co2     1 ATP        -0.8806
      3 O2G         7.4962   -4.7891   -3.6278 O.co2     1 ATP        -0.8806
      4 O3G         7.3448   -3.5385   -5.8493 O.3       1 ATP        -0.8165
      5 PB          6.5300   -1.5474   -3.3838 P.3       1 ATP         1.6877
      6 O1B         7.2469   -1.9242   -2.1065 O.co2     1 ATP        -0.8727
      7 O2B         7.2455   -0.8150   -4.4969 O.co2     1 ATP        -0.8727
      8 O3B         5.8278   -2.8847   -4.0038 O.3       1 ATP        -0.8330
      9 PA          3.9554   -0.2064   -3.9565 P.3       1 ATP         1.6036
     10 O1A         3.2313   -1.4129   -4.5136 O.co2     1 ATP        -0.9062
     11 O2A         4.4942    0.8660   -4.8781 O.co2     1 ATP        -0.9062
     12 O3A         5.1753   -0.7215   -2.9994 O.3       1 ATP        -0.8166
     13 O5'         3.0213    0.5153   -2.8245 O.3       1 ATP        -0.5510
     14 C5'         2.2816   -0.2918   -1.9206 C.3       1 ATP         0.2099
     15 C4'         2.7248    0.0226   -0.4980 C.3       1 ATP         0.0598
     16 O4'         2.4697    1.4219   -0.2462 O.3       1 ATP        -0.3455
     17 C3'         1.9404   -0.7419    0.5596 C.3       1 ATP         0.0742
     18 O3'         2.7418   -0.8086    1.7389 O.3       1 ATP        -0.6025
     19 C2'         0.7477    0.1630    0.7858 C.3       1 ATP         0.1145
     20 O2'         0.1373   -0.0577    2.0407 O.3       1 ATP        -0.5835
     21 C1'         1.3733    1.5427    0.6747 C.3       1 ATP         0.3776
     22 N9          0.4520    2.5240    0.1767 N.pl3     1 ATP        -0.4429
     23 C8         -0.8620    2.5492    0.3743 C.ar      1 ATP         0.2964
     24 N7         -1.4419    3.5886   -0.2183 N.pl3     1 ATP        -0.4957
     25 C5         -0.4215    4.2614   -0.8294 C.ar      1 ATP        -0.1346
     26 C6         -0.4310    5.4918   -1.6405 C.ar      1 ATP         0.7213
     27 N6         -1.5302    6.1308   -1.8826 N.2       1 ATP        -0.8215
     28 N1          0.8382    5.8461   -2.0817 N.pl3     1 ATP        -0.8455
     29 C2          1.9625    5.0982   -1.7709 C.ar      1 ATP         0.6477
     30 N3          1.9930    4.0077   -1.0554 N.2       1 ATP        -0.5707
     31 C4          0.7483    3.6314   -0.6038 C.ar      1 ATP         0.2637
     32 HOG3        8.0882   -2.9388   -5.6257 H         1 ATP         0.4378
     33 H5'1        1.2163   -0.0770   -2.0471 H         1 ATP         0.0340
     34 H5'2        2.4655   -1.3443   -2.1563 H         1 ATP         0.0340
     35 H4'         3.8044   -0.1397   -0.4040 H         1 ATP         0.0910
     36 H3'         1.6764   -1.7639    0.2728 H         1 ATP         0.0656
     37 HO3'        2.2232   -1.2979    2.3953 H         1 ATP         0.4386
     38 H2'        -0.0011    0.0027    0.0003 H         1 ATP         0.0788
     39 HO2'       -0.1563   -0.9855    2.0596 H         1 ATP         0.4363
     40 H1'         1.7826    1.9024    1.6451 H         1 ATP         0.1225
     41 H8         -1.4030    1.8165    0.9473 H         1 ATP         0.3824
     42 HN62       -1.3197    6.9504   -2.4583 H         1 ATP         0.4018
     43 H2          2.8857    5.5186   -2.1994 H         1 ATP         0.0652
     44 H44         0.9433    6.6815   -2.6502 H         1 ATP         0.4503
     45 H45        -2.4254    3.8199   -0.2108 H         1 ATP         0.5209
@<TRIPOS>BOND
     1    1    2 2
     2    1    3 1
     3    1    4 1
     4    1    8 1
     5    4   32 1
     6    5    6 2
     7    5    7 1
     8    5    8 1
     9    5   12 1
    10    9   10 2
    11    9   11 1
    12    9   12 1
    13    9   13 1
    14   13   14 1
    15   14   15 1
    16   14   33 1
    17   14   34 1
    18   15   16 1
    19   15   17 1
    20   15   35 1
    21   16   21 1
    22   17   18 1
    23   17   19 1
    24   17   36 1
    25   18   37 1
    26   19   20 1
    27   19   21 1
    28   19   38 1
    29   20   39 1
    30   21   22 1
    31   21   40 1
    32   22   23 ar
    33   22   31 ar
    34   23   24 ar
    35   23   41 1
    36   24   25 ar
    37   24   45 1
    38   25   26 ar
    39   25   31 ar
    40   26   27 2
    41   26   28 ar
    42   27   42 1
    43   28   29 ar
    44   28   44 1
    45   29   30 ar
    46   29   43 1
    47   30   31 ar
@<TRIPOS>SUBSTRUCTURE
     1 ATP         1 GROUP 0 A     ****
@<TRIPOS>MOLECULE
[[[3,4-dihydroxy-5-(6-imino-7,8-dihydro-1~{H}-purin-8-ylium-9-yl)tetrahydrofuran-2-yl]methoxy-oxido-phosphoryl]oxy-oxido-phosphoryl] hydrogen phosphate
   45    47     1     0     0
SMALL
USER_CHARGES

@<TRIPOS>ATOM
      1 PG         -2.2491   -4.6174   -2.3898 P.3       1 ATP         1.5631
      2 O1G        -2.4810   -4.2281   -0.9469 O.co2     1 ATP        -0.8806
      3 O2G        -2.0633   -6.0658   -2.7840 O.co2     1 ATP        -0.8806
      4 O3G        -3.4490   -3.9830   -3.2975 O.3       1 ATP        -0.8165
      5 PB          0.5799   -3.7797   -2.5870 P.3       1 ATP         1.6877
      6 O1B         0.7381   -3.2715   -1.1713 O.co2     1 ATP        -0.8727
      7 O2B         1.1551   -5.1132   -3.0095 O.co2     1 ATP        -0.8727
      8 O3B        -1.0039   -3.7441   -2.9820 O.3       1 ATP        -0.8330
      9 PA          2.6196   -2.0516   -3.8552 P.3       1 ATP         1.6036
     10 O1A         2.5494   -0.8938   -4.8272 O.co2     1 ATP        -0.9062
     11 O2A         3.5430   -3.2224   -4.1122 O.co2     1 ATP        -0.9062
     12 O3A         1.1101   -2.6304   -3.6179 O.3       1 ATP        -0.8166
     13 O5'         2.9216   -1.4836   -2.3516 O.3       1 ATP        -0.5510
     14 C5'         2.2816   -0.2918   -1.9206 C.3       1 ATP         0.2099
     15 C4'         2.7248    0.0226   -0.4980 C.3       1 ATP         0.0598
     16 O4'         2.4697    1.4219   -0.2462 O.3       1 ATP        -0.3455
     17 C3'         1.9404   -0.7419    0.5596 C.3       1 ATP         0.0742
     18 O3'         2.7418   -0.8086    1.7389 O.3       1 ATP        -0.6025
     19 C2'         0.7477    0.1630    0.7858 C.3       1 ATP         0.1145
     20 O2'         0.1373   -0.0577    2.0407 O.3       1 ATP        -0.5835
     21 C1'         1.3733    1.5427    0.6747 C.3       1 ATP         0.3776
     22 N9          0.4520    2.5240    0.1767 N.pl3     1 ATP        -0.4429
     23 C8          0.5691    3.2215   -0.9485 C.ar      1 ATP         0.2964
     24 N7         -0.4499    4.0551   -1.1342 N.pl3     1 ATP        -0.4957
     25 C5         -1.2618    3.8674   -0.0512 C.ar      1 ATP        -0.1346
     26 C6         -2.5420    4.5007    0.3120 C.ar      1 ATP         0.7213
     27 N6         -3.0874    5.3993   -0.4432 N.2       1 ATP        -0.8215
     28 N1         -3.0494    4.0205    1.5133 N.pl3     1 ATP        -0.8455
     29 C2         -2.3933    3.0527    2.2567 C.ar      1 ATP         0.6477
     30 N3         -1.2611    2.4796    1.9536 N.2       1 ATP        -0.5707
     31 C4         -0.7334    2.9358    0.7669 C.ar      1 ATP         0.2637
     32 HOG3       -3.4402   -4.1480   -4.2644 H         1 ATP         0.4378
     33 H5'1        2.5589    0.5217   -2.5976 H         1 ATP         0.0340
     34 H5'2        1.1982   -0.4388   -1.9617 H         1 ATP         0.0340
     35 H4'         3.8044   -0.1397   -0.4040 H         1 ATP         0.0910
     36 H3'         1.6764   -1.7639    0.2728 H         1 ATP         0.0656
     37 HO3'        2.2232   -1.2979    2.3953 H         1 ATP         0.4386
     38 H2'        -0.0011    0.0027    0.0003 H         1 ATP         0.0788
     39 HO2'       -0.1563   -0.9855    2.0596 H         1 ATP         0.4363
     40 H1'         1.7826    1.9024    1.6451 H         1 ATP         0.1225
     41 H8          1.3912    3.1285   -1.6365 H         1 ATP         0.3824
     42 HN62       -3.9637    5.7083   -0.0142 H         1 ATP         0.4018
     43 H2         -2.9317    2.7866    3.1796 H         1 ATP         0.0652
     44 H44        -3.9307    4.3923    1.8558 H         1 ATP         0.4503
     45 H45        -0.5835    4.6857   -1.9122 H         1 ATP         0.5209
@<TRIPOS>BOND
     1    1    2 2
     2    1    3 1
     3    1    4 1
     4    1    8 1
     5    4   32 1
     6    5    6 2
     7    5    7 1
     8    5    8 1
     9    5   12 1
    10    9   10 2
    11    9   11 1
    12    9   12 1
    13    9   13 1
    14   13   14 1
    15   14   15 1
    16   14   33 1
    17   14   34 1
    18   15   16 1
    19   15   17 1
    20   15   35 1
    21   16   21 1
    22   17   18 1
    23   17   19 1
    24   17   36 1
    25   18   37 1
    26   19   20 1
    27   19   21 1
    28   19   38 1
    29   20   39 1
    30   21   22 1
    31   21   40 1
    32   22   23 ar
    33   22   31 ar
    34   23   24 ar
    35   23   41 1
    36   24   25 ar
    37   24   45 1
    38   25   26 ar
    39   25   31 ar
    40   26   27 2
    41   26   28 ar
    42   27   42 1
    43   28   29 ar
    44   28   44 1
    45   29   30 ar
    46   29   43 1
    47   30   31 ar
@<TRIPOS>SUBSTRUCTURE
     1 ATP         1 GROUP 0 A     ****
@<TRIPOS>MOLECULE
[[[3,4-dihydroxy-5-(6-imino-7,8-dihydro-1~{H}-purin-8-ylium-9-yl)tetrahydrofuran-2-yl]methoxy-oxido-phosphoryl]oxy-oxido-phosphoryl] hydrogen phosphate
   45    47     1     0     0
SMALL
USER_CHARGES

@<TRIPOS>ATOM
      1 PG          3.1892    0.5982   -6.7166 P.3       1 ATP         1.5631
      2 O1G         4.3089    1.6081   -6.8345 O.co2     1 ATP        -0.8806
      3 O2G         2.1714    0.6929   -5.6018 O.co2     1 ATP        -0.8806
      4 O3G         2.3936    0.5372   -8.1411 O.3       1 ATP        -0.8165
      5 PB          4.7775   -1.6435   -5.6233 P.3       1 ATP         1.6877
      6 O1B         4.9516   -3.0909   -6.0261 O.co2     1 ATP        -0.8727
      7 O2B         5.9720   -0.7592   -5.3430 O.co2     1 ATP        -0.8727
      8 O3B         3.8261   -0.9044   -6.7252 O.3       1 ATP        -0.8330
      9 PA          3.9668   -2.1116   -2.8163 P.3       1 ATP         1.6036
     10 O1A         5.0719   -1.3107   -2.1623 O.co2     1 ATP        -0.9062
     11 O2A         4.0210   -3.6235   -2.8465 O.co2     1 ATP        -0.9062
     12 O3A         3.7633   -1.5743   -4.3459 O.3       1 ATP        -0.8166
     13 O5'         2.5245   -1.6648   -2.1878 O.3       1 ATP        -0.5510
     14 C5'         2.2816   -0.2918   -1.9206 C.3       1 ATP         0.2099
     15 C4'         2.7248    0.0226   -0.4980 C.3       1 ATP         0.0598
     16 O4'         2.4697    1.4219   -0.2462 O.3       1 ATP        -0.3455
     17 C3'         1.9404   -0.7419    0.5596 C.3       1 ATP         0.0742
     18 O3'         2.7418   -0.8086    1.7389 O.3       1 ATP        -0.6025
     19 C2'         0.7477    0.1630    0.7858 C.3       1 ATP         0.1145
     20 O2'         0.1373   -0.0577    2.0407 O.3       1 ATP        -0.5835
     21 C1'         1.3733    1.5427    0.6747 C.3       1 ATP         0.3776
     22 N9          0.4520    2.5240    0.1767 N.pl3     1 ATP        -0.4429
     23 C8         -0.8620    2.5492    0.3743 C.ar      1 ATP         0.2964
     24 N7         -1.4419    3.5886   -0.2183 N.pl3     1 ATP        -0.4957
     25 C5         -0.4215    4.2614   -0.8294 C.ar      1 ATP        -0.1346
     26 C6         -0.4310    5.4918   -1.6405 C.ar      1 ATP         0.7213
     27 N6         -1.5302    6.1308   -1.8826 N.2       1 ATP        -0.8215
     28 N1          0.8382    5.8461   -2.0817 N.pl3     1 ATP        -0.8455
     29 C2          1.9625    5.0982   -1.7709 C.ar      1 ATP         0.6477
     30 N3          1.9930    4.0077   -1.0554 N.2       1 ATP        -0.5707
     31 C4          0.7483    3.6314   -0.6038 C.ar      1 ATP         0.2637
     32 HOG3        1.6334   -0.0770   -8.2253 H         1 ATP         0.4378
     33 H5'1        2.8432    0.3119   -2.6398 H         1 ATP         0.0340
     34 H5'2        1.2128   -0.0927   -2.0428 H         1 ATP         0.0340
     35 H4'         3.8044   -0.1397   -0.4040 H         1 ATP         0.0910
     36 H3'         1.6764   -1.7639    0.2728 H         1 ATP         0.0656
     37 HO3'        2.2232   -1.2979    2.3953 H         1 ATP         0.4386
     38 H2'        -0.0011    0.0027    0.0003 H         1 ATP         0.0788
     39 HO2'       -0.1563   -0.9855    2.0596 H         1 ATP         0.4363
     40 H1'         1.7826    1.9024    1.6451 H         1 ATP         0.1225
     41 H8         -1.4030    1.8165    0.9473 H         1 ATP         0.3824
     42 HN62       -1.3197    6.9504   -2.4583 H         1 ATP         0.4018
     43 H2          2.8857    5.5186   -2.1994 H         1 ATP         0.0652
     44 H44         0.9433    6.6815   -2.6502 H         1 ATP         0.4503
     45 H45        -2.4254    3.8199   -0.2108 H         1 ATP         0.5209
@<TRIPOS>BOND
     1    1    2 2
     2    1    3 1
     3    1    4 1
     4    1    8 1
     5    4   32 1
     6    5    6 2
     7    5    7 1
     8    5    8 1
     9    5   12 1
    10    9   10 2
    11    9   11 1
    12    9   12 1
    13    9   13 1
    14   13   14 1
    15   14   15 1
    16   14   33 1
    17   14   34 1
    18   15   16 1
    19   15   17 1
    20   15   35 1
    21   16   21 1
    22   17   18 1
    23   17   19 1
    24   17   36 1
    25   18   37 1
    26   19   20 1
    27   19   21 1
    28   19   38 1
    29   20   39 1
    30   21   22 1
    31   21   40 1
    32   22   23 ar
    33   22   31 ar
    34   23   24 ar
    35   23   41 1
    36   24   25 ar
    37   24   45 1
    38   25   26 ar
    39   25   31 ar
    40   26   27 2
    41   26   28 ar
    42   27   42 1
    43   28   29 ar
    44   28   44 1
    45   29   30 ar
    46   29   43 1
    47   30   31 ar
@<TRIPOS>SUBSTRUCTURE
     1 ATP         1 GROUP 0 A     ****
@<TRIPOS>MOLECULE
[[[3,4-dihydroxy-5-(6-imino-7,8-dihydro-1~{H}-purin-8-ylium-9-yl)tetrahydrofuran-2-yl]methoxy-oxido-phosphoryl]oxy-oxido-phosphoryl] hydrogen phosphate
   45    47     1     0     0
SMALL
USER_CHARGES

@<TRIPOS>ATOM
      1 PG          0.6165   -5.9662    7.5763 P.3       1 ATP         1.5631
      2 O1G         1.8519   -5.3937    6.9179 O.co2     1 ATP        -0.8806
      3 O2G         0.5882   -7.3977    8.0640 O.co2     1 ATP        -0.8806
      4 O3G         0.1871   -4.9890    8.8118 O.3       1 ATP        -0.8165
      5 PB         -1.0089   -6.3401    5.1346 P.3       1 ATP         1.6877
      6 O1B        -0.9258   -7.8478    5.2197 O.co2     1 ATP        -0.8727
      7 O2B        -2.2401   -5.6531    4.5871 O.co2     1 ATP        -0.8727
      8 O3B        -0.6694   -5.7134    6.6035 O.3       1 ATP        -0.8330
      9 PA          0.7271   -5.9839    2.7651 P.3       1 ATP         1.6036
     10 O1A         0.7437   -7.4632    2.4464 O.co2     1 ATP        -0.9062
     11 O2A         1.9389   -5.1200    2.4913 O.co2     1 ATP        -0.9062
     12 O3A         0.3000   -5.7884    4.3301 O.3       1 ATP        -0.8166
     13 O5'        -0.5687   -5.2869    2.0510 O.3       1 ATP        -0.5510
     14 C5'        -0.7840   -3.8935    2.2172 C.3       1 ATP         0.2099
     15 C4'        -0.0724   -3.1466    1.1027 C.3       1 ATP         0.0598
     16 O4'        -0.8674   -3.1929   -0.0945 O.3       1 ATP        -0.3455
     17 C3'         0.1338   -1.6715    1.4027 C.3       1 ATP         0.0742
     18 O3'         1.2893   -1.4445    2.1808 O.3       1 ATP        -0.6025
     19 C2'         0.2158   -1.0724    0.0128 C.3       1 ATP         0.1145
     20 O2'         1.5141   -1.2448   -0.5513 O.3       1 ATP        -0.5835
     21 C1'        -0.7897   -1.9176   -0.7583 C.3       1 ATP         0.3776
     22 N9         -2.1040   -1.3333   -0.7704 N.pl3     1 ATP        -0.4429
     23 C8         -3.0590   -1.5123    0.1363 C.ar      1 ATP         0.2964
     24 N7         -4.1655   -0.8354   -0.1554 N.pl3     1 ATP        -0.4957
     25 C5         -3.8852   -0.1874   -1.3253 C.ar      1 ATP        -0.1346
     26 C6         -4.7113    0.7160   -2.1458 C.ar      1 ATP         0.7213
     27 N6         -5.9213    1.0209   -1.8021 N.2       1 ATP        -0.8215
     28 N1         -4.0411    1.1673   -3.2764 N.pl3     1 ATP        -0.8455
     29 C2         -2.7403    0.7865   -3.5638 C.ar      1 ATP         0.6477
     30 N3         -1.9921   -0.0108   -2.8519 N.2       1 ATP        -0.5707
     31 C4         -2.6302   -0.4747   -1.7239 C.ar      1 ATP         0.2637
     32 HOG3       -0.6029   -5.2270    9.3424 H         1 ATP         0.4378
     33 H5'1       -1.8598   -3.6968    2.1850 H         1 ATP         0.0340
     34 H5'2       -0.3933   -3.5903    3.1931 H         1 ATP         0.0340
     35 H4'         0.8874   -3.6466    0.8805 H         1 ATP         0.0910
     36 H3'        -0.7376   -1.2333    1.9867 H         1 ATP         0.0656
     37 HO3'        1.3408   -0.4870    2.3219 H         1 ATP         0.4386
     38 H2'        -0.0384   -0.0310    0.0096 H         1 ATP         0.0788
     39 HO2'        1.4998   -0.8412   -1.4369 H         1 ATP         0.4363
     40 H1'        -0.4769   -2.1002   -1.8093 H         1 ATP         0.1225
     41 H8         -2.9569   -2.1323    1.0098 H         1 ATP         0.3824
     42 HN62       -6.3169    1.6552   -2.5012 H         1 ATP         0.4018
     43 H2         -2.3612    1.2343   -4.4957 H         1 ATP         0.0652
     44 H44        -4.5223    1.7976   -3.9117 H         1 ATP         0.4503
     45 H45        -5.0218   -0.8132    0.3804 H         1 ATP         0.5209
@<TRIPOS>BOND
     1    1    2 2
     2    1    3 1
     3    1    4 1
     4    1    8 1
     5    4   32 1
     6    5    6 2
     7    5    7 1
     8    5    8 1
     9    5   12 1
    10    9   10 2
    11    9   11 1
    12    9   12 1
    13    9   13 1
    14   13   14 1
    15   14   15 1
    16   14   33 1
    17   14   34 1
    18   15   16 1
    19   15   17 1
    20   15   35 1
    21   16   21 1
    22   17   18 1
    23   17   19 1
    24   17   36 1
    25   18   37 1
    26   19   20 1
    27   19   21 1
    28   19   38 1
    29   20   39 1
    30   21   22 1
    31   21   40 1
    32   22   23 ar
    33   22   31 ar
    34   23   24 ar
    35   23   41 1
    36   24   25 ar
    37   24   45 1
    38   25   26 ar
    39   25   31 ar
    40   26   27 2
    41   26   28 ar
    42   27   42 1
    43   28   29 ar
    44   28   44 1
    45   29   30 ar
    46   29   43 1
    47   30   31 ar
@<TRIPOS>SUBSTRUCTURE
     1 ATP         1 GROUP 0 A     ****
@<TRIPOS>MOLECULE
[[[3,4-dihydroxy-5-(6-imino-7,8-dihydro-1~{H}-purin-8-ylium-9-yl)tetrahydrofuran-2-yl]methoxy-oxido-phosphoryl]oxy-oxido-phosphoryl] hydrogen phosphate
   45    47     1     0     0
SMALL
USER_CHARGES

@<TRIPOS>ATOM
      1 PG         -0.8139    2.7749   -6.5818 P.3       1 ATP         1.5631
      2 O1G        -1.3628    3.8146   -5.6303 O.co2     1 ATP        -0.8806
      3 O2G        -1.7401    1.8618   -7.3538 O.co2     1 ATP        -0.8806
      4 O3G         0.1843    3.5160   -7.6402 O.3       1 ATP        -0.8165
      5 PB          1.2948    0.7130   -6.3683 P.3       1 ATP         1.6877
      6 O1B         0.4671   -0.4685   -6.8226 O.co2     1 ATP        -0.8727
      7 O2B         2.3043    1.3624   -7.2885 O.co2     1 ATP        -0.8727
      8 O3B         0.2907    1.8662   -5.7958 O.3       1 ATP        -0.8330
      9 PA          2.9232    1.2546   -3.9579 P.3       1 ATP         1.6036
     10 O1A         2.0227    2.3093   -3.3521 O.co2     1 ATP        -0.9062
     11 O2A         4.2011    1.6439   -4.6686 O.co2     1 ATP        -0.9062
     12 O3A         2.0371    0.3242   -4.9674 O.3       1 ATP        -0.8166
     13 O5'         3.2903    0.1346   -2.8241 O.3       1 ATP        -0.5510
     14 C5'         2.2816   -0.2918   -1.9206 C.3       1 ATP         0.2099
     15 C4'         2.7248    0.0226   -0.4980 C.3       1 ATP         0.0598
     16 O4'         2.4697    1.4219   -0.2462 O.3       1 ATP        -0.3455
     17 C3'         1.9404   -0.7419    0.5596 C.3       1 ATP         0.0742
     18 O3'         2.7418   -0.8086    1.7389 O.3       1 ATP        -0.6025
     19 C2'         0.7477    0.1630    0.7858 C.3       1 ATP         0.1145
     20 O2'         0.1373   -0.0577    2.0407 O.3       1 ATP        -0.5835
     21 C1'         1.3733    1.5427    0.6747 C.3       1 ATP         0.3776
     22 N9          0.4520    2.5240    0.1767 N.pl3     1 ATP        -0.4429
     23 C8         -0.8620    2.5492    0.3743 C.ar      1 ATP         0.2964
     24 N7         -1.4419    3.5886   -0.2183 N.pl3     1 ATP        -0.4957
     25 C5         -0.4215    4.2614   -0.8294 C.ar      1 ATP        -0.1346
     26 C6         -0.4310    5.4918   -1.6405 C.ar      1 ATP         0.7213
     27 N6         -1.5302    6.1308   -1.8826 N.2       1 ATP        -0.8215
     28 N1          0.8382    5.8461   -2.0817 N.pl3     1 ATP        -0.8455
     29 C2          1.9625    5.0982   -1.7709 C.ar      1 ATP         0.6477
     30 N3          1.9930    4.0077   -1.0554 N.2       1 ATP        -0.5707
     31 C4          0.7483    3.6314   -0.6038 C.ar      1 ATP         0.2637
     32 HOG3        0.6233    2.9712   -8.3279 H         1 ATP         0.4378
     33 H5'1        1.3514    0.2330   -2.1577 H         1 ATP         0.0340
     34 H5'2        2.1280   -1.3678   -2.0460 H         1 ATP         0.0340
     35 H4'         3.8044   -0.1397   -0.4040 H         1 ATP         0.0910
     36 H3'         1.6764   -1.7639    0.2728 H         1 ATP         0.0656
     37 HO3'        3.5554   -1.2733    1.4914 H         1 ATP         0.4386
     38 H2'        -0.0011    0.0027    0.0003 H         1 ATP         0.0788
     39 HO2'       -0.1563   -0.9855    2.0596 H         1 ATP         0.4363
     40 H1'         1.7826    1.9024    1.6451 H         1 ATP         0.1225
     41 H8         -1.4030    1.8165    0.9473 H         1 ATP         0.3824
     42 HN62       -1.3197    6.9504   -2.4583 H         1 ATP         0.4018
     43 H2          2.8857    5.5186   -2.1994 H         1 ATP         0.0652
     44 H44         0.9433    6.6815   -2.6502 H         1 ATP         0.4503
     45 H45        -2.4254    3.8199   -0.2108 H         1 ATP         0.5209
@<TRIPOS>BOND
     1    1    2 2
     2    1    3 1
     3    1    4 1
     4    1    8 1
     5    4   32 1
     6    5    6 2
     7    5    7 1
     8    5    8 1
     9    5   12 1
    10    9   10 2
    11    9   11 1
    12    9   12 1
    13    9   13 1
    14   13   14 1
    15   14   15 1
    16   14   33 1
    17   14   34 1
    18   15   16 1
    19   15   17 1
    20   15   35 1
    21   16   21 1
    22   17   18 1
    23   17   19 1
    24   17   36 1
    25   18   37 1
    26   19   20 1
    27   19   21 1
    28   19   38 1
    29   20   39 1
    30   21   22 1
    31   21   40 1
    32   22   23 ar
    33   22   31 ar
    34   23   24 ar
    35   23   41 1
    36   24   25 ar
    37   24   45 1
    38   25   26 ar
    39   25   31 ar
    40   26   27 2
    41   26   28 ar
    42   27   42 1
    43   28   29 ar
    44   28   44 1
    45   29   30 ar
    46   29   43 1
    47   30   31 ar
@<TRIPOS>SUBSTRUCTURE
     1 ATP         1 GROUP 0 A     ****
@<TRIPOS>MOLECULE
[[[3,4-dihydroxy-5-(6-imino-7,8-dihydro-1~{H}-purin-8-ylium-9-yl)tetrahydrofuran-2-yl]methoxy-oxido-phosphoryl]oxy-oxido-phosphoryl] hydrogen phosphate
   45    47     1     0     0
SMALL
USER_CHARGES

@<TRIPOS>ATOM
      1 PG          1.2266   -4.2118   -4.5338 P.3       1 ATP         1.5631
      2 O1G         0.7006   -2.9495   -3.8879 O.co2     1 ATP        -0.8806
      3 O2G         1.4594   -5.4638   -3.7176 O.co2     1 ATP        -0.8806
      4 O3G         0.2632   -4.5883   -5.7972 O.3       1 ATP        -0.8165
      5 PB          4.0507   -3.3802   -4.8106 P.3       1 ATP         1.6877
      6 O1B         4.5216   -4.3661   -3.7648 O.co2     1 ATP        -0.8727
      7 O2B         4.9195   -3.0199   -5.9951 O.co2     1 ATP        -0.8727
      8 O3B         2.5892   -3.8579   -5.3596 O.3       1 ATP        -0.8330
      9 PA          4.4789   -0.9083   -3.2418 P.3       1 ATP         1.6036
     10 O1A         5.4277   -0.2314   -4.2071 O.co2     1 ATP        -0.9062
     11 O2A         4.9966   -1.5644   -1.9804 O.co2     1 ATP        -0.9062
     12 O3A         3.5882   -2.0049   -4.0627 O.3       1 ATP        -0.8166
     13 O5'         3.2903    0.1346   -2.8241 O.3       1 ATP        -0.5510
     14 C5'         2.2816   -0.2918   -1.9206 C.3       1 ATP         0.2099
     15 C4'         2.7248    0.0226   -0.4980 C.3       1 ATP         0.0598
     16 O4'         2.4697    1.4219   -0.2462 O.3       1 ATP        -0.3455
     17 C3'         1.9404   -0.7419    0.5596 C.3       1 ATP         0.0742
     18 O3'         2.7418   -0.8086    1.7389 O.3       1 ATP        -0.6025
     19 C2'         0.7477    0.1630    0.7858 C.3       1 ATP         0.1145
     20 O2'         0.1373   -0.0577    2.0407 O.3       1 ATP        -0.5835
     21 C1'         1.3733    1.5427    0.6747 C.3       1 ATP         0.3776
     22 N9          0.4520    2.5240    0.1767 N.pl3     1 ATP        -0.4429
     23 C8         -0.8620    2.5492    0.3743 C.ar      1 ATP         0.2964
     24 N7         -1.4419    3.5886   -0.2183 N.pl3     1 ATP        -0.4957
     25 C5         -0.4215    4.2614   -0.8294 C.ar      1 ATP        -0.1346
     26 C6         -0.4310    5.4918   -1.6405 C.ar      1 ATP         0.7213
     27 N6         -1.5302    6.1308   -1.8826 N.2       1 ATP        -0.8215
     28 N1          0.8382    5.8461   -2.0817 N.pl3     1 ATP        -0.8455
     29 C2          1.9625    5.0982   -1.7709 C.ar      1 ATP         0.6477
     30 N3          1.9930    4.0077   -1.0554 N.2       1 ATP        -0.5707
     31 C4          0.7483    3.6314   -0.6038 C.ar      1 ATP         0.2637
     32 HOG3        0.4747   -5.3887   -6.3234 H         1 ATP         0.4378
     33 H5'1        1.3514    0.2330   -2.1577 H         1 ATP         0.0340
     34 H5'2        2.1280   -1.3678   -2.0460 H         1 ATP         0.0340
     35 H4'         3.8044   -0.1397   -0.4040 H         1 ATP         0.0910
     36 H3'         1.6764   -1.7639    0.2728 H         1 ATP         0.0656
     37 HO3'        2.2232   -1.2979    2.3953 H         1 ATP         0.4386
     38 H2'        -0.0011    0.0027    0.0003 H         1 ATP         0.0788
     39 HO2'       -0.1563   -0.9855    2.0596 H         1 ATP         0.4363
     40 H1'         1.7826    1.9024    1.6451 H         1 ATP         0.1225
     41 H8         -1.4030    1.8165    0.9473 H         1 ATP         0.3824
     42 HN62       -1.3197    6.9504   -2.4583 H         1 ATP         0.4018
     43 H2          2.8857    5.5186   -2.1994 H         1 ATP         0.0652
     44 H44         0.9433    6.6815   -2.6502 H         1 ATP         0.4503
     45 H45        -2.4254    3.8199   -0.2108 H         1 ATP         0.5209
@<TRIPOS>BOND
     1    1    2 2
     2    1    3 1
     3    1    4 1
     4    1    8 1
     5    4   32 1
     6    5    6 2
     7    5    7 1
     8    5    8 1
     9    5   12 1
    10    9   10 2
    11    9   11 1
    12    9   12 1
    13    9   13 1
    14   13   14 1
    15   14   15 1
    16   14   33 1
    17   14   34 1
    18   15   16 1
    19   15   17 1
    20   15   35 1
    21   16   21 1
    22   17   18 1
    23   17   19 1
    24   17   36 1
    25   18   37 1
    26   19   20 1
    27   19   21 1
    28   19   38 1
    29   20   39 1
    30   21   22 1
    31   21   40 1
    32   22   23 ar
    33   22   31 ar
    34   23   24 ar
    35   23   41 1
    36   24   25 ar
    37   24   45 1
    38   25   26 ar
    39   25   31 ar
    40   26   27 2
    41   26   28 ar
    42   27   42 1
    43   28   29 ar
    44   28   44 1
    45   29   30 ar
    46   29   43 1
    47   30   31 ar
@<TRIPOS>SUBSTRUCTURE
     1 ATP         1 GROUP 0 A     ****
@<TRIPOS>MOLECULE
[[[3,4-dihydroxy-5-(6-imino-7,8-dihydro-1~{H}-purin-8-ylium-9-yl)tetrahydrofuran-2-yl]methoxy-oxido-phosphoryl]oxy-oxido-phosphoryl] hydrogen phosphate
   45    47     1     0     0
SMALL
USER_CHARGES

@<TRIPOS>ATOM
      1 PG          8.5714   -0.5472   -5.2746 P.3       1 ATP         1.5631
      2 O1G         8.7983    0.7781   -5.9671 O.co2     1 ATP        -0.8806
      3 O2G         8.6038   -1.8451   -6.0506 O.co2     1 ATP        -0.8806
      4 O3G         9.6150   -0.6645   -4.0243 O.3       1 ATP        -0.8165
      5 PB          6.5300   -1.5474   -3.3838 P.3       1 ATP         1.6877
      6 O1B         6.1385   -2.7911   -4.1502 O.co2     1 ATP        -0.8727
      7 O2B         7.4133   -1.6279   -2.1587 O.co2     1 ATP        -0.8727
      8 O3B         7.1786   -0.4722   -4.4271 O.3       1 ATP        -0.8330
      9 PA          3.9554   -0.2064   -3.9565 P.3       1 ATP         1.6036
     10 O1A         3.2313   -1.4129   -4.5136 O.co2     1 ATP        -0.9062
     11 O2A         4.4942    0.8660   -4.8781 O.co2     1 ATP        -0.9062
     12 O3A         5.1753   -0.7215   -2.9994 O.3       1 ATP        -0.8166
     13 O5'         3.0213    0.5153   -2.8245 O.3       1 ATP        -0.5510
     14 C5'         2.2816   -0.2918   -1.9206 C.3       1 ATP         0.2099
     15 C4'         2.7248    0.0226   -0.4980 C.3       1 ATP         0.0598
     16 O4'         2.4697    1.4219   -0.2462 O.3       1 ATP        -0.3455
     17 C3'         1.9404   -0.7419    0.5596 C.3       1 ATP         0.0742
     18 O3'         2.7418   -0.8086    1.7389 O.3       1 ATP        -0.6025
     19 C2'         0.7477    0.1630    0.7858 C.3       1 ATP         0.1145
     20 O2'         0.1373   -0.0577    2.0407 O.3       1 ATP        -0.5835
     21 C1'         1.3733    1.5427    0.6747 C.3       1 ATP         0.3776
     22 N9          0.4520    2.5240    0.1767 N.pl3     1 ATP        -0.4429
     23 C8         -0.8620    2.5492    0.3743 C.ar      1 ATP         0.2964
     24 N7         -1.4419    3.5886   -0.2183 N.pl3     1 ATP        -0.4957
     25 C5         -0.4215    4.2614   -0.8294 C.ar      1 ATP        -0.1346
     26 C6         -0.4310    5.4918   -1.6405 C.ar      1 ATP         0.7213
     27 N6         -1.5302    6.1308   -1.8826 N.2       1 ATP        -0.8215
     28 N1          0.8382    5.8461   -2.0817 N.pl3     1 ATP        -0.8455
     29 C2          1.9625    5.0982   -1.7709 C.ar      1 ATP         0.6477
     30 N3          1.9930    4.0077   -1.0554 N.2       1 ATP        -0.5707
     31 C4          0.7483    3.6314   -0.6038 C.ar      1 ATP         0.2637
     32 HOG3        9.5922   -1.4745   -3.4716 H         1 ATP         0.4378
     33 H5'1        1.2163   -0.0770   -2.0471 H         1 ATP         0.0340
     34 H5'2        2.4655   -1.3443   -2.1563 H         1 ATP         0.0340
     35 H4'         3.8044   -0.1397   -0.4040 H         1 ATP         0.0910
     36 H3'         1.6764   -1.7639    0.2728 H         1 ATP         0.0656
     37 HO3'        2.2232   -1.2979    2.3953 H         1 ATP         0.4386
     38 H2'        -0.0011    0.0027    0.0003 H         1 ATP         0.0788
     39 HO2'       -0.1563   -0.9855    2.0596 H         1 ATP         0.4363
     40 H1'         1.7826    1.9024    1.6451 H         1 ATP         0.1225
     41 H8         -1.4030    1.8165    0.9473 H         1 ATP         0.3824
     42 HN62       -1.3197    6.9504   -2.4583 H         1 ATP         0.4018
     43 H2          2.8857    5.5186   -2.1994 H         1 ATP         0.0652
     44 H44         0.9433    6.6815   -2.6502 H         1 ATP         0.4503
     45 H45        -2.4254    3.8199   -0.2108 H         1 ATP         0.5209
@<TRIPOS>BOND
     1    1    2 2
     2    1    3 1
     3    1    4 1
     4    1    8 1
     5    4   32 1
     6    5    6 2
     7    5    7 1
     8    5    8 1
     9    5   12 1
    10    9   10 2
    11    9   11 1
    12    9   12 1
    13    9   13 1
    14   13   14 1
    15   14   15 1
    16   14   33 1
    17   14   34 1
    18   15   16 1
    19   15   17 1
    20   15   35 1
    21   16   21 1
    22   17   18 1
    23   17   19 1
    24   17   36 1
    25   18   37 1
    26   19   20 1
    27   19   21 1
    28   19   38 1
    29   20   39 1
    30   21   22 1
    31   21   40 1
    32   22   23 ar
    33   22   31 ar
    34   23   24 ar
    35   23   41 1
    36   24   25 ar
    37   24   45 1
    38   25   26 ar
    39   25   31 ar
    40   26   27 2
    41   26   28 ar
    42   27   42 1
    43   28   29 ar
    44   28   44 1
    45   29   30 ar
    46   29   43 1
    47   30   31 ar
@<TRIPOS>SUBSTRUCTURE
     1 ATP         1 GROUP 0 A     ****
@<TRIPOS>MOLECULE
[[[3,4-dihydroxy-5-(6-imino-7,8-dihydro-1~{H}-purin-8-ylium-9-yl)tetrahydrofuran-2-yl]methoxy-oxido-phosphoryl]oxy-oxido-phosphoryl] hydrogen phosphate
   45    47     1     0     0
SMALL
USER_CHARGES

@<TRIPOS>ATOM
      1 PG          1.6780   -4.3991   -7.6416 P.3       1 ATP         1.5631
      2 O1G         0.2211   -4.4080   -8.0474 O.co2     1 ATP        -0.8806
      3 O2G         2.4230   -5.6913   -7.3908 O.co2     1 ATP        -0.8806
      4 O3G         2.5155   -3.5216   -8.7346 O.3       1 ATP        -0.8165
      5 PB          1.4094   -1.8679   -6.1367 P.3       1 ATP         1.6877
      6 O1B         2.2245   -0.9950   -7.0647 O.co2     1 ATP        -0.8727
      7 O2B        -0.1015   -1.8011   -6.1243 O.co2     1 ATP        -0.8727
      8 O3B         1.8629   -3.4221   -6.3473 O.3       1 ATP        -0.8330
      9 PA          1.5544   -2.4558   -3.2404 P.3       1 ATP         1.6036
     10 O1A         2.0071   -3.8949   -3.3601 O.co2     1 ATP        -0.9062
     11 O2A         0.1180   -2.1225   -2.9010 O.co2     1 ATP        -0.9062
     12 O3A         1.9553   -1.6633   -4.6119 O.3       1 ATP        -0.8166
     13 O5'         2.5245   -1.6648   -2.1878 O.3       1 ATP        -0.5510
     14 C5'         2.2816   -0.2918   -1.9206 C.3       1 ATP         0.2099
     15 C4'         2.7248    0.0226   -0.4980 C.3       1 ATP         0.0598
     16 O4'         2.4697    1.4219   -0.2462 O.3       1 ATP        -0.3455
     17 C3'         1.9404   -0.7419    0.5596 C.3       1 ATP         0.0742
     18 O3'         2.7418   -0.8086    1.7389 O.3       1 ATP        -0.6025
     19 C2'         0.7477    0.1630    0.7858 C.3       1 ATP         0.1145
     20 O2'         0.1373   -0.0577    2.0407 O.3       1 ATP        -0.5835
     21 C1'         1.3733    1.5427    0.6747 C.3       1 ATP         0.3776
     22 N9          0.4520    2.5240    0.1767 N.pl3     1 ATP        -0.4429
     23 C8         -0.8620    2.5492    0.3743 C.ar      1 ATP         0.2964
     24 N7         -1.4419    3.5886   -0.2183 N.pl3     1 ATP        -0.4957
     25 C5         -0.4215    4.2614   -0.8294 C.ar      1 ATP        -0.1346
     26 C6         -0.4310    5.4918   -1.6405 C.ar      1 ATP         0.7213
     27 N6         -1.5302    6.1308   -1.8826 N.2       1 ATP        -0.8215
     28 N1          0.8382    5.8461   -2.0817 N.pl3     1 ATP        -0.8455
     29 C2          1.9625    5.0982   -1.7709 C.ar      1 ATP         0.6477
     30 N3          1.9930    4.0077   -1.0554 N.2       1 ATP        -0.5707
     31 C4          0.7483    3.6314   -0.6038 C.ar      1 ATP         0.2637
     32 HOG3        3.4832   -3.4207   -8.6095 H         1 ATP         0.4378
     33 H5'1        2.8432    0.3119   -2.6398 H         1 ATP         0.0340
     34 H5'2        1.2128   -0.0927   -2.0428 H         1 ATP         0.0340
     35 H4'         3.8044   -0.1397   -0.4040 H         1 ATP         0.0910
     36 H3'         1.6764   -1.7639    0.2728 H         1 ATP         0.0656
     37 HO3'        2.2232   -1.2979    2.3953 H         1 ATP         0.4386
     38 H2'        -0.0011    0.0027    0.0003 H         1 ATP         0.0788
     39 HO2'       -0.1563   -0.9855    2.0596 H         1 ATP         0.4363
     40 H1'         1.7826    1.9024    1.6451 H         1 ATP         0.1225
     41 H8         -1.4030    1.8165    0.9473 H         1 ATP         0.3824
     42 HN62       -1.3197    6.9504   -2.4583 H         1 ATP         0.4018
     43 H2          2.8857    5.5186   -2.1994 H         1 ATP         0.0652
     44 H44         0.9433    6.6815   -2.6502 H         1 ATP         0.4503
     45 H45        -2.4254    3.8199   -0.2108 H         1 ATP         0.5209
@<TRIPOS>BOND
     1    1    2 2
     2    1    3 1
     3    1    4 1
     4    1    8 1
     5    4   32 1
     6    5    6 2
     7    5    7 1
     8    5    8 1
     9    5   12 1
    10    9   10 2
    11    9   11 1
    12    9   12 1
    13    9   13 1
    14   13   14 1
    15   14   15 1
    16   14   33 1
    17   14   34 1
    18   15   16 1
    19   15   17 1
    20   15   35 1
    21   16   21 1
    22   17   18 1
    23   17   19 1
    24   17   36 1
    25   18   37 1
    26   19   20 1
    27   19   21 1
    28   19   38 1
    29   20   39 1
    30   21   22 1
    31   21   40 1
    32   22   23 ar
    33   22   31 ar
    34   23   24 ar
    35   23   41 1
    36   24   25 ar
    37   24   45 1
    38   25   26 ar
    39   25   31 ar
    40   26   27 2
    41   26   28 ar
    42   27   42 1
    43   28   29 ar
    44   28   44 1
    45   29   30 ar
    46   29   43 1
    47   30   31 ar
@<TRIPOS>SUBSTRUCTURE
     1 ATP         1 GROUP 0 A     ****
@<TRIPOS>MOLECULE
[[[3,4-dihydroxy-5-(6-imino-7,8-dihydro-1~{H}-purin-8-ylium-9-yl)tetrahydrofuran-2-yl]methoxy-oxido-phosphoryl]oxy-oxido-phosphoryl] hydrogen phosphate
   45    47     1     0     0
SMALL
USER_CHARGES

@<TRIPOS>ATOM
      1 PG          1.2842   -4.2768   -4.5095 P.3       1 ATP         1.5631
      2 O1G        -0.1068   -3.6981   -4.3766 O.co2     1 ATP        -0.8806
      3 O2G         2.1290   -4.5584   -3.2869 O.co2     1 ATP        -0.8806
      4 O3G         1.1955   -5.6401   -5.4036 O.3       1 ATP        -0.8165
      5 PB          2.6648   -1.8167   -5.3957 P.3       1 ATP         1.6877
      6 O1B         3.5647   -1.4912   -6.5669 O.co2     1 ATP        -0.8727
      7 O2B         1.4836   -0.9385   -5.0477 O.co2     1 ATP        -0.8727
      8 O3B         2.1452   -3.3570   -5.5470 O.3       1 ATP        -0.8330
      9 PA          4.4789   -0.9083   -3.2418 P.3       1 ATP         1.6036
     10 O1A         5.4277   -0.2314   -4.2071 O.co2     1 ATP        -0.9062
     11 O2A         4.9966   -1.5644   -1.9804 O.co2     1 ATP        -0.9062
     12 O3A         3.5882   -2.0049   -4.0627 O.3       1 ATP        -0.8166
     13 O5'         3.2903    0.1346   -2.8241 O.3       1 ATP        -0.5510
     14 C5'         2.2816   -0.2918   -1.9206 C.3       1 ATP         0.2099
     15 C4'         2.7248    0.0226   -0.4980 C.3       1 ATP         0.0598
     16 O4'         2.4697    1.4219   -0.2462 O.3       1 ATP        -0.3455
     17 C3'         1.9404   -0.7419    0.5596 C.3       1 ATP         0.0742
     18 O3'         2.7418   -0.8086    1.7389 O.3       1 ATP        -0.6025
     19 C2'         0.7477    0.1630    0.7858 C.3       1 ATP         0.1145
     20 O2'         0.1373   -0.0577    2.0407 O.3       1 ATP        -0.5835
     21 C1'         1.3733    1.5427    0.6747 C.3       1 ATP         0.3776
     22 N9          0.4520    2.5240    0.1767 N.pl3     1 ATP        -0.4429
     23 C8         -0.8620    2.5492    0.3743 C.ar      1 ATP         0.2964
     24 N7         -1.4419    3.5886   -0.2183 N.pl3     1 ATP        -0.4957
     25 C5         -0.4215    4.2614   -0.8294 C.ar      1 ATP        -0.1346
     26 C6         -0.4310    5.4918   -1.6405 C.ar      1 ATP         0.7213
     27 N6         -1.5302    6.1308   -1.8826 N.2       1 ATP        -0.8215
     28 N1          0.8382    5.8461   -2.0817 N.pl3     1 ATP        -0.8455
     29 C2          1.9625    5.0982   -1.7709 C.ar      1 ATP         0.6477
     30 N3          1.9930    4.0077   -1.0554 N.2       1 ATP        -0.5707
     31 C4          0.7483    3.6314   -0.6038 C.ar      1 ATP         0.2637
     32 HOG3        2.0227   -6.1367   -5.5810 H         1 ATP         0.4378
     33 H5'1        1.3514    0.2330   -2.1577 H         1 ATP         0.0340
     34 H5'2        2.1280   -1.3678   -2.0460 H         1 ATP         0.0340
     35 H4'         3.8044   -0.1397   -0.4040 H         1 ATP         0.0910
     36 H3'         1.6764   -1.7639    0.2728 H         1 ATP         0.0656
     37 HO3'        2.2232   -1.2979    2.3953 H         1 ATP         0.4386
     38 H2'        -0.0011    0.0027    0.0003 H         1 ATP         0.0788
     39 HO2'       -0.1563   -0.9855    2.0596 H         1 ATP         0.4363
     40 H1'         1.7826    1.9024    1.6451 H         1 ATP         0.1225
     41 H8         -1.4030    1.8165    0.9473 H         1 ATP         0.3824
     42 HN62       -1.3197    6.9504   -2.4583 H         1 ATP         0.4018
     43 H2          2.8857    5.5186   -2.1994 H         1 ATP         0.0652
     44 H44         0.9433    6.6815   -2.6502 H         1 ATP         0.4503
     45 H45        -2.4254    3.8199   -0.2108 H         1 ATP         0.5209
@<TRIPOS>BOND
     1    1    2 2
     2    1    3 1
     3    1    4 1
     4    1    8 1
     5    4   32 1
     6    5    6 2
     7    5    7 1
     8    5    8 1
     9    5   12 1
    10    9   10 2
    11    9   11 1
    12    9   12 1
    13    9   13 1
    14   13   14 1
    15   14   15 1
    16   14   33 1
    17   14   34 1
    18   15   16 1
    19   15   17 1
    20   15   35 1
    21   16   21 1
    22   17   18 1
    23   17   19 1
    24   17   36 1
    25   18   37 1
    26   19   20 1
    27   19   21 1
    28   19   38 1
    29   20   39 1
    30   21   22 1
    31   21   40 1
    32   22   23 ar
    33   22   31 ar
    34   23   24 ar
    35   23   41 1
    36   24   25 ar
    37   24   45 1
    38   25   26 ar
    39   25   31 ar
    40   26   27 2
    41   26   28 ar
    42   27   42 1
    43   28   29 ar
    44   28   44 1
    45   29   30 ar
    46   29   43 1
    47   30   31 ar
@<TRIPOS>SUBSTRUCTURE
     1 ATP         1 GROUP 0 A     ****
@<TRIPOS>MOLECULE
[[[3,4-dihydroxy-5-(6-imino-7,8-dihydro-1~{H}-purin-8-ylium-9-yl)tetrahydrofuran-2-yl]methoxy-oxido-phosphoryl]oxy-oxido-phosphoryl] hydrogen phosphate
   45    47     1     0     0
SMALL
USER_CHARGES

@<TRIPOS>ATOM
      1 PG          3.2779    0.6124   -6.7234 P.3       1 ATP         1.5631
      2 O1G         4.3707    1.0449   -5.7715 O.co2     1 ATP        -0.8806
      3 O2G         1.8960    1.2226   -6.6492 O.co2     1 ATP        -0.8806
      4 O3G         3.8309    0.7657   -8.2520 O.3       1 ATP        -0.8165
      5 PB          2.6408   -1.9833   -5.4584 P.3       1 ATP         1.6877
      6 O1B         1.2881   -1.5037   -4.9812 O.co2     1 ATP        -0.8727
      7 O2B         2.8628   -3.4230   -5.8651 O.co2     1 ATP        -0.8727
      8 O3B         3.1417   -1.0133   -6.6724 O.3       1 ATP        -0.8330
      9 PA          3.9668   -2.1116   -2.8163 P.3       1 ATP         1.6036
     10 O1A         5.0719   -1.3107   -2.1623 O.co2     1 ATP        -0.9062
     11 O2A         4.0210   -3.6235   -2.8465 O.co2     1 ATP        -0.9062
     12 O3A         3.7633   -1.5743   -4.3459 O.3       1 ATP        -0.8166
     13 O5'         2.5245   -1.6648   -2.1878 O.3       1 ATP        -0.5510
     14 C5'         2.2816   -0.2918   -1.9206 C.3       1 ATP         0.2099
     15 C4'         2.7248    0.0226   -0.4980 C.3       1 ATP         0.0598
     16 O4'         2.4697    1.4219   -0.2462 O.3       1 ATP        -0.3455
     17 C3'         1.9404   -0.7419    0.5596 C.3       1 ATP         0.0742
     18 O3'         2.7418   -0.8086    1.7389 O.3       1 ATP        -0.6025
     19 C2'         0.7477    0.1630    0.7858 C.3       1 ATP         0.1145
     20 O2'         0.1373   -0.0577    2.0407 O.3       1 ATP        -0.5835
     21 C1'         1.3733    1.5427    0.6747 C.3       1 ATP         0.3776
     22 N9          0.4520    2.5240    0.1767 N.pl3     1 ATP        -0.4429
     23 C8         -0.8620    2.5492    0.3743 C.ar      1 ATP         0.2964
     24 N7         -1.4419    3.5886   -0.2183 N.pl3     1 ATP        -0.4957
     25 C5         -0.4215    4.2614   -0.8294 C.ar      1 ATP        -0.1346
     26 C6         -0.4310    5.4918   -1.6405 C.ar      1 ATP         0.7213
     27 N6         -1.5302    6.1308   -1.8826 N.2       1 ATP        -0.8215
     28 N1          0.8382    5.8461   -2.0817 N.pl3     1 ATP        -0.8455
     29 C2          1.9625    5.0982   -1.7709 C.ar      1 ATP         0.6477
     30 N3          1.9930    4.0077   -1.0554 N.2       1 ATP        -0.5707
     31 C4          0.7483    3.6314   -0.6038 C.ar      1 ATP         0.2637
     32 HOG3        3.2338    0.5222   -8.9912 H         1 ATP         0.4378
     33 H5'1        2.8432    0.3119   -2.6398 H         1 ATP         0.0340
     34 H5'2        1.2128   -0.0927   -2.0428 H         1 ATP         0.0340
     35 H4'         3.8044   -0.1397   -0.4040 H         1 ATP         0.0910
     36 H3'         1.6764   -1.7639    0.2728 H         1 ATP         0.0656
     37 HO3'        2.2232   -1.2979    2.3953 H         1 ATP         0.4386
     38 H2'        -0.0011    0.0027    0.0003 H         1 ATP         0.0788
     39 HO2'       -0.1563   -0.9855    2.0596 H         1 ATP         0.4363
     40 H1'         1.7826    1.9024    1.6451 H         1 ATP         0.1225
     41 H8         -1.4030    1.8165    0.9473 H         1 ATP         0.3824
     42 HN62       -1.3197    6.9504   -2.4583 H         1 ATP         0.4018
     43 H2          2.8857    5.5186   -2.1994 H         1 ATP         0.0652
     44 H44         0.9433    6.6815   -2.6502 H         1 ATP         0.4503
     45 H45        -2.4254    3.8199   -0.2108 H         1 ATP         0.5209
@<TRIPOS>BOND
     1    1    2 2
     2    1    3 1
     3    1    4 1
     4    1    8 1
     5    4   32 1
     6    5    6 2
     7    5    7 1
     8    5    8 1
     9    5   12 1
    10    9   10 2
    11    9   11 1
    12    9   12 1
    13    9   13 1
    14   13   14 1
    15   14   15 1
    16   14   33 1
    17   14   34 1
    18   15   16 1
    19   15   17 1
    20   15   35 1
    21   16   21 1
    22   17   18 1
    23   17   19 1
    24   17   36 1
    25   18   37 1
    26   19   20 1
    27   19   21 1
    28   19   38 1
    29   20   39 1
    30   21   22 1
    31   21   40 1
    32   22   23 ar
    33   22   31 ar
    34   23   24 ar
    35   23   41 1
    36   24   25 ar
    37   24   45 1
    38   25   26 ar
    39   25   31 ar
    40   26   27 2
    41   26   28 ar
    42   27   42 1
    43   28   29 ar
    44   28   44 1
    45   29   30 ar
    46   29   43 1
    47   30   31 ar
@<TRIPOS>SUBSTRUCTURE
     1 ATP         1 GROUP 0 A     ****
@<TRIPOS>MOLECULE
[[[3,4-dihydroxy-5-(6-imino-7,8-dihydro-1~{H}-purin-8-ylium-9-yl)tetrahydrofuran-2-yl]methoxy-oxido-phosphoryl]oxy-oxido-phosphoryl] hydrogen phosphate
   45    47     1     0     0
SMALL
USER_CHARGES

@<TRIPOS>ATOM
      1 PG          2.8267   -0.0376   -8.9634 P.3       1 ATP         1.5631
      2 O1G         4.1759    0.5492   -9.3135 O.co2     1 ATP        -0.8806
      3 O2G         1.5582    0.5066   -9.5819 O.co2     1 ATP        -0.8806
      4 O3G         2.8792   -1.6490   -9.2214 O.3       1 ATP        -0.8165
      5 PB          1.4827   -0.7072   -6.4161 P.3       1 ATP         1.6877
      6 O1B         0.1959    0.0482   -6.6633 O.co2     1 ATP        -0.8727
      7 O2B         1.5447   -2.2128   -6.5461 O.co2     1 ATP        -0.8727
      8 O3B         2.6593   -0.0531   -7.3400 O.3       1 ATP        -0.8330
      9 PA          3.4844   -0.6652   -4.2374 P.3       1 ATP         1.6036
     10 O1A         4.6107   -0.0317   -5.0250 O.co2     1 ATP        -0.9062
     11 O2A         3.4852   -2.1497   -3.9439 O.co2     1 ATP        -0.9062
     12 O3A         2.0649   -0.2836   -4.9510 O.3       1 ATP        -0.8166
     13 O5'         3.2903    0.1346   -2.8241 O.3       1 ATP        -0.5510
     14 C5'         2.2816   -0.2918   -1.9206 C.3       1 ATP         0.2099
     15 C4'         2.7248    0.0226   -0.4980 C.3       1 ATP         0.0598
     16 O4'         2.4697    1.4219   -0.2462 O.3       1 ATP        -0.3455
     17 C3'         1.9404   -0.7419    0.5596 C.3       1 ATP         0.0742
     18 O3'         2.7418   -0.8086    1.7389 O.3       1 ATP        -0.6025
     19 C2'         0.7477    0.1630    0.7858 C.3       1 ATP         0.1145
     20 O2'         0.1373   -0.0577    2.0407 O.3       1 ATP        -0.5835
     21 C1'         1.3733    1.5427    0.6747 C.3       1 ATP         0.3776
     22 N9          0.4520    2.5240    0.1767 N.pl3     1 ATP        -0.4429
     23 C8         -0.8620    2.5492    0.3743 C.ar      1 ATP         0.2964
     24 N7         -1.4419    3.5886   -0.2183 N.pl3     1 ATP        -0.4957
     25 C5         -0.4215    4.2614   -0.8294 C.ar      1 ATP        -0.1346
     26 C6         -0.4310    5.4918   -1.6405 C.ar      1 ATP         0.7213
     27 N6         -1.5302    6.1308   -1.8826 N.2       1 ATP        -0.8215
     28 N1          0.8382    5.8461   -2.0817 N.pl3     1 ATP        -0.8455
     29 C2          1.9625    5.0982   -1.7709 C.ar      1 ATP         0.6477
     30 N3          1.9930    4.0077   -1.0554 N.2       1 ATP        -0.5707
     31 C4          0.7483    3.6314   -0.6038 C.ar      1 ATP         0.2637
     32 HOG3        2.0733   -2.1776   -9.0389 H         1 ATP         0.4378
     33 H5'1        1.3514    0.2330   -2.1577 H         1 ATP         0.0340
     34 H5'2        2.1280   -1.3678   -2.0460 H         1 ATP         0.0340
     35 H4'         3.8044   -0.1397   -0.4040 H         1 ATP         0.0910
     36 H3'         1.6764   -1.7639    0.2728 H         1 ATP         0.0656
     37 HO3'        3.5554   -1.2733    1.4914 H         1 ATP         0.4386
     38 H2'        -0.0011    0.0027    0.0003 H         1 ATP         0.0788
     39 HO2'       -0.1563   -0.9855    2.0596 H         1 ATP         0.4363
     40 H1'         1.7826    1.9024    1.6451 H         1 ATP         0.1225
     41 H8         -1.4030    1.8165    0.9473 H         1 ATP         0.3824
     42 HN62       -1.3197    6.9504   -2.4583 H         1 ATP         0.4018
     43 H2          2.8857    5.5186   -2.1994 H         1 ATP         0.0652
     44 H44         0.9433    6.6815   -2.6502 H         1 ATP         0.4503
     45 H45        -2.4254    3.8199   -0.2108 H         1 ATP         0.5209
@<TRIPOS>BOND
     1    1    2 2
     2    1    3 1
     3    1    4 1
     4    1    8 1
     5    4   32 1
     6    5    6 2
     7    5    7 1
     8    5    8 1
     9    5   12 1
    10    9   10 2
    11    9   11 1
    12    9   12 1
    13    9   13 1
    14   13   14 1
    15   14   15 1
    16   14   33 1
    17   14   34 1
    18   15   16 1
    19   15   17 1
    20   15   35 1
    21   16   21 1
    22   17   18 1
    23   17   19 1
    24   17   36 1
    25   18   37 1
    26   19   20 1
    27   19   21 1
    28   19   38 1
    29   20   39 1
    30   21   22 1
    31   21   40 1
    32   22   23 ar
    33   22   31 ar
    34   23   24 ar
    35   23   41 1
    36   24   25 ar
    37   24   45 1
    38   25   26 ar
    39   25   31 ar
    40   26   27 2
    41   26   28 ar
    42   27   42 1
    43   28   29 ar
    44   28   44 1
    45   29   30 ar
    46   29   43 1
    47   30   31 ar
@<TRIPOS>SUBSTRUCTURE
     1 ATP         1 GROUP 0 A     ****
@<TRIPOS>MOLECULE
[[[3,4-dihydroxy-5-(6-imino-7,8-dihydro-1~{H}-purin-8-ylium-9-yl)tetrahydrofuran-2-yl]methoxy-oxido-phosphoryl]oxy-oxido-phosphoryl] hydrogen phosphate
   45    47     1     0     0
SMALL
USER_CHARGES

@<TRIPOS>ATOM
      1 PG          8.0091   -2.1107   -3.1626 P.3       1 ATP         1.5631
      2 O1G         8.4879   -3.5376   -3.3117 O.co2     1 ATP        -0.8806
      3 O2G         8.2880   -1.3251   -1.9006 O.co2     1 ATP        -0.8806
      4 O3G         8.5462   -1.2473   -4.4401 O.3       1 ATP        -0.8165
      5 PB          5.1546   -2.6910   -2.6538 P.3       1 ATP         1.6877
      6 O1B         5.2385   -4.1989   -2.7357 O.co2     1 ATP        -0.8727
      7 O2B         5.0404   -1.9840   -1.3217 O.co2     1 ATP        -0.8727
      8 O3B         6.4092   -2.0514   -3.4800 O.3       1 ATP        -0.8330
      9 PA          2.3314   -2.4081   -3.4930 P.3       1 ATP         1.6036
     10 O1A         2.0570   -3.8919   -3.3763 O.co2     1 ATP        -0.9062
     11 O2A         1.6466   -1.5761   -4.5553 O.co2     1 ATP        -0.9062
     12 O3A         3.9442   -2.1808   -3.6230 O.3       1 ATP        -0.8166
     13 O5'         2.0820   -1.6920   -2.0440 O.3       1 ATP        -0.5510
     14 C5'         2.2816   -0.2918   -1.9206 C.3       1 ATP         0.2099
     15 C4'         2.7248    0.0226   -0.4980 C.3       1 ATP         0.0598
     16 O4'         2.4697    1.4219   -0.2462 O.3       1 ATP        -0.3455
     17 C3'         1.9404   -0.7419    0.5596 C.3       1 ATP         0.0742
     18 O3'         2.7418   -0.8086    1.7389 O.3       1 ATP        -0.6025
     19 C2'         0.7477    0.1630    0.7858 C.3       1 ATP         0.1145
     20 O2'         0.1373   -0.0577    2.0407 O.3       1 ATP        -0.5835
     21 C1'         1.3733    1.5427    0.6747 C.3       1 ATP         0.3776
     22 N9          0.4520    2.5240    0.1767 N.pl3     1 ATP        -0.4429
     23 C8          0.2216    2.8192   -1.0985 C.ar      1 ATP         0.2964
     24 N7         -0.6906    3.7763   -1.2384 N.pl3     1 ATP        -0.4957
     25 C5         -1.0575    4.1037    0.0366 C.ar      1 ATP        -0.1346
     26 C6         -2.0291    5.0943    0.5330 C.ar      1 ATP         0.7213
     27 N6         -2.7093    5.8371   -0.2800 N.2       1 ATP        -0.8215
     28 N1         -2.1051    5.1136    1.9204 N.pl3     1 ATP        -0.8455
     29 C2         -1.3354    4.2774    2.7129 C.ar      1 ATP         0.6477
     30 N3         -0.4707    3.3945    2.2944 N.2       1 ATP        -0.5707
     31 C4         -0.3734    3.3525    0.9220 C.ar      1 ATP         0.2637
     32 HOG3        8.3166   -0.2949   -4.4897 H         1 ATP         0.4378
     33 H5'1        3.0463    0.0197   -2.6385 H         1 ATP         0.0340
     34 H5'2        1.3428    0.2199   -2.1523 H         1 ATP         0.0340
     35 H4'         3.8044   -0.1397   -0.4040 H         1 ATP         0.0910
     36 H3'         1.6764   -1.7639    0.2728 H         1 ATP         0.0656
     37 HO3'        2.2232   -1.2979    2.3953 H         1 ATP         0.4386
     38 H2'        -0.0011    0.0027    0.0003 H         1 ATP         0.0788
     39 HO2'       -0.6141    0.5574    2.1082 H         1 ATP         0.4363
     40 H1'         1.7826    1.9024    1.6451 H         1 ATP         0.1225
     41 H8          0.7125    2.3429   -1.9292 H         1 ATP         0.3824
     42 HN62       -3.3217    6.4517    0.2629 H         1 ATP         0.4018
     43 H2         -1.5188    4.4223    3.7890 H         1 ATP         0.0652
     44 H44        -2.7470    5.7626    2.3665 H         1 ATP         0.4503
     45 H45        -1.0305    4.1680   -2.1054 H         1 ATP         0.5209
@<TRIPOS>BOND
     1    1    2 2
     2    1    3 1
     3    1    4 1
     4    1    8 1
     5    4   32 1
     6    5    6 2
     7    5    7 1
     8    5    8 1
     9    5   12 1
    10    9   10 2
    11    9   11 1
    12    9   12 1
    13    9   13 1
    14   13   14 1
    15   14   15 1
    16   14   33 1
    17   14   34 1
    18   15   16 1
    19   15   17 1
    20   15   35 1
    21   16   21 1
    22   17   18 1
    23   17   19 1
    24   17   36 1
    25   18   37 1
    26   19   20 1
    27   19   21 1
    28   19   38 1
    29   20   39 1
    30   21   22 1
    31   21   40 1
    32   22   23 ar
    33   22   31 ar
    34   23   24 ar
    35   23   41 1
    36   24   25 ar
    37   24   45 1
    38   25   26 ar
    39   25   31 ar
    40   26   27 2
    41   26   28 ar
    42   27   42 1
    43   28   29 ar
    44   28   44 1
    45   29   30 ar
    46   29   43 1
    47   30   31 ar
@<TRIPOS>SUBSTRUCTURE
     1 ATP         1 GROUP 0 A     ****
@<TRIPOS>MOLECULE
[[[3,4-dihydroxy-5-(6-imino-7,8-dihydro-1~{H}-purin-8-ylium-9-yl)tetrahydrofuran-2-yl]methoxy-oxido-phosphoryl]oxy-oxido-phosphoryl] hydrogen phosphate
   45    47     1     0     0
SMALL
USER_CHARGES

@<TRIPOS>ATOM
      1 PG          4.2012   -2.2012   -8.4500 P.3       1 ATP         1.5631
      2 O1G         4.6311   -3.6502   -8.3958 O.co2     1 ATP        -0.8806
      3 O2G         5.1177   -1.1391   -9.0154 O.co2     1 ATP        -0.8806
      4 O3G         2.7669   -2.1144   -9.2254 O.3       1 ATP        -0.8165
      5 PB          2.6034   -2.4155   -5.9711 P.3       1 ATP         1.6877
      6 O1B         1.2353   -2.2799   -6.6016 O.co2     1 ATP        -0.8727
      7 O2B         3.1247   -3.7589   -5.5118 O.co2     1 ATP        -0.8727
      8 O3B         3.7072   -1.7377   -6.9651 O.3       1 ATP        -0.8330
      9 PA          4.0010   -0.9663   -3.8028 P.3       1 ATP         1.6036
     10 O1A         5.0351   -0.2791   -4.6680 O.co2     1 ATP        -0.9062
     11 O2A         4.3698   -2.1728   -2.9673 O.co2     1 ATP        -0.9062
     12 O3A         2.7156   -1.3587   -4.7320 O.3       1 ATP        -0.8166
     13 O5'         3.2903    0.1346   -2.8241 O.3       1 ATP        -0.5510
     14 C5'         2.2816   -0.2918   -1.9206 C.3       1 ATP         0.2099
     15 C4'         2.7248    0.0226   -0.4980 C.3       1 ATP         0.0598
     16 O4'         2.4697    1.4219   -0.2462 O.3       1 ATP        -0.3455
     17 C3'         1.9404   -0.7419    0.5596 C.3       1 ATP         0.0742
     18 O3'         2.7418   -0.8086    1.7389 O.3       1 ATP        -0.6025
     19 C2'         0.7477    0.1630    0.7858 C.3       1 ATP         0.1145
     20 O2'         0.1373   -0.0577    2.0407 O.3       1 ATP        -0.5835
     21 C1'         1.3733    1.5427    0.6747 C.3       1 ATP         0.3776
     22 N9          0.4520    2.5240    0.1767 N.pl3     1 ATP        -0.4429
     23 C8         -0.8620    2.5492    0.3743 C.ar      1 ATP         0.2964
     24 N7         -1.4419    3.5886   -0.2183 N.pl3     1 ATP        -0.4957
     25 C5         -0.4215    4.2614   -0.8294 C.ar      1 ATP        -0.1346
     26 C6         -0.4310    5.4918   -1.6405 C.ar      1 ATP         0.7213
     27 N6         -1.5302    6.1308   -1.8826 N.2       1 ATP        -0.8215
     28 N1          0.8382    5.8461   -2.0817 N.pl3     1 ATP        -0.8455
     29 C2          1.9625    5.0982   -1.7709 C.ar      1 ATP         0.6477
     30 N3          1.9930    4.0077   -1.0554 N.2       1 ATP        -0.5707
     31 C4          0.7483    3.6314   -0.6038 C.ar      1 ATP         0.2637
     32 HOG3        2.3520   -1.2333   -9.3425 H         1 ATP         0.4378
     33 H5'1        1.3514    0.2330   -2.1577 H         1 ATP         0.0340
     34 H5'2        2.1280   -1.3678   -2.0460 H         1 ATP         0.0340
     35 H4'         3.8044   -0.1397   -0.4040 H         1 ATP         0.0910
     36 H3'         1.6764   -1.7639    0.2728 H         1 ATP         0.0656
     37 HO3'        2.2232   -1.2979    2.3953 H         1 ATP         0.4386
     38 H2'        -0.0011    0.0027    0.0003 H         1 ATP         0.0788
     39 HO2'       -0.1563   -0.9855    2.0596 H         1 ATP         0.4363
     40 H1'         1.7826    1.9024    1.6451 H         1 ATP         0.1225
     41 H8         -1.4030    1.8165    0.9473 H         1 ATP         0.3824
     42 HN62       -1.3197    6.9504   -2.4583 H         1 ATP         0.4018
     43 H2          2.8857    5.5186   -2.1994 H         1 ATP         0.0652
     44 H44         0.9433    6.6815   -2.6502 H         1 ATP         0.4503
     45 H45        -2.4254    3.8199   -0.2108 H         1 ATP         0.5209
@<TRIPOS>BOND
     1    1    2 2
     2    1    3 1
     3    1    4 1
     4    1    8 1
     5    4   32 1
     6    5    6 2
     7    5    7 1
     8    5    8 1
     9    5   12 1
    10    9   10 2
    11    9   11 1
    12    9   12 1
    13    9   13 1
    14   13   14 1
    15   14   15 1
    16   14   33 1
    17   14   34 1
    18   15   16 1
    19   15   17 1
    20   15   35 1
    21   16   21 1
    22   17   18 1
    23   17   19 1
    24   17   36 1
    25   18   37 1
    26   19   20 1
    27   19   21 1
    28   19   38 1
    29   20   39 1
    30   21   22 1
    31   21   40 1
    32   22   23 ar
    33   22   31 ar
    34   23   24 ar
    35   23   41 1
    36   24   25 ar
    37   24   45 1
    38   25   26 ar
    39   25   31 ar
    40   26   27 2
    41   26   28 ar
    42   27   42 1
    43   28   29 ar
    44   28   44 1
    45   29   30 ar
    46   29   43 1
    47   30   31 ar
@<TRIPOS>SUBSTRUCTURE
     1 ATP         1 GROUP 0 A     ****
@<TRIPOS>MOLECULE
[[[3,4-dihydroxy-5-(6-imino-7,8-dihydro-1~{H}-purin-8-ylium-9-yl)tetrahydrofuran-2-yl]methoxy-oxido-phosphoryl]oxy-oxido-phosphoryl] hydrogen phosphate
   45    47     1     0     0
SMALL
USER_CHARGES

@<TRIPOS>ATOM
      1 PG         -1.5868   -0.4978   -7.1579 P.3       1 ATP         1.5631
      2 O1G        -2.8380    0.0548   -6.5126 O.co2     1 ATP        -0.8806
      3 O2G        -1.5479   -1.9118   -7.6934 O.co2     1 ATP        -0.8806
      4 O3G        -1.1240    0.5201   -8.3477 O.3       1 ATP        -0.8165
      5 PB          1.2668   -0.5462   -6.3844 P.3       1 ATP         1.6877
      6 O1B         1.4926   -2.0333   -6.5426 O.co2     1 ATP        -0.8727
      7 O2B         1.7714    0.4370   -7.4171 O.co2     1 ATP        -0.8727
      8 O3B        -0.3262   -0.2814   -6.1440 O.3       1 ATP        -0.8330
      9 PA          3.3343   -0.0514   -4.3264 P.3       1 ATP         1.6036
     10 O1A         4.1298    0.9787   -5.0986 O.co2     1 ATP        -0.9062
     11 O2A         3.8296   -1.4756   -4.2002 O.co2     1 ATP        -0.9062
     12 O3A         1.8106   -0.0877   -4.9151 O.3       1 ATP        -0.8166
     13 O5'         3.0213    0.5153   -2.8245 O.3       1 ATP        -0.5510
     14 C5'         2.2816   -0.2918   -1.9206 C.3       1 ATP         0.2099
     15 C4'         2.7248    0.0226   -0.4980 C.3       1 ATP         0.0598
     16 O4'         2.4697    1.4219   -0.2462 O.3       1 ATP        -0.3455
     17 C3'         1.9404   -0.7419    0.5596 C.3       1 ATP         0.0742
     18 O3'         2.7418   -0.8086    1.7389 O.3       1 ATP        -0.6025
     19 C2'         0.7477    0.1630    0.7858 C.3       1 ATP         0.1145
     20 O2'         0.1373   -0.0577    2.0407 O.3       1 ATP        -0.5835
     21 C1'         1.3733    1.5427    0.6747 C.3       1 ATP         0.3776
     22 N9          0.4520    2.5240    0.1767 N.pl3     1 ATP        -0.4429
     23 C8         -0.2004    2.4829   -0.9804 C.ar      1 ATP         0.2964
     24 N7         -0.9830    3.5431   -1.1568 N.pl3     1 ATP        -0.4957
     25 C5         -0.8095    4.3012   -0.0331 C.ar      1 ATP        -0.1346
     26 C6         -1.4065    5.5904    0.3585 C.ar      1 ATP         0.7213
     27 N6         -2.2501    6.2030   -0.4084 N.2       1 ATP        -0.8215
     28 N1         -0.9585    6.0272    1.5994 N.pl3     1 ATP        -0.8455
     29 C2         -0.0508    5.3009    2.3532 C.ar      1 ATP         0.6477
     30 N3          0.4890    4.1592    2.0257 N.2       1 ATP        -0.5707
     31 C4          0.0637    3.7006    0.7995 C.ar      1 ATP         0.2637
     32 HOG3       -0.9076    1.4472   -8.1112 H         1 ATP         0.4378
     33 H5'1        1.2163   -0.0770   -2.0471 H         1 ATP         0.0340
     34 H5'2        2.4655   -1.3443   -2.1563 H         1 ATP         0.0340
     35 H4'         3.8044   -0.1397   -0.4040 H         1 ATP         0.0910
     36 H3'         1.6764   -1.7639    0.2728 H         1 ATP         0.0656
     37 HO3'        2.9083    0.1071    2.0092 H         1 ATP         0.4386
     38 H2'        -0.0011    0.0027    0.0003 H         1 ATP         0.0788
     39 HO2'        0.8082    0.1199    2.7232 H         1 ATP         0.4363
     40 H1'         1.7826    1.9024    1.6451 H         1 ATP         0.1225
     41 H8         -0.1116    1.6863   -1.6984 H         1 ATP         0.3824
     42 HN62       -2.5420    7.0730    0.0447 H         1 ATP         0.4018
     43 H2          0.1969    5.7893    3.3086 H         1 ATP         0.0652
     44 H44        -1.3097    6.9080    1.9642 H         1 ATP         0.4503
     45 H45        -1.5735    3.7351   -1.9538 H         1 ATP         0.5209
@<TRIPOS>BOND
     1    1    2 2
     2    1    3 1
     3    1    4 1
     4    1    8 1
     5    4   32 1
     6    5    6 2
     7    5    7 1
     8    5    8 1
     9    5   12 1
    10    9   10 2
    11    9   11 1
    12    9   12 1
    13    9   13 1
    14   13   14 1
    15   14   15 1
    16   14   33 1
    17   14   34 1
    18   15   16 1
    19   15   17 1
    20   15   35 1
    21   16   21 1
    22   17   18 1
    23   17   19 1
    24   17   36 1
    25   18   37 1
    26   19   20 1
    27   19   21 1
    28   19   38 1
    29   20   39 1
    30   21   22 1
    31   21   40 1
    32   22   23 ar
    33   22   31 ar
    34   23   24 ar
    35   23   41 1
    36   24   25 ar
    37   24   45 1
    38   25   26 ar
    39   25   31 ar
    40   26   27 2
    41   26   28 ar
    42   27   42 1
    43   28   29 ar
    44   28   44 1
    45   29   30 ar
    46   29   43 1
    47   30   31 ar
@<TRIPOS>SUBSTRUCTURE
     1 ATP         1 GROUP 0 A     ****
@<TRIPOS>MOLECULE
[[[3,4-dihydroxy-5-(6-imino-7,8-dihydro-1~{H}-purin-8-ylium-9-yl)tetrahydrofuran-2-yl]methoxy-oxido-phosphoryl]oxy-oxido-phosphoryl] hydrogen phosphate
   45    47     1     0     0
SMALL
USER_CHARGES

@<TRIPOS>ATOM
      1 PG         -1.2783   -6.7539    8.6620 P.3       1 ATP         1.5631
      2 O1G        -0.0770   -6.3145    9.4690 O.co2     1 ATP        -0.8806
      3 O2G        -1.6641   -8.2138    8.5745 O.co2     1 ATP        -0.8806
      4 O3G        -2.5788   -5.9032    9.1627 O.3       1 ATP        -0.8165
      5 PB         -2.2267   -6.1780    5.9211 P.3       1 ATP         1.6877
      6 O1B        -2.4002   -7.6092    5.4638 O.co2     1 ATP        -0.8727
      7 O2B        -3.4184   -5.3255    6.2961 O.co2     1 ATP        -0.8727
      8 O3B        -1.1539   -6.1482    7.1516 O.3       1 ATP        -0.8330
      9 PA         -0.7215   -3.8652    4.8532 P.3       1 ATP         1.6036
     10 O1A         0.3253   -3.7984    5.9441 O.co2     1 ATP        -0.9062
     11 O2A        -1.8707   -2.8812    4.8226 O.co2     1 ATP        -0.9062
     12 O3A        -1.3389   -5.3774    4.8095 O.3       1 ATP        -0.8166
     13 O5'         0.0118   -3.8395    3.3916 O.3       1 ATP        -0.5510
     14 C5'        -0.7840   -3.8935    2.2172 C.3       1 ATP         0.2099
     15 C4'        -0.0724   -3.1466    1.1027 C.3       1 ATP         0.0598
     16 O4'        -0.8674   -3.1929   -0.0945 O.3       1 ATP        -0.3455
     17 C3'         0.1338   -1.6715    1.4027 C.3       1 ATP         0.0742
     18 O3'         1.2893   -1.4445    2.1808 O.3       1 ATP        -0.6025
     19 C2'         0.2158   -1.0724    0.0128 C.3       1 ATP         0.1145
     20 O2'         1.5141   -1.2448   -0.5513 O.3       1 ATP        -0.5835
     21 C1'        -0.7897   -1.9176   -0.7583 C.3       1 ATP         0.3776
     22 N9         -2.1040   -1.3333   -0.7704 N.pl3     1 ATP        -0.4429
     23 C8         -3.2114   -1.8635   -0.2619 C.ar      1 ATP         0.2964
     24 N7         -4.2711   -1.0786   -0.4314 N.pl3     1 ATP        -0.4957
     25 C5         -3.7955    0.0193   -1.0917 C.ar      1 ATP        -0.1346
     26 C6         -4.4862    1.2344   -1.5586 C.ar      1 ATP         0.7213
     27 N6         -5.7554    1.4030   -1.3689 N.2       1 ATP        -0.8215
     28 N1         -3.6267    2.1218   -2.1949 N.pl3     1 ATP        -0.8455
     29 C2         -2.2761    1.8558   -2.3521 C.ar      1 ATP         0.6477
     30 N3         -1.6453    0.7881   -1.9466 N.2       1 ATP        -0.5707
     31 C4         -2.4722   -0.1108   -1.3117 C.ar      1 ATP         0.2637
     32 HOG3       -3.4432   -6.0748    8.7318 H         1 ATP         0.4378
     33 H5'1       -0.9348   -4.9415    1.9415 H         1 ATP         0.0340
     34 H5'2       -1.7548   -3.4350    2.4278 H         1 ATP         0.0340
     35 H4'         0.8874   -3.6466    0.8805 H         1 ATP         0.0910
     36 H3'        -0.7376   -1.2333    1.9867 H         1 ATP         0.0656
     37 HO3'        1.1626   -1.9325    3.0084 H         1 ATP         0.4386
     38 H2'        -0.0384   -0.0310    0.0096 H         1 ATP         0.0788
     39 HO2'        2.1463   -0.7958    0.0370 H         1 ATP         0.4363
     40 H1'        -0.4769   -2.1002   -1.8093 H         1 ATP         0.1225
     41 H8         -3.2547   -2.8183    0.2325 H         1 ATP         0.3824
     42 HN62       -6.0352    2.3041   -1.7656 H         1 ATP         0.4018
     43 H2         -1.7412    2.6624   -2.8773 H         1 ATP         0.0652
     44 H44        -4.0029    2.9939   -2.5557 H         1 ATP         0.4503
     45 H45        -5.2179   -1.2649   -0.1322 H         1 ATP         0.5209
@<TRIPOS>BOND
     1    1    2 2
     2    1    3 1
     3    1    4 1
     4    1    8 1
     5    4   32 1
     6    5    6 2
     7    5    7 1
     8    5    8 1
     9    5   12 1
    10    9   10 2
    11    9   11 1
    12    9   12 1
    13    9   13 1
    14   13   14 1
    15   14   15 1
    16   14   33 1
    17   14   34 1
    18   15   16 1
    19   15   17 1
    20   15   35 1
    21   16   21 1
    22   17   18 1
    23   17   19 1
    24   17   36 1
    25   18   37 1
    26   19   20 1
    27   19   21 1
    28   19   38 1
    29   20   39 1
    30   21   22 1
    31   21   40 1
    32   22   23 ar
    33   22   31 ar
    34   23   24 ar
    35   23   41 1
    36   24   25 ar
    37   24   45 1
    38   25   26 ar
    39   25   31 ar
    40   26   27 2
    41   26   28 ar
    42   27   42 1
    43   28   29 ar
    44   28   44 1
    45   29   30 ar
    46   29   43 1
    47   30   31 ar
@<TRIPOS>SUBSTRUCTURE
     1 ATP         1 GROUP 0 A     ****
@<TRIPOS>MOLECULE
[[[3,4-dihydroxy-5-(6-imino-7,8-dihydro-1~{H}-purin-8-ylium-9-yl)tetrahydrofuran-2-yl]methoxy-oxido-phosphoryl]oxy-oxido-phosphoryl] hydrogen phosphate
   45    47     1     0     0
SMALL
USER_CHARGES

@<TRIPOS>ATOM
      1 PG         -2.6416   -7.8872    5.4395 P.3       1 ATP         1.5631
      2 O1G        -2.7258   -6.3815    5.3241 O.co2     1 ATP        -0.8806
      3 O2G        -2.0785   -8.5413    6.6816 O.co2     1 ATP        -0.8806
      4 O3G        -4.1215   -8.5132    5.1495 O.3       1 ATP        -0.8165
      5 PB         -0.3069   -8.3003    3.6725 P.3       1 ATP         1.6877
      6 O1B         0.5872   -8.7044    4.8235 O.co2     1 ATP        -0.8727
      7 O2B        -0.1352   -8.9057    2.2972 O.co2     1 ATP        -0.8727
      8 O3B        -1.8636   -8.4775    4.1318 O.3       1 ATP        -0.8330
      9 PA          0.9415   -5.6779    3.1070 P.3       1 ATP         1.6036
     10 O1A         1.3040   -5.9465    1.6625 O.co2     1 ATP        -0.9062
     11 O2A         1.9963   -5.7256    4.1909 O.co2     1 ATP        -0.9062
     12 O3A        -0.2808   -6.6738    3.5358 O.3       1 ATP        -0.8166
     13 O5'         0.1618   -4.2444    3.2161 O.3       1 ATP        -0.5510
     14 C5'        -0.7840   -3.8935    2.2172 C.3       1 ATP         0.2099
     15 C4'        -0.0724   -3.1466    1.1027 C.3       1 ATP         0.0598
     16 O4'        -0.8674   -3.1929   -0.0945 O.3       1 ATP        -0.3455
     17 C3'         0.1338   -1.6715    1.4027 C.3       1 ATP         0.0742
     18 O3'         1.2893   -1.4445    2.1808 O.3       1 ATP        -0.6025
     19 C2'         0.2158   -1.0724    0.0128 C.3       1 ATP         0.1145
     20 O2'         1.5141   -1.2448   -0.5513 O.3       1 ATP        -0.5835
     21 C1'        -0.7897   -1.9176   -0.7583 C.3       1 ATP         0.3776
     22 N9         -2.1040   -1.3333   -0.7704 N.pl3     1 ATP        -0.4429
     23 C8         -3.0590   -1.5123    0.1363 C.ar      1 ATP         0.2964
     24 N7         -4.1655   -0.8354   -0.1554 N.pl3     1 ATP        -0.4957
     25 C5         -3.8852   -0.1874   -1.3253 C.ar      1 ATP        -0.1346
     26 C6         -4.7113    0.7160   -2.1458 C.ar      1 ATP         0.7213
     27 N6         -5.9213    1.0209   -1.8021 N.2       1 ATP        -0.8215
     28 N1         -4.0411    1.1673   -3.2764 N.pl3     1 ATP        -0.8455
     29 C2         -2.7403    0.7865   -3.5638 C.ar      1 ATP         0.6477
     30 N3         -1.9921   -0.0108   -2.8519 N.2       1 ATP        -0.5707
     31 C4         -2.6302   -0.4747   -1.7239 C.ar      1 ATP         0.2637
     32 HOG3       -4.2320   -9.4872    5.1873 H         1 ATP         0.4378
     33 H5'1       -1.2460   -4.8076    1.8325 H         1 ATP         0.0340
     34 H5'2       -1.5566   -3.2641    2.6688 H         1 ATP         0.0340
     35 H4'         0.8874   -3.6466    0.8805 H         1 ATP         0.0910
     36 H3'        -0.7376   -1.2333    1.9867 H         1 ATP         0.0656
     37 HO3'        1.3408   -0.4870    2.3219 H         1 ATP         0.4386
     38 H2'        -0.0384   -0.0310    0.0096 H         1 ATP         0.0788
     39 HO2'        2.1463   -0.7958    0.0370 H         1 ATP         0.4363
     40 H1'        -0.4769   -2.1002   -1.8093 H         1 ATP         0.1225
     41 H8         -2.9569   -2.1323    1.0098 H         1 ATP         0.3824
     42 HN62       -6.3169    1.6552   -2.5012 H         1 ATP         0.4018
     43 H2         -2.3612    1.2343   -4.4957 H         1 ATP         0.0652
     44 H44        -4.5223    1.7976   -3.9117 H         1 ATP         0.4503
     45 H45        -5.0218   -0.8132    0.3804 H         1 ATP         0.5209
@<TRIPOS>BOND
     1    1    2 2
     2    1    3 1
     3    1    4 1
     4    1    8 1
     5    4   32 1
     6    5    6 2
     7    5    7 1
     8    5    8 1
     9    5   12 1
    10    9   10 2
    11    9   11 1
    12    9   12 1
    13    9   13 1
    14   13   14 1
    15   14   15 1
    16   14   33 1
    17   14   34 1
    18   15   16 1
    19   15   17 1
    20   15   35 1
    21   16   21 1
    22   17   18 1
    23   17   19 1
    24   17   36 1
    25   18   37 1
    26   19   20 1
    27   19   21 1
    28   19   38 1
    29   20   39 1
    30   21   22 1
    31   21   40 1
    32   22   23 ar
    33   22   31 ar
    34   23   24 ar
    35   23   41 1
    36   24   25 ar
    37   24   45 1
    38   25   26 ar
    39   25   31 ar
    40   26   27 2
    41   26   28 ar
    42   27   42 1
    43   28   29 ar
    44   28   44 1
    45   29   30 ar
    46   29   43 1
    47   30   31 ar
@<TRIPOS>SUBSTRUCTURE
     1 ATP         1 GROUP 0 A     ****
@<TRIPOS>MOLECULE
[[[3,4-dihydroxy-5-(6-imino-7,8-dihydro-1~{H}-purin-8-ylium-9-yl)tetrahydrofuran-2-yl]methoxy-oxido-phosphoryl]oxy-oxido-phosphoryl] hydrogen phosphate
   45    47     1     0     0
SMALL
USER_CHARGES

@<TRIPOS>ATOM
      1 PG         -1.6070   -9.9941    5.6910 P.3       1 ATP         1.5631
      2 O1G        -0.3518  -10.2334    6.5002 O.co2     1 ATP        -0.8806
      3 O2G        -2.1182  -11.0376    4.7227 O.co2     1 ATP        -0.8806
      4 O3G        -2.8166   -9.5997    6.7143 O.3       1 ATP        -0.8165
      5 PB         -1.1169   -7.0849    5.4919 P.3       1 ATP         1.6877
      6 O1B        -2.2539   -6.6285    6.3786 O.co2     1 ATP        -0.8727
      7 O2B         0.3116   -7.0875    5.9889 O.co2     1 ATP        -0.8727
      8 O3B        -1.4709   -8.5682    4.9087 O.3       1 ATP        -0.8330
      9 PA         -0.3072   -6.4376    2.7205 P.3       1 ATP         1.6036
     10 O1A        -0.6428   -7.7790    2.1053 O.co2     1 ATP        -0.9062
     11 O2A         1.1276   -6.0607    3.0189 O.co2     1 ATP        -0.9062
     12 O3A        -1.1816   -6.2536    4.0885 O.3       1 ATP        -0.8166
     13 O5'        -0.9724   -5.2440    1.8220 O.3       1 ATP        -0.5510
     14 C5'        -0.7840   -3.8935    2.2172 C.3       1 ATP         0.2099
     15 C4'        -0.0724   -3.1466    1.1027 C.3       1 ATP         0.0598
     16 O4'        -0.8674   -3.1929   -0.0945 O.3       1 ATP        -0.3455
     17 C3'         0.1338   -1.6715    1.4027 C.3       1 ATP         0.0742
     18 O3'         1.2893   -1.4445    2.1808 O.3       1 ATP        -0.6025
     19 C2'         0.2158   -1.0724    0.0128 C.3       1 ATP         0.1145
     20 O2'         1.5141   -1.2448   -0.5513 O.3       1 ATP        -0.5835
     21 C1'        -0.7897   -1.9176   -0.7583 C.3       1 ATP         0.3776
     22 N9         -2.1040   -1.3333   -0.7704 N.pl3     1 ATP        -0.4429
     23 C8         -3.0590   -1.5123    0.1363 C.ar      1 ATP         0.2964
     24 N7         -4.1655   -0.8354   -0.1554 N.pl3     1 ATP        -0.4957
     25 C5         -3.8852   -0.1874   -1.3253 C.ar      1 ATP        -0.1346
     26 C6         -4.7113    0.7160   -2.1458 C.ar      1 ATP         0.7213
     27 N6         -5.9213    1.0209   -1.8021 N.2       1 ATP        -0.8215
     28 N1         -4.0411    1.1673   -3.2764 N.pl3     1 ATP        -0.8455
     29 C2         -2.7403    0.7865   -3.5638 C.ar      1 ATP         0.6477
     30 N3         -1.9921   -0.0108   -2.8519 N.2       1 ATP        -0.5707
     31 C4         -2.6302   -0.4747   -1.7239 C.ar      1 ATP         0.2637
     32 HOG3       -3.7034   -9.4128    6.3390 H         1 ATP         0.4378
     33 H5'1       -1.7618   -3.4448    2.4164 H         1 ATP         0.0340
     34 H5'2       -0.1874   -3.8744    3.1341 H         1 ATP         0.0340
     35 H4'         0.8874   -3.6466    0.8805 H         1 ATP         0.0910
     36 H3'        -0.7376   -1.2333    1.9867 H         1 ATP         0.0656
     37 HO3'        1.3408   -0.4870    2.3219 H         1 ATP         0.4386
     38 H2'        -0.0384   -0.0310    0.0096 H         1 ATP         0.0788
     39 HO2'        1.6843   -2.2021   -0.5965 H         1 ATP         0.4363
     40 H1'        -0.4769   -2.1002   -1.8093 H         1 ATP         0.1225
     41 H8         -2.9569   -2.1323    1.0098 H         1 ATP         0.3824
     42 HN62       -6.3169    1.6552   -2.5012 H         1 ATP         0.4018
     43 H2         -2.3612    1.2343   -4.4957 H         1 ATP         0.0652
     44 H44        -4.5223    1.7976   -3.9117 H         1 ATP         0.4503
     45 H45        -5.0218   -0.8132    0.3804 H         1 ATP         0.5209
@<TRIPOS>BOND
     1    1    2 2
     2    1    3 1
     3    1    4 1
     4    1    8 1
     5    4   32 1
     6    5    6 2
     7    5    7 1
     8    5    8 1
     9    5   12 1
    10    9   10 2
    11    9   11 1
    12    9   12 1
    13    9   13 1
    14   13   14 1
    15   14   15 1
    16   14   33 1
    17   14   34 1
    18   15   16 1
    19   15   17 1
    20   15   35 1
    21   16   21 1
    22   17   18 1
    23   17   19 1
    24   17   36 1
    25   18   37 1
    26   19   20 1
    27   19   21 1
    28   19   38 1
    29   20   39 1
    30   21   22 1
    31   21   40 1
    32   22   23 ar
    33   22   31 ar
    34   23   24 ar
    35   23   41 1
    36   24   25 ar
    37   24   45 1
    38   25   26 ar
    39   25   31 ar
    40   26   27 2
    41   26   28 ar
    42   27   42 1
    43   28   29 ar
    44   28   44 1
    45   29   30 ar
    46   29   43 1
    47   30   31 ar
@<TRIPOS>SUBSTRUCTURE
     1 ATP         1 GROUP 0 A     ****
@<TRIPOS>MOLECULE
[[[3,4-dihydroxy-5-(6-imino-7,8-dihydro-1~{H}-purin-8-ylium-9-yl)tetrahydrofuran-2-yl]methoxy-oxido-phosphoryl]oxy-oxido-phosphoryl] hydrogen phosphate
   45    47     1     0     0
SMALL
USER_CHARGES

@<TRIPOS>ATOM
      1 PG          6.8110    1.6914    0.3893 P.3       1 ATP         1.5631
      2 O1G         5.3402    2.0287    0.2871 O.co2     1 ATP        -0.8806
      3 O2G         7.8661    2.6587   -0.0994 O.co2     1 ATP        -0.8806
      4 O3G         7.1463    1.2973    1.9379 O.3       1 ATP        -0.8165
      5 PB          6.9461   -0.2229   -1.8604 P.3       1 ATP         1.6877
      6 O1B         7.7755    0.7161   -2.7076 O.co2     1 ATP        -0.8727
      7 O2B         7.1297   -1.7218   -1.9435 O.co2     1 ATP        -0.8727
      8 O3B         7.0706    0.2339   -0.2979 O.3       1 ATP        -0.8330
      9 PA          4.4374   -0.0466   -3.4193 P.3       1 ATP         1.6036
     10 O1A         4.3033   -1.5210   -3.7328 O.co2     1 ATP        -0.9062
     11 O2A         4.9277    0.9261   -4.4696 O.co2     1 ATP        -0.9062
     12 O3A         5.3672    0.1247   -2.0867 O.3       1 ATP        -0.8166
     13 O5'         3.0213    0.5153   -2.8245 O.3       1 ATP        -0.5510
     14 C5'         2.2816   -0.2918   -1.9206 C.3       1 ATP         0.2099
     15 C4'         2.7248    0.0226   -0.4980 C.3       1 ATP         0.0598
     16 O4'         2.4697    1.4219   -0.2462 O.3       1 ATP        -0.3455
     17 C3'         1.9404   -0.7419    0.5596 C.3       1 ATP         0.0742
     18 O3'         2.7418   -0.8086    1.7389 O.3       1 ATP        -0.6025
     19 C2'         0.7477    0.1630    0.7858 C.3       1 ATP         0.1145
     20 O2'         0.1373   -0.0577    2.0407 O.3       1 ATP        -0.5835
     21 C1'         1.3733    1.5427    0.6747 C.3       1 ATP         0.3776
     22 N9          0.4520    2.5240    0.1767 N.pl3     1 ATP        -0.4429
     23 C8         -0.8620    2.5492    0.3743 C.ar      1 ATP         0.2964
     24 N7         -1.4419    3.5886   -0.2183 N.pl3     1 ATP        -0.4957
     25 C5         -0.4215    4.2614   -0.8294 C.ar      1 ATP        -0.1346
     26 C6         -0.4310    5.4918   -1.6405 C.ar      1 ATP         0.7213
     27 N6         -1.5302    6.1308   -1.8826 N.2       1 ATP        -0.8215
     28 N1          0.8382    5.8461   -2.0817 N.pl3     1 ATP        -0.8455
     29 C2          1.9625    5.0982   -1.7709 C.ar      1 ATP         0.6477
     30 N3          1.9930    4.0077   -1.0554 N.2       1 ATP        -0.5707
     31 C4          0.7483    3.6314   -0.6038 C.ar      1 ATP         0.2637
     32 HOG3        8.0677    1.0514    2.1680 H         1 ATP         0.4378
     33 H5'1        1.2163   -0.0770   -2.0471 H         1 ATP         0.0340
     34 H5'2        2.4655   -1.3443   -2.1563 H         1 ATP         0.0340
     35 H4'         3.8044   -0.1397   -0.4040 H         1 ATP         0.0910
     36 H3'         1.6764   -1.7639    0.2728 H         1 ATP         0.0656
     37 HO3'        2.2232   -1.2979    2.3953 H         1 ATP         0.4386
     38 H2'        -0.0011    0.0027    0.0003 H         1 ATP         0.0788
     39 HO2'       -0.1563   -0.9855    2.0596 H         1 ATP         0.4363
     40 H1'         1.7826    1.9024    1.6451 H         1 ATP         0.1225
     41 H8         -1.4030    1.8165    0.9473 H         1 ATP         0.3824
     42 HN62       -1.3197    6.9504   -2.4583 H         1 ATP         0.4018
     43 H2          2.8857    5.5186   -2.1994 H         1 ATP         0.0652
     44 H44         0.9433    6.6815   -2.6502 H         1 ATP         0.4503
     45 H45        -2.4254    3.8199   -0.2108 H         1 ATP         0.5209
@<TRIPOS>BOND
     1    1    2 2
     2    1    3 1
     3    1    4 1
     4    1    8 1
     5    4   32 1
     6    5    6 2
     7    5    7 1
     8    5    8 1
     9    5   12 1
    10    9   10 2
    11    9   11 1
    12    9   12 1
    13    9   13 1
    14   13   14 1
    15   14   15 1
    16   14   33 1
    17   14   34 1
    18   15   16 1
    19   15   17 1
    20   15   35 1
    21   16   21 1
    22   17   18 1
    23   17   19 1
    24   17   36 1
    25   18   37 1
    26   19   20 1
    27   19   21 1
    28   19   38 1
    29   20   39 1
    30   21   22 1
    31   21   40 1
    32   22   23 ar
    33   22   31 ar
    34   23   24 ar
    35   23   41 1
    36   24   25 ar
    37   24   45 1
    38   25   26 ar
    39   25   31 ar
    40   26   27 2
    41   26   28 ar
    42   27   42 1
    43   28   29 ar
    44   28   44 1
    45   29   30 ar
    46   29   43 1
    47   30   31 ar
@<TRIPOS>SUBSTRUCTURE
     1 ATP         1 GROUP 0 A     ****
@<TRIPOS>MOLECULE
[[[3,4-dihydroxy-5-(6-imino-7,8-dihydro-1~{H}-purin-8-ylium-9-yl)tetrahydrofuran-2-yl]methoxy-oxido-phosphoryl]oxy-oxido-phosphoryl] hydrogen phosphate
   45    47     1     0     0
SMALL
USER_CHARGES

@<TRIPOS>ATOM
      1 PG          3.8254   -7.0341    5.2444 P.3       1 ATP         1.5631
      2 O1G         4.8949   -6.1331    4.6685 O.co2     1 ATP        -0.8806
      3 O2G         3.9897   -8.5377    5.2384 O.co2     1 ATP        -0.8806
      4 O3G         3.5095   -6.5532    6.7724 O.3       1 ATP        -0.8165
      5 PB          0.8909   -7.1973    4.9189 P.3       1 ATP         1.6877
      6 O1B         0.8094   -8.6655    4.5651 O.co2     1 ATP        -0.8727
      7 O2B         0.5084   -6.7008    6.2953 O.co2     1 ATP        -0.8727
      8 O3B         2.3902   -6.6562    4.5652 O.3       1 ATP        -0.8330
      9 PA          0.1830   -6.3463    2.1748 P.3       1 ATP         1.6036
     10 O1A        -0.2401   -7.7040    1.6570 O.co2     1 ATP        -0.9062
     11 O2A         1.5263   -5.7595    1.7994 O.co2     1 ATP        -0.9062
     12 O3A         0.0586   -6.3434    3.8040 O.3       1 ATP        -0.8166
     13 O5'        -0.9724   -5.2440    1.8220 O.3       1 ATP        -0.5510
     14 C5'        -0.7840   -3.8935    2.2172 C.3       1 ATP         0.2099
     15 C4'        -0.0724   -3.1466    1.1027 C.3       1 ATP         0.0598
     16 O4'        -0.8674   -3.1929   -0.0945 O.3       1 ATP        -0.3455
     17 C3'         0.1338   -1.6715    1.4027 C.3       1 ATP         0.0742
     18 O3'         1.2893   -1.4445    2.1808 O.3       1 ATP        -0.6025
     19 C2'         0.2158   -1.0724    0.0128 C.3       1 ATP         0.1145
     20 O2'         1.5141   -1.2448   -0.5513 O.3       1 ATP        -0.5835
     21 C1'        -0.7897   -1.9176   -0.7583 C.3       1 ATP         0.3776
     22 N9         -2.1040   -1.3333   -0.7704 N.pl3     1 ATP        -0.4429
     23 C8         -3.0590   -1.5123    0.1363 C.ar      1 ATP         0.2964
     24 N7         -4.1655   -0.8354   -0.1554 N.pl3     1 ATP        -0.4957
     25 C5         -3.8852   -0.1874   -1.3253 C.ar      1 ATP        -0.1346
     26 C6         -4.7113    0.7160   -2.1458 C.ar      1 ATP         0.7213
     27 N6         -5.9213    1.0209   -1.8021 N.2       1 ATP        -0.8215
     28 N1         -4.0411    1.1673   -3.2764 N.pl3     1 ATP        -0.8455
     29 C2         -2.7403    0.7865   -3.5638 C.ar      1 ATP         0.6477
     30 N3         -1.9921   -0.0108   -2.8519 N.2       1 ATP        -0.5707
     31 C4         -2.6302   -0.4747   -1.7239 C.ar      1 ATP         0.2637
     32 HOG3        2.8317   -7.0428    7.2853 H         1 ATP         0.4378
     33 H5'1       -1.7618   -3.4448    2.4164 H         1 ATP         0.0340
     34 H5'2       -0.1874   -3.8744    3.1341 H         1 ATP         0.0340
     35 H4'         0.8874   -3.6466    0.8805 H         1 ATP         0.0910
     36 H3'        -0.7376   -1.2333    1.9867 H         1 ATP         0.0656
     37 HO3'        1.1626   -1.9325    3.0084 H         1 ATP         0.4386
     38 H2'        -0.0384   -0.0310    0.0096 H         1 ATP         0.0788
     39 HO2'        1.4998   -0.8412   -1.4369 H         1 ATP         0.4363
     40 H1'        -0.4769   -2.1002   -1.8093 H         1 ATP         0.1225
     41 H8         -2.9569   -2.1323    1.0098 H         1 ATP         0.3824
     42 HN62       -6.3169    1.6552   -2.5012 H         1 ATP         0.4018
     43 H2         -2.3612    1.2343   -4.4957 H         1 ATP         0.0652
     44 H44        -4.5223    1.7976   -3.9117 H         1 ATP         0.4503
     45 H45        -5.0218   -0.8132    0.3804 H         1 ATP         0.5209
@<TRIPOS>BOND
     1    1    2 2
     2    1    3 1
     3    1    4 1
     4    1    8 1
     5    4   32 1
     6    5    6 2
     7    5    7 1
     8    5    8 1
     9    5   12 1
    10    9   10 2
    11    9   11 1
    12    9   12 1
    13    9   13 1
    14   13   14 1
    15   14   15 1
    16   14   33 1
    17   14   34 1
    18   15   16 1
    19   15   17 1
    20   15   35 1
    21   16   21 1
    22   17   18 1
    23   17   19 1
    24   17   36 1
    25   18   37 1
    26   19   20 1
    27   19   21 1
    28   19   38 1
    29   20   39 1
    30   21   22 1
    31   21   40 1
    32   22   23 ar
    33   22   31 ar
    34   23   24 ar
    35   23   41 1
    36   24   25 ar
    37   24   45 1
    38   25   26 ar
    39   25   31 ar
    40   26   27 2
    41   26   28 ar
    42   27   42 1
    43   28   29 ar
    44   28   44 1
    45   29   30 ar
    46   29   43 1
    47   30   31 ar
@<TRIPOS>SUBSTRUCTURE
     1 ATP         1 GROUP 0 A     ****
@<TRIPOS>MOLECULE
[[[3,4-dihydroxy-5-(6-imino-7,8-dihydro-1~{H}-purin-8-ylium-9-yl)tetrahydrofuran-2-yl]methoxy-oxido-phosphoryl]oxy-oxido-phosphoryl] hydrogen phosphate
   45    47     1     0     0
SMALL
USER_CHARGES

@<TRIPOS>ATOM
      1 PG          3.5441    0.5989   -8.3778 P.3       1 ATP         1.5631
      2 O1G         2.1601    1.0780   -8.7550 O.co2     1 ATP        -0.8806
      3 O2G         4.2826   -0.4006   -9.2400 O.co2     1 ATP        -0.8806
      4 O3G         4.5025    1.9026   -8.1588 O.3       1 ATP        -0.8165
      5 PB          4.7445   -0.4336   -5.8804 P.3       1 ATP         1.6877
      6 O1B         5.3312   -1.7057   -6.4505 O.co2     1 ATP        -0.8727
      7 O2B         5.6181    0.7611   -5.5688 O.co2     1 ATP        -0.8727
      8 O3B         3.5163    0.0523   -6.8402 O.3       1 ATP        -0.8330
      9 PA          4.3707   -1.3832   -3.1031 P.3       1 ATP         1.6036
     10 O1A         5.2187   -0.3290   -2.4250 O.co2     1 ATP        -0.9062
     11 O2A         4.8969   -2.7877   -3.3041 O.co2     1 ATP        -0.9062
     12 O3A         3.8756   -0.8083   -4.5502 O.3       1 ATP        -0.8166
     13 O5'         2.9216   -1.4836   -2.3516 O.3       1 ATP        -0.5510
     14 C5'         2.2816   -0.2918   -1.9206 C.3       1 ATP         0.2099
     15 C4'         2.7248    0.0226   -0.4980 C.3       1 ATP         0.0598
     16 O4'         2.4697    1.4219   -0.2462 O.3       1 ATP        -0.3455
     17 C3'         1.9404   -0.7419    0.5596 C.3       1 ATP         0.0742
     18 O3'         2.7418   -0.8086    1.7389 O.3       1 ATP        -0.6025
     19 C2'         0.7477    0.1630    0.7858 C.3       1 ATP         0.1145
     20 O2'         0.1373   -0.0577    2.0407 O.3       1 ATP        -0.5835
     21 C1'         1.3733    1.5427    0.6747 C.3       1 ATP         0.3776
     22 N9          0.4520    2.5240    0.1767 N.pl3     1 ATP        -0.4429
     23 C8          0.5691    3.2215   -0.9485 C.ar      1 ATP         0.2964
     24 N7         -0.4499    4.0551   -1.1342 N.pl3     1 ATP        -0.4957
     25 C5         -1.2618    3.8674   -0.0512 C.ar      1 ATP        -0.1346
     26 C6         -2.5420    4.5007    0.3120 C.ar      1 ATP         0.7213
     27 N6         -3.0874    5.3993   -0.4432 N.2       1 ATP        -0.8215
     28 N1         -3.0494    4.0205    1.5133 N.pl3     1 ATP        -0.8455
     29 C2         -2.3933    3.0527    2.2567 C.ar      1 ATP         0.6477
     30 N3         -1.2611    2.4796    1.9536 N.2       1 ATP        -0.5707
     31 C4         -0.7334    2.9358    0.7669 C.ar      1 ATP         0.2637
     32 HOG3        5.4395    1.7564   -7.9080 H         1 ATP         0.4378
     33 H5'1        2.5589    0.5217   -2.5976 H         1 ATP         0.0340
     34 H5'2        1.1982   -0.4388   -1.9617 H         1 ATP         0.0340
     35 H4'         3.8044   -0.1397   -0.4040 H         1 ATP         0.0910
     36 H3'         1.6764   -1.7639    0.2728 H         1 ATP         0.0656
     37 HO3'        2.2232   -1.2979    2.3953 H         1 ATP         0.4386
     38 H2'        -0.0011    0.0027    0.0003 H         1 ATP         0.0788
     39 HO2'       -0.1563   -0.9855    2.0596 H         1 ATP         0.4363
     40 H1'         1.7826    1.9024    1.6451 H         1 ATP         0.1225
     41 H8          1.3912    3.1285   -1.6365 H         1 ATP         0.3824
     42 HN62       -3.9637    5.7083   -0.0142 H         1 ATP         0.4018
     43 H2         -2.9317    2.7866    3.1796 H         1 ATP         0.0652
     44 H44        -3.9307    4.3923    1.8558 H         1 ATP         0.4503
     45 H45        -0.5835    4.6857   -1.9122 H         1 ATP         0.5209
@<TRIPOS>BOND
     1    1    2 2
     2    1    3 1
     3    1    4 1
     4    1    8 1
     5    4   32 1
     6    5    6 2
     7    5    7 1
     8    5    8 1
     9    5   12 1
    10    9   10 2
    11    9   11 1
    12    9   12 1
    13    9   13 1
    14   13   14 1
    15   14   15 1
    16   14   33 1
    17   14   34 1
    18   15   16 1
    19   15   17 1
    20   15   35 1
    21   16   21 1
    22   17   18 1
    23   17   19 1
    24   17   36 1
    25   18   37 1
    26   19   20 1
    27   19   21 1
    28   19   38 1
    29   20   39 1
    30   21   22 1
    31   21   40 1
    32   22   23 ar
    33   22   31 ar
    34   23   24 ar
    35   23   41 1
    36   24   25 ar
    37   24   45 1
    38   25   26 ar
    39   25   31 ar
    40   26   27 2
    41   26   28 ar
    42   27   42 1
    43   28   29 ar
    44   28   44 1
    45   29   30 ar
    46   29   43 1
    47   30   31 ar
@<TRIPOS>SUBSTRUCTURE
     1 ATP         1 GROUP 0 A     ****
@<TRIPOS>MOLECULE
[[[3,4-dihydroxy-5-(6-imino-7,8-dihydro-1~{H}-purin-8-ylium-9-yl)tetrahydrofuran-2-yl]methoxy-oxido-phosphoryl]oxy-oxido-phosphoryl] hydrogen phosphate
   45    47     1     0     0
SMALL
USER_CHARGES

@<TRIPOS>ATOM
      1 PG         -1.5072  -10.0629    3.3693 P.3       1 ATP         1.5631
      2 O1G        -1.3936  -10.6472    4.7597 O.co2     1 ATP        -0.8806
      3 O2G        -0.8849  -10.7600    2.1800 O.co2     1 ATP        -0.8806
      4 O3G        -3.0852   -9.7957    3.0463 O.3       1 ATP        -0.8165
      5 PB          0.4971   -7.9096    3.6686 P.3       1 ATP         1.6877
      6 O1B         0.8856   -8.1946    5.1022 O.co2     1 ATP        -0.8727
      7 O2B         1.3950   -8.3100    2.5192 O.co2     1 ATP        -0.8727
      8 O3B        -0.9961   -8.5132    3.4011 O.3       1 ATP        -0.8330
      9 PA          1.1153   -5.0160    3.6616 P.3       1 ATP         1.6036
     10 O1A         2.1174   -5.0375    2.5277 O.co2     1 ATP        -0.9062
     11 O2A         1.5758   -4.9109    5.0991 O.co2     1 ATP        -0.9062
     12 O3A         0.1429   -6.3223    3.5280 O.3       1 ATP        -0.8166
     13 O5'         0.0118   -3.8395    3.3916 O.3       1 ATP        -0.5510
     14 C5'        -0.7840   -3.8935    2.2172 C.3       1 ATP         0.2099
     15 C4'        -0.0724   -3.1466    1.1027 C.3       1 ATP         0.0598
     16 O4'        -0.8674   -3.1929   -0.0945 O.3       1 ATP        -0.3455
     17 C3'         0.1338   -1.6715    1.4027 C.3       1 ATP         0.0742
     18 O3'         1.2893   -1.4445    2.1808 O.3       1 ATP        -0.6025
     19 C2'         0.2158   -1.0724    0.0128 C.3       1 ATP         0.1145
     20 O2'         1.5141   -1.2448   -0.5513 O.3       1 ATP        -0.5835
     21 C1'        -0.7897   -1.9176   -0.7583 C.3       1 ATP         0.3776
     22 N9         -2.1040   -1.3333   -0.7704 N.pl3     1 ATP        -0.4429
     23 C8         -3.0590   -1.5123    0.1363 C.ar      1 ATP         0.2964
     24 N7         -4.1655   -0.8354   -0.1554 N.pl3     1 ATP        -0.4957
     25 C5         -3.8852   -0.1874   -1.3253 C.ar      1 ATP        -0.1346
     26 C6         -4.7113    0.7160   -2.1458 C.ar      1 ATP         0.7213
     27 N6         -5.9213    1.0209   -1.8021 N.2       1 ATP        -0.8215
     28 N1         -4.0411    1.1673   -3.2764 N.pl3     1 ATP        -0.8455
     29 C2         -2.7403    0.7865   -3.5638 C.ar      1 ATP         0.6477
     30 N3         -1.9921   -0.0108   -2.8519 N.2       1 ATP        -0.5707
     31 C4         -2.6302   -0.4747   -1.7239 C.ar      1 ATP         0.2637
     32 HOG3       -3.3254   -9.4151    2.1747 H         1 ATP         0.4378
     33 H5'1       -0.9348   -4.9415    1.9415 H         1 ATP         0.0340
     34 H5'2       -1.7548   -3.4350    2.4278 H         1 ATP         0.0340
     35 H4'         0.8874   -3.6466    0.8805 H         1 ATP         0.0910
     36 H3'        -0.7376   -1.2333    1.9867 H         1 ATP         0.0656
     37 HO3'        1.3408   -0.4870    2.3219 H         1 ATP         0.4386
     38 H2'        -0.0384   -0.0310    0.0096 H         1 ATP         0.0788
     39 HO2'        1.4998   -0.8412   -1.4369 H         1 ATP         0.4363
     40 H1'        -0.4769   -2.1002   -1.8093 H         1 ATP         0.1225
     41 H8         -2.9569   -2.1323    1.0098 H         1 ATP         0.3824
     42 HN62       -6.3169    1.6552   -2.5012 H         1 ATP         0.4018
     43 H2         -2.3612    1.2343   -4.4957 H         1 ATP         0.0652
     44 H44        -4.5223    1.7976   -3.9117 H         1 ATP         0.4503
     45 H45        -5.0218   -0.8132    0.3804 H         1 ATP         0.5209
@<TRIPOS>BOND
     1    1    2 2
     2    1    3 1
     3    1    4 1
     4    1    8 1
     5    4   32 1
     6    5    6 2
     7    5    7 1
     8    5    8 1
     9    5   12 1
    10    9   10 2
    11    9   11 1
    12    9   12 1
    13    9   13 1
    14   13   14 1
    15   14   15 1
    16   14   33 1
    17   14   34 1
    18   15   16 1
    19   15   17 1
    20   15   35 1
    21   16   21 1
    22   17   18 1
    23   17   19 1
    24   17   36 1
    25   18   37 1
    26   19   20 1
    27   19   21 1
    28   19   38 1
    29   20   39 1
    30   21   22 1
    31   21   40 1
    32   22   23 ar
    33   22   31 ar
    34   23   24 ar
    35   23   41 1
    36   24   25 ar
    37   24   45 1
    38   25   26 ar
    39   25   31 ar
    40   26   27 2
    41   26   28 ar
    42   27   42 1
    43   28   29 ar
    44   28   44 1
    45   29   30 ar
    46   29   43 1
    47   30   31 ar
@<TRIPOS>SUBSTRUCTURE
     1 ATP         1 GROUP 0 A     ****
@<TRIPOS>MOLECULE
[[[3,4-dihydroxy-5-(6-imino-7,8-dihydro-1~{H}-purin-8-ylium-9-yl)tetrahydrofuran-2-yl]methoxy-oxido-phosphoryl]oxy-oxido-phosphoryl] hydrogen phosphate
   45    47     1     0     0
SMALL
USER_CHARGES

@<TRIPOS>ATOM
      1 PG          2.5433   -5.2786   -1.8809 P.3       1 ATP         1.5631
      2 O1G         1.1995   -4.6154   -1.6762 O.co2     1 ATP        -0.8806
      3 O2G         2.6708   -6.5365   -2.7110 O.co2     1 ATP        -0.8806
      4 O3G         3.5875   -4.1660   -2.4619 O.3       1 ATP        -0.8165
      5 PB          2.7899   -6.5293    0.7871 P.3       1 ATP         1.6877
      6 O1B         2.6237   -7.9257    0.2305 O.co2     1 ATP        -0.8727
      7 O2B         3.6746   -6.2635    1.9847 O.co2     1 ATP        -0.8727
      8 O3B         3.2376   -5.5323   -0.4258 O.3       1 ATP        -0.8330
      9 PA          0.1830   -6.3463    2.1748 P.3       1 ATP         1.6036
     10 O1A         0.7240   -6.0833    3.5635 O.co2     1 ATP        -0.9062
     11 O2A        -0.3378   -7.7150    1.7939 O.co2     1 ATP        -0.9062
     12 O3A         1.3110   -5.9028    1.0790 O.3       1 ATP        -0.8166
     13 O5'        -0.9724   -5.2440    1.8220 O.3       1 ATP        -0.5510
     14 C5'        -0.7840   -3.8935    2.2172 C.3       1 ATP         0.2099
     15 C4'        -0.0724   -3.1466    1.1027 C.3       1 ATP         0.0598
     16 O4'        -0.8674   -3.1929   -0.0945 O.3       1 ATP        -0.3455
     17 C3'         0.1338   -1.6715    1.4027 C.3       1 ATP         0.0742
     18 O3'         1.2893   -1.4445    2.1808 O.3       1 ATP        -0.6025
     19 C2'         0.2158   -1.0724    0.0128 C.3       1 ATP         0.1145
     20 O2'         1.5141   -1.2448   -0.5513 O.3       1 ATP        -0.5835
     21 C1'        -0.7897   -1.9176   -0.7583 C.3       1 ATP         0.3776
     22 N9         -2.1040   -1.3333   -0.7704 N.pl3     1 ATP        -0.4429
     23 C8         -3.0590   -1.5123    0.1363 C.ar      1 ATP         0.2964
     24 N7         -4.1655   -0.8354   -0.1554 N.pl3     1 ATP        -0.4957
     25 C5         -3.8852   -0.1874   -1.3253 C.ar      1 ATP        -0.1346
     26 C6         -4.7113    0.7160   -2.1458 C.ar      1 ATP         0.7213
     27 N6         -5.9213    1.0209   -1.8021 N.2       1 ATP        -0.8215
     28 N1         -4.0411    1.1673   -3.2764 N.pl3     1 ATP        -0.8455
     29 C2         -2.7403    0.7865   -3.5638 C.ar      1 ATP         0.6477
     30 N3         -1.9921   -0.0108   -2.8519 N.2       1 ATP        -0.5707
     31 C4         -2.6302   -0.4747   -1.7239 C.ar      1 ATP         0.2637
     32 HOG3        3.7700   -3.3690   -1.9199 H         1 ATP         0.4378
     33 H5'1       -1.7618   -3.4448    2.4164 H         1 ATP         0.0340
     34 H5'2       -0.1874   -3.8744    3.1341 H         1 ATP         0.0340
     35 H4'         0.8874   -3.6466    0.8805 H         1 ATP         0.0910
     36 H3'        -0.7376   -1.2333    1.9867 H         1 ATP         0.0656
     37 HO3'        1.1626   -1.9325    3.0084 H         1 ATP         0.4386
     38 H2'        -0.0384   -0.0310    0.0096 H         1 ATP         0.0788
     39 HO2'        2.1463   -0.7958    0.0370 H         1 ATP         0.4363
     40 H1'        -0.4769   -2.1002   -1.8093 H         1 ATP         0.1225
     41 H8         -2.9569   -2.1323    1.0098 H         1 ATP         0.3824
     42 HN62       -6.3169    1.6552   -2.5012 H         1 ATP         0.4018
     43 H2         -2.3612    1.2343   -4.4957 H         1 ATP         0.0652
     44 H44        -4.5223    1.7976   -3.9117 H         1 ATP         0.4503
     45 H45        -5.0218   -0.8132    0.3804 H         1 ATP         0.5209
@<TRIPOS>BOND
     1    1    2 2
     2    1    3 1
     3    1    4 1
     4    1    8 1
     5    4   32 1
     6    5    6 2
     7    5    7 1
     8    5    8 1
     9    5   12 1
    10    9   10 2
    11    9   11 1
    12    9   12 1
    13    9   13 1
    14   13   14 1
    15   14   15 1
    16   14   33 1
    17   14   34 1
    18   15   16 1
    19   15   17 1
    20   15   35 1
    21   16   21 1
    22   17   18 1
    23   17   19 1
    24   17   36 1
    25   18   37 1
    26   19   20 1
    27   19   21 1
    28   19   38 1
    29   20   39 1
    30   21   22 1
    31   21   40 1
    32   22   23 ar
    33   22   31 ar
    34   23   24 ar
    35   23   41 1
    36   24   25 ar
    37   24   45 1
    38   25   26 ar
    39   25   31 ar
    40   26   27 2
    41   26   28 ar
    42   27   42 1
    43   28   29 ar
    44   28   44 1
    45   29   30 ar
    46   29   43 1
    47   30   31 ar
@<TRIPOS>SUBSTRUCTURE
     1 ATP         1 GROUP 0 A     ****
@<TRIPOS>MOLECULE
[[[3,4-dihydroxy-5-(6-imino-7,8-dihydro-1~{H}-purin-8-ylium-9-yl)tetrahydrofuran-2-yl]methoxy-oxido-phosphoryl]oxy-oxido-phosphoryl] hydrogen phosphate
   45    47     1     0     0
SMALL
USER_CHARGES

@<TRIPOS>ATOM
      1 PG          1.7625    6.1754   -1.3363 P.3       1 ATP         1.5631
      2 O1G         0.3068    6.4506   -1.6410 O.co2     1 ATP        -0.8806
      3 O2G         2.8455    7.1277   -1.7921 O.co2     1 ATP        -0.8806
      4 O3G         1.9206    5.9420    0.2719 O.3       1 ATP        -0.8165
      5 PB          2.2078    4.0619   -3.3558 P.3       1 ATP         1.6877
      6 O1B         0.8120    4.0428   -3.9378 O.co2     1 ATP        -0.8727
      7 O2B         3.3534    4.7232   -4.0892 O.co2     1 ATP        -0.8727
      8 O3B         2.1354    4.6691   -1.8420 O.3       1 ATP        -0.8330
      9 PA          2.9232    1.2546   -3.9579 P.3       1 ATP         1.6036
     10 O1A         4.1497    1.5454   -4.7954 O.co2     1 ATP        -0.9062
     11 O2A         1.6176    0.8557   -4.6106 O.co2     1 ATP        -0.9062
     12 O3A         2.6393    2.5329   -2.9806 O.3       1 ATP        -0.8166
     13 O5'         3.2903    0.1346   -2.8241 O.3       1 ATP        -0.5510
     14 C5'         2.2816   -0.2918   -1.9206 C.3       1 ATP         0.2099
     15 C4'         2.7248    0.0226   -0.4980 C.3       1 ATP         0.0598
     16 O4'         2.4697    1.4219   -0.2462 O.3       1 ATP        -0.3455
     17 C3'         1.9404   -0.7419    0.5596 C.3       1 ATP         0.0742
     18 O3'         2.7418   -0.8086    1.7389 O.3       1 ATP        -0.6025
     19 C2'         0.7477    0.1630    0.7858 C.3       1 ATP         0.1145
     20 O2'         0.1373   -0.0577    2.0407 O.3       1 ATP        -0.5835
     21 C1'         1.3733    1.5427    0.6747 C.3       1 ATP         0.3776
     22 N9          0.4520    2.5240    0.1767 N.pl3     1 ATP        -0.4429
     23 C8          0.2216    2.8192   -1.0985 C.ar      1 ATP         0.2964
     24 N7         -0.6906    3.7763   -1.2384 N.pl3     1 ATP        -0.4957
     25 C5         -1.0575    4.1037    0.0366 C.ar      1 ATP        -0.1346
     26 C6         -2.0291    5.0943    0.5330 C.ar      1 ATP         0.7213
     27 N6         -2.7093    5.8371   -0.2800 N.2       1 ATP        -0.8215
     28 N1         -2.1051    5.1136    1.9204 N.pl3     1 ATP        -0.8455
     29 C2         -1.3354    4.2774    2.7129 C.ar      1 ATP         0.6477
     30 N3         -0.4707    3.3945    2.2944 N.2       1 ATP        -0.5707
     31 C4         -0.3734    3.3525    0.9220 C.ar      1 ATP         0.2637
     32 HOG3        2.8135    5.7510    0.6304 H         1 ATP         0.4378
     33 H5'1        1.3514    0.2330   -2.1577 H         1 ATP         0.0340
     34 H5'2        2.1280   -1.3678   -2.0460 H         1 ATP         0.0340
     35 H4'         3.8044   -0.1397   -0.4040 H         1 ATP         0.0910
     36 H3'         1.6764   -1.7639    0.2728 H         1 ATP         0.0656
     37 HO3'        3.5554   -1.2733    1.4914 H         1 ATP         0.4386
     38 H2'        -0.0011    0.0027    0.0003 H         1 ATP         0.0788
     39 HO2'       -0.1563   -0.9855    2.0596 H         1 ATP         0.4363
     40 H1'         1.7826    1.9024    1.6451 H         1 ATP         0.1225
     41 H8          0.7125    2.3429   -1.9292 H         1 ATP         0.3824
     42 HN62       -3.3217    6.4517    0.2629 H         1 ATP         0.4018
     43 H2         -1.5188    4.4223    3.7890 H         1 ATP         0.0652
     44 H44        -2.7470    5.7626    2.3665 H         1 ATP         0.4503
     45 H45        -1.0305    4.1680   -2.1054 H         1 ATP         0.5209
@<TRIPOS>BOND
     1    1    2 2
     2    1    3 1
     3    1    4 1
     4    1    8 1
     5    4   32 1
     6    5    6 2
     7    5    7 1
     8    5    8 1
     9    5   12 1
    10    9   10 2
    11    9   11 1
    12    9   12 1
    13    9   13 1
    14   13   14 1
    15   14   15 1
    16   14   33 1
    17   14   34 1
    18   15   16 1
    19   15   17 1
    20   15   35 1
    21   16   21 1
    22   17   18 1
    23   17   19 1
    24   17   36 1
    25   18   37 1
    26   19   20 1
    27   19   21 1
    28   19   38 1
    29   20   39 1
    30   21   22 1
    31   21   40 1
    32   22   23 ar
    33   22   31 ar
    34   23   24 ar
    35   23   41 1
    36   24   25 ar
    37   24   45 1
    38   25   26 ar
    39   25   31 ar
    40   26   27 2
    41   26   28 ar
    42   27   42 1
    43   28   29 ar
    44   28   44 1
    45   29   30 ar
    46   29   43 1
    47   30   31 ar
@<TRIPOS>SUBSTRUCTURE
     1 ATP         1 GROUP 0 A     ****
@<TRIPOS>MOLECULE
[[[3,4-dihydroxy-5-(6-imino-7,8-dihydro-1~{H}-purin-8-ylium-9-yl)tetrahydrofuran-2-yl]methoxy-oxido-phosphoryl]oxy-oxido-phosphoryl] hydrogen phosphate
   45    47     1     0     0
SMALL
USER_CHARGES

@<TRIPOS>ATOM
      1 PG         -2.5826   -2.8254   -4.4160 P.3       1 ATP         1.5631
      2 O1G        -2.8691   -4.2955   -4.6266 O.co2     1 ATP        -0.8806
      3 O2G        -1.8113   -2.0287   -5.4445 O.co2     1 ATP        -0.8806
      4 O3G        -3.9935   -2.0595   -4.1184 O.3       1 ATP        -0.8165
      5 PB         -0.4171   -3.1149   -2.4234 P.3       1 ATP         1.6877
      6 O1B        -0.1802   -2.5286   -1.0495 O.co2     1 ATP        -0.8727
      7 O2B        -0.2816   -4.6001   -2.6754 O.co2     1 ATP        -0.8727
      8 O3B        -1.8805   -2.6249   -2.9563 O.3       1 ATP        -0.8330
      9 PA          2.1372   -2.2718   -3.6563 P.3       1 ATP         1.6036
     10 O1A         2.4977   -1.2667   -4.7287 O.co2     1 ATP        -0.9062
     11 O2A         2.6452   -3.6953   -3.7281 O.co2     1 ATP        -0.9062
     12 O3A         0.5112   -2.3140   -3.5013 O.3       1 ATP        -0.8166
     13 O5'         2.5245   -1.6648   -2.1878 O.3       1 ATP        -0.5510
     14 C5'         2.2816   -0.2918   -1.9206 C.3       1 ATP         0.2099
     15 C4'         2.7248    0.0226   -0.4980 C.3       1 ATP         0.0598
     16 O4'         2.4697    1.4219   -0.2462 O.3       1 ATP        -0.3455
     17 C3'         1.9404   -0.7419    0.5596 C.3       1 ATP         0.0742
     18 O3'         2.7418   -0.8086    1.7389 O.3       1 ATP        -0.6025
     19 C2'         0.7477    0.1630    0.7858 C.3       1 ATP         0.1145
     20 O2'         0.1373   -0.0577    2.0407 O.3       1 ATP        -0.5835
     21 C1'         1.3733    1.5427    0.6747 C.3       1 ATP         0.3776
     22 N9          0.4520    2.5240    0.1767 N.pl3     1 ATP        -0.4429
     23 C8         -0.8620    2.5492    0.3743 C.ar      1 ATP         0.2964
     24 N7         -1.4419    3.5886   -0.2183 N.pl3     1 ATP        -0.4957
     25 C5         -0.4215    4.2614   -0.8294 C.ar      1 ATP        -0.1346
     26 C6         -0.4310    5.4918   -1.6405 C.ar      1 ATP         0.7213
     27 N6         -1.5302    6.1308   -1.8826 N.2       1 ATP        -0.8215
     28 N1          0.8382    5.8461   -2.0817 N.pl3     1 ATP        -0.8455
     29 C2          1.9625    5.0982   -1.7709 C.ar      1 ATP         0.6477
     30 N3          1.9930    4.0077   -1.0554 N.2       1 ATP        -0.5707
     31 C4          0.7483    3.6314   -0.6038 C.ar      1 ATP         0.2637
     32 HOG3       -3.9749   -1.0917   -3.9592 H         1 ATP         0.4378
     33 H5'1        2.8432    0.3119   -2.6398 H         1 ATP         0.0340
     34 H5'2        1.2128   -0.0927   -2.0428 H         1 ATP         0.0340
     35 H4'         3.8044   -0.1397   -0.4040 H         1 ATP         0.0910
     36 H3'         1.6764   -1.7639    0.2728 H         1 ATP         0.0656
     37 HO3'        3.5554   -1.2733    1.4914 H         1 ATP         0.4386
     38 H2'        -0.0011    0.0027    0.0003 H         1 ATP         0.0788
     39 HO2'        0.8082    0.1199    2.7232 H         1 ATP         0.4363
     40 H1'         1.7826    1.9024    1.6451 H         1 ATP         0.1225
     41 H8         -1.4030    1.8165    0.9473 H         1 ATP         0.3824
     42 HN62       -1.3197    6.9504   -2.4583 H         1 ATP         0.4018
     43 H2          2.8857    5.5186   -2.1994 H         1 ATP         0.0652
     44 H44         0.9433    6.6815   -2.6502 H         1 ATP         0.4503
     45 H45        -2.4254    3.8199   -0.2108 H         1 ATP         0.5209
@<TRIPOS>BOND
     1    1    2 2
     2    1    3 1
     3    1    4 1
     4    1    8 1
     5    4   32 1
     6    5    6 2
     7    5    7 1
     8    5    8 1
     9    5   12 1
    10    9   10 2
    11    9   11 1
    12    9   12 1
    13    9   13 1
    14   13   14 1
    15   14   15 1
    16   14   33 1
    17   14   34 1
    18   15   16 1
    19   15   17 1
    20   15   35 1
    21   16   21 1
    22   17   18 1
    23   17   19 1
    24   17   36 1
    25   18   37 1
    26   19   20 1
    27   19   21 1
    28   19   38 1
    29   20   39 1
    30   21   22 1
    31   21   40 1
    32   22   23 ar
    33   22   31 ar
    34   23   24 ar
    35   23   41 1
    36   24   25 ar
    37   24   45 1
    38   25   26 ar
    39   25   31 ar
    40   26   27 2
    41   26   28 ar
    42   27   42 1
    43   28   29 ar
    44   28   44 1
    45   29   30 ar
    46   29   43 1
    47   30   31 ar
@<TRIPOS>SUBSTRUCTURE
     1 ATP         1 GROUP 0 A     ****
@<TRIPOS>MOLECULE
[[[3,4-dihydroxy-5-(6-imino-7,8-dihydro-1~{H}-purin-8-ylium-9-yl)tetrahydrofuran-2-yl]methoxy-oxido-phosphoryl]oxy-oxido-phosphoryl] hydrogen phosphate
   45    47     1     0     0
SMALL
USER_CHARGES

@<TRIPOS>ATOM
      1 PG          5.1649   -4.6531   -0.3263 P.3       1 ATP         1.5631
      2 O1G         5.1395   -3.4702   -1.2684 O.co2     1 ATP        -0.8806
      3 O2G         5.2530   -6.0670   -0.8561 O.co2     1 ATP        -0.8806
      4 O3G         6.3673   -4.4289    0.7554 O.3       1 ATP        -0.8165
      5 PB          3.5194   -5.4590    1.9945 P.3       1 ATP         1.6877
      6 O1B         3.1850   -6.8581    1.5275 O.co2     1 ATP        -0.8727
      7 O2B         4.5564   -5.2188    3.0690 O.co2     1 ATP        -0.8727
      8 O3B         3.8941   -4.5481    0.6924 O.3       1 ATP        -0.8330
      9 PA          1.1153   -5.0160    3.6616 P.3       1 ATP         1.6036
     10 O1A         1.8343   -4.7438    4.9651 O.co2     1 ATP        -0.9062
     11 O2A         0.4525   -6.3525    3.4081 O.co2     1 ATP        -0.9062
     12 O3A         2.1361   -4.7061    2.4240 O.3       1 ATP        -0.8166
     13 O5'         0.0118   -3.8395    3.3916 O.3       1 ATP        -0.5510
     14 C5'        -0.7840   -3.8935    2.2172 C.3       1 ATP         0.2099
     15 C4'        -0.0724   -3.1466    1.1027 C.3       1 ATP         0.0598
     16 O4'        -0.8674   -3.1929   -0.0945 O.3       1 ATP        -0.3455
     17 C3'         0.1338   -1.6715    1.4027 C.3       1 ATP         0.0742
     18 O3'         1.2893   -1.4445    2.1808 O.3       1 ATP        -0.6025
     19 C2'         0.2158   -1.0724    0.0128 C.3       1 ATP         0.1145
     20 O2'         1.5141   -1.2448   -0.5513 O.3       1 ATP        -0.5835
     21 C1'        -0.7897   -1.9176   -0.7583 C.3       1 ATP         0.3776
     22 N9         -2.1040   -1.3333   -0.7704 N.pl3     1 ATP        -0.4429
     23 C8         -3.0590   -1.5123    0.1363 C.ar      1 ATP         0.2964
     24 N7         -4.1655   -0.8354   -0.1554 N.pl3     1 ATP        -0.4957
     25 C5         -3.8852   -0.1874   -1.3253 C.ar      1 ATP        -0.1346
     26 C6         -4.7113    0.7160   -2.1458 C.ar      1 ATP         0.7213
     27 N6         -5.9213    1.0209   -1.8021 N.2       1 ATP        -0.8215
     28 N1         -4.0411    1.1673   -3.2764 N.pl3     1 ATP        -0.8455
     29 C2         -2.7403    0.7865   -3.5638 C.ar      1 ATP         0.6477
     30 N3         -1.9921   -0.0108   -2.8519 N.2       1 ATP        -0.5707
     31 C4         -2.6302   -0.4747   -1.7239 C.ar      1 ATP         0.2637
     32 HOG3        6.5136   -5.1160    1.4400 H         1 ATP         0.4378
     33 H5'1       -0.9348   -4.9415    1.9415 H         1 ATP         0.0340
     34 H5'2       -1.7548   -3.4350    2.4278 H         1 ATP         0.0340
     35 H4'         0.8874   -3.6466    0.8805 H         1 ATP         0.0910
     36 H3'        -0.7376   -1.2333    1.9867 H         1 ATP         0.0656
     37 HO3'        1.1626   -1.9325    3.0084 H         1 ATP         0.4386
     38 H2'        -0.0384   -0.0310    0.0096 H         1 ATP         0.0788
     39 HO2'        2.1463   -0.7958    0.0370 H         1 ATP         0.4363
     40 H1'        -0.4769   -2.1002   -1.8093 H         1 ATP         0.1225
     41 H8         -2.9569   -2.1323    1.0098 H         1 ATP         0.3824
     42 HN62       -6.3169    1.6552   -2.5012 H         1 ATP         0.4018
     43 H2         -2.3612    1.2343   -4.4957 H         1 ATP         0.0652
     44 H44        -4.5223    1.7976   -3.9117 H         1 ATP         0.4503
     45 H45        -5.0218   -0.8132    0.3804 H         1 ATP         0.5209
@<TRIPOS>BOND
     1    1    2 2
     2    1    3 1
     3    1    4 1
     4    1    8 1
     5    4   32 1
     6    5    6 2
     7    5    7 1
     8    5    8 1
     9    5   12 1
    10    9   10 2
    11    9   11 1
    12    9   12 1
    13    9   13 1
    14   13   14 1
    15   14   15 1
    16   14   33 1
    17   14   34 1
    18   15   16 1
    19   15   17 1
    20   15   35 1
    21   16   21 1
    22   17   18 1
    23   17   19 1
    24   17   36 1
    25   18   37 1
    26   19   20 1
    27   19   21 1
    28   19   38 1
    29   20   39 1
    30   21   22 1
    31   21   40 1
    32   22   23 ar
    33   22   31 ar
    34   23   24 ar
    35   23   41 1
    36   24   25 ar
    37   24   45 1
    38   25   26 ar
    39   25   31 ar
    40   26   27 2
    41   26   28 ar
    42   27   42 1
    43   28   29 ar
    44   28   44 1
    45   29   30 ar
    46   29   43 1
    47   30   31 ar
@<TRIPOS>SUBSTRUCTURE
     1 ATP         1 GROUP 0 A     ****
@<TRIPOS>MOLECULE
[[[3,4-dihydroxy-5-(6-imino-7,8-dihydro-1~{H}-purin-8-ylium-9-yl)tetrahydrofuran-2-yl]methoxy-oxido-phosphoryl]oxy-oxido-phosphoryl] hydrogen phosphate
   45    47     1     0     0
SMALL
USER_CHARGES

@<TRIPOS>ATOM
      1 PG         -1.5652   -6.0826    6.9954 P.3       1 ATP         1.5631
      2 O1G        -1.6427   -7.5166    7.4698 O.co2     1 ATP        -0.8806
      3 O2G        -2.3597   -5.6168    5.7956 O.co2     1 ATP        -0.8806
      4 O3G        -1.9046   -5.1006    8.2549 O.3       1 ATP        -0.8165
      5 PB          1.0850   -6.2284    5.6921 P.3       1 ATP         1.6877
      6 O1B         2.3501   -5.4079    5.8090 O.co2     1 ATP        -0.8727
      7 O2B         1.1212   -7.7387    5.7650 O.co2     1 ATP        -0.8727
      8 O3B         0.0014   -5.6776    6.7820 O.3       1 ATP        -0.8330
      9 PA          0.7271   -5.9839    2.7651 P.3       1 ATP         1.6036
     10 O1A         0.7437   -7.4632    2.4464 O.co2     1 ATP        -0.9062
     11 O2A         1.9389   -5.1200    2.4913 O.co2     1 ATP        -0.9062
     12 O3A         0.3000   -5.7884    4.3301 O.3       1 ATP        -0.8166
     13 O5'        -0.5687   -5.2869    2.0510 O.3       1 ATP        -0.5510
     14 C5'        -0.7840   -3.8935    2.2172 C.3       1 ATP         0.2099
     15 C4'        -0.0724   -3.1466    1.1027 C.3       1 ATP         0.0598
     16 O4'        -0.8674   -3.1929   -0.0945 O.3       1 ATP        -0.3455
     17 C3'         0.1338   -1.6715    1.4027 C.3       1 ATP         0.0742
     18 O3'         1.2893   -1.4445    2.1808 O.3       1 ATP        -0.6025
     19 C2'         0.2158   -1.0724    0.0128 C.3       1 ATP         0.1145
     20 O2'         1.5141   -1.2448   -0.5513 O.3       1 ATP        -0.5835
     21 C1'        -0.7897   -1.9176   -0.7583 C.3       1 ATP         0.3776
     22 N9         -2.1040   -1.3333   -0.7704 N.pl3     1 ATP        -0.4429
     23 C8         -3.0590   -1.5123    0.1363 C.ar      1 ATP         0.2964
     24 N7         -4.1655   -0.8354   -0.1554 N.pl3     1 ATP        -0.4957
     25 C5         -3.8852   -0.1874   -1.3253 C.ar      1 ATP        -0.1346
     26 C6         -4.7113    0.7160   -2.1458 C.ar      1 ATP         0.7213
     27 N6         -5.9213    1.0209   -1.8021 N.2       1 ATP        -0.8215
     28 N1         -4.0411    1.1673   -3.2764 N.pl3     1 ATP        -0.8455
     29 C2         -2.7403    0.7865   -3.5638 C.ar      1 ATP         0.6477
     30 N3         -1.9921   -0.0108   -2.8519 N.2       1 ATP        -0.5707
     31 C4         -2.6302   -0.4747   -1.7239 C.ar      1 ATP         0.2637
     32 HOG3       -1.8949   -4.1309    8.1067 H         1 ATP         0.4378
     33 H5'1       -1.8598   -3.6968    2.1850 H         1 ATP         0.0340
     34 H5'2       -0.3933   -3.5903    3.1931 H         1 ATP         0.0340
     35 H4'         0.8874   -3.6466    0.8805 H         1 ATP         0.0910
     36 H3'        -0.7376   -1.2333    1.9867 H         1 ATP         0.0656
     37 HO3'        1.1626   -1.9325    3.0084 H         1 ATP         0.4386
     38 H2'        -0.0384   -0.0310    0.0096 H         1 ATP         0.0788
     39 HO2'        1.6843   -2.2021   -0.5965 H         1 ATP         0.4363
     40 H1'        -0.4769   -2.1002   -1.8093 H         1 ATP         0.1225
     41 H8         -2.9569   -2.1323    1.0098 H         1 ATP         0.3824
     42 HN62       -6.3169    1.6552   -2.5012 H         1 ATP         0.4018
     43 H2         -2.3612    1.2343   -4.4957 H         1 ATP         0.0652
     44 H44        -4.5223    1.7976   -3.9117 H         1 ATP         0.4503
     45 H45        -5.0218   -0.8132    0.3804 H         1 ATP         0.5209
@<TRIPOS>BOND
     1    1    2 2
     2    1    3 1
     3    1    4 1
     4    1    8 1
     5    4   32 1
     6    5    6 2
     7    5    7 1
     8    5    8 1
     9    5   12 1
    10    9   10 2
    11    9   11 1
    12    9   12 1
    13    9   13 1
    14   13   14 1
    15   14   15 1
    16   14   33 1
    17   14   34 1
    18   15   16 1
    19   15   17 1
    20   15   35 1
    21   16   21 1
    22   17   18 1
    23   17   19 1
    24   17   36 1
    25   18   37 1
    26   19   20 1
    27   19   21 1
    28   19   38 1
    29   20   39 1
    30   21   22 1
    31   21   40 1
    32   22   23 ar
    33   22   31 ar
    34   23   24 ar
    35   23   41 1
    36   24   25 ar
    37   24   45 1
    38   25   26 ar
    39   25   31 ar
    40   26   27 2
    41   26   28 ar
    42   27   42 1
    43   28   29 ar
    44   28   44 1
    45   29   30 ar
    46   29   43 1
    47   30   31 ar
@<TRIPOS>SUBSTRUCTURE
     1 ATP         1 GROUP 0 A     ****
@<TRIPOS>MOLECULE
[[[3,4-dihydroxy-5-(6-imino-7,8-dihydro-1~{H}-purin-8-ylium-9-yl)tetrahydrofuran-2-yl]methoxy-oxido-phosphoryl]oxy-oxido-phosphoryl] hydrogen phosphate
   45    47     1     0     0
SMALL
USER_CHARGES

@<TRIPOS>ATOM
      1 PG         -0.7517   -9.2555    4.9655 P.3       1 ATP         1.5631
      2 O1G        -0.2615   -9.5924    6.3561 O.co2     1 ATP        -0.8806
      3 O2G         0.1951   -9.2569    3.7861 O.co2     1 ATP        -0.8806
      4 O3G        -2.0192  -10.2229    4.6139 O.3       1 ATP        -0.8165
      5 PB         -0.9649   -6.3263    5.3082 P.3       1 ATP         1.6877
      6 O1B        -2.0733   -5.3266    5.0643 O.co2     1 ATP        -0.8727
      7 O2B        -0.2032   -6.3481    6.6147 O.co2     1 ATP        -0.8727
      8 O3B        -1.5378   -7.8260    5.0112 O.3       1 ATP        -0.8330
      9 PA          1.1153   -5.0160    3.6616 P.3       1 ATP         1.6036
     10 O1A         1.7973   -5.3763    2.3595 O.co2     1 ATP        -0.9062
     11 O2A         1.9269   -4.6320    4.8795 O.co2     1 ATP        -0.9062
     12 O3A         0.1056   -6.2308    4.0794 O.3       1 ATP        -0.8166
     13 O5'         0.0118   -3.8395    3.3916 O.3       1 ATP        -0.5510
     14 C5'        -0.7840   -3.8935    2.2172 C.3       1 ATP         0.2099
     15 C4'        -0.0724   -3.1466    1.1027 C.3       1 ATP         0.0598
     16 O4'        -0.8674   -3.1929   -0.0945 O.3       1 ATP        -0.3455
     17 C3'         0.1338   -1.6715    1.4027 C.3       1 ATP         0.0742
     18 O3'         1.2893   -1.4445    2.1808 O.3       1 ATP        -0.6025
     19 C2'         0.2158   -1.0724    0.0128 C.3       1 ATP         0.1145
     20 O2'         1.5141   -1.2448   -0.5513 O.3       1 ATP        -0.5835
     21 C1'        -0.7897   -1.9176   -0.7583 C.3       1 ATP         0.3776
     22 N9         -2.1040   -1.3333   -0.7704 N.pl3     1 ATP        -0.4429
     23 C8         -3.2114   -1.8635   -0.2619 C.ar      1 ATP         0.2964
     24 N7         -4.2711   -1.0786   -0.4314 N.pl3     1 ATP        -0.4957
     25 C5         -3.7955    0.0193   -1.0917 C.ar      1 ATP        -0.1346
     26 C6         -4.4862    1.2344   -1.5586 C.ar      1 ATP         0.7213
     27 N6         -5.7554    1.4030   -1.3689 N.2       1 ATP        -0.8215
     28 N1         -3.6267    2.1218   -2.1949 N.pl3     1 ATP        -0.8455
     29 C2         -2.2761    1.8558   -2.3521 C.ar      1 ATP         0.6477
     30 N3         -1.6453    0.7881   -1.9466 N.2       1 ATP        -0.5707
     31 C4         -2.4722   -0.1108   -1.3117 C.ar      1 ATP         0.2637
     32 HOG3       -2.4521  -10.1257    3.7391 H         1 ATP         0.4378
     33 H5'1       -0.9348   -4.9415    1.9415 H         1 ATP         0.0340
     34 H5'2       -1.7548   -3.4350    2.4278 H         1 ATP         0.0340
     35 H4'         0.8874   -3.6466    0.8805 H         1 ATP         0.0910
     36 H3'        -0.7376   -1.2333    1.9867 H         1 ATP         0.0656
     37 HO3'        1.1626   -1.9325    3.0084 H         1 ATP         0.4386
     38 H2'        -0.0384   -0.0310    0.0096 H         1 ATP         0.0788
     39 HO2'        2.1463   -0.7958    0.0370 H         1 ATP         0.4363
     40 H1'        -0.4769   -2.1002   -1.8093 H         1 ATP         0.1225
     41 H8         -3.2547   -2.8183    0.2325 H         1 ATP         0.3824
     42 HN62       -6.0352    2.3041   -1.7656 H         1 ATP         0.4018
     43 H2         -1.7412    2.6624   -2.8773 H         1 ATP         0.0652
     44 H44        -4.0029    2.9939   -2.5557 H         1 ATP         0.4503
     45 H45        -5.2179   -1.2649   -0.1322 H         1 ATP         0.5209
@<TRIPOS>BOND
     1    1    2 2
     2    1    3 1
     3    1    4 1
     4    1    8 1
     5    4   32 1
     6    5    6 2
     7    5    7 1
     8    5    8 1
     9    5   12 1
    10    9   10 2
    11    9   11 1
    12    9   12 1
    13    9   13 1
    14   13   14 1
    15   14   15 1
    16   14   33 1
    17   14   34 1
    18   15   16 1
    19   15   17 1
    20   15   35 1
    21   16   21 1
    22   17   18 1
    23   17   19 1
    24   17   36 1
    25   18   37 1
    26   19   20 1
    27   19   21 1
    28   19   38 1
    29   20   39 1
    30   21   22 1
    31   21   40 1
    32   22   23 ar
    33   22   31 ar
    34   23   24 ar
    35   23   41 1
    36   24   25 ar
    37   24   45 1
    38   25   26 ar
    39   25   31 ar
    40   26   27 2
    41   26   28 ar
    42   27   42 1
    43   28   29 ar
    44   28   44 1
    45   29   30 ar
    46   29   43 1
    47   30   31 ar
@<TRIPOS>SUBSTRUCTURE
     1 ATP         1 GROUP 0 A     ****
@<TRIPOS>MOLECULE
[[[3,4-dihydroxy-5-(6-imino-7,8-dihydro-1~{H}-purin-8-ylium-9-yl)tetrahydrofuran-2-yl]methoxy-oxido-phosphoryl]oxy-oxido-phosphoryl] hydrogen phosphate
   45    47     1     0     0
SMALL
USER_CHARGES

@<TRIPOS>ATOM
      1 PG         -2.0145    1.5224   -6.2247 P.3       1 ATP         1.5631
      2 O1G        -3.1631    2.2580   -5.5711 O.co2     1 ATP        -0.8806
      3 O2G        -2.1996    0.1271   -6.7784 O.co2     1 ATP        -0.8806
      4 O3G        -1.3951    2.4693   -7.4019 O.3       1 ATP        -0.8165
      5 PB          0.0011    2.7711   -4.4580 P.3       1 ATP         1.6877
      6 O1B         0.6742    3.6356   -5.5006 O.co2     1 ATP        -0.8727
      7 O2B        -0.9565    3.3638   -3.4484 O.co2     1 ATP        -0.8727
      8 O3B        -0.7367    1.5235   -5.2095 O.3       1 ATP        -0.8330
      9 PA          2.3336    0.9636   -4.2390 P.3       1 ATP         1.6036
     10 O1A         3.3077    1.8126   -5.0268 O.co2     1 ATP        -0.9062
     11 O2A         1.6934   -0.2581   -4.8612 O.co2     1 ATP        -0.9062
     12 O3A         1.1473    1.9262   -3.6595 O.3       1 ATP        -0.8166
     13 O5'         3.0213    0.5153   -2.8245 O.3       1 ATP        -0.5510
     14 C5'         2.2816   -0.2918   -1.9206 C.3       1 ATP         0.2099
     15 C4'         2.7248    0.0226   -0.4980 C.3       1 ATP         0.0598
     16 O4'         2.4697    1.4219   -0.2462 O.3       1 ATP        -0.3455
     17 C3'         1.9404   -0.7419    0.5596 C.3       1 ATP         0.0742
     18 O3'         2.7418   -0.8086    1.7389 O.3       1 ATP        -0.6025
     19 C2'         0.7477    0.1630    0.7858 C.3       1 ATP         0.1145
     20 O2'         0.1373   -0.0577    2.0407 O.3       1 ATP        -0.5835
     21 C1'         1.3733    1.5427    0.6747 C.3       1 ATP         0.3776
     22 N9          0.4520    2.5240    0.1767 N.pl3     1 ATP        -0.4429
     23 C8         -0.8620    2.5492    0.3743 C.ar      1 ATP         0.2964
     24 N7         -1.4419    3.5886   -0.2183 N.pl3     1 ATP        -0.4957
     25 C5         -0.4215    4.2614   -0.8294 C.ar      1 ATP        -0.1346
     26 C6         -0.4310    5.4918   -1.6405 C.ar      1 ATP         0.7213
     27 N6         -1.5302    6.1308   -1.8826 N.2       1 ATP        -0.8215
     28 N1          0.8382    5.8461   -2.0817 N.pl3     1 ATP        -0.8455
     29 C2          1.9625    5.0982   -1.7709 C.ar      1 ATP         0.6477
     30 N3          1.9930    4.0077   -1.0554 N.2       1 ATP        -0.5707
     31 C4          0.7483    3.6314   -0.6038 C.ar      1 ATP         0.2637
     32 HOG3       -1.0349    3.3474   -7.1537 H         1 ATP         0.4378
     33 H5'1        1.2163   -0.0770   -2.0471 H         1 ATP         0.0340
     34 H5'2        2.4655   -1.3443   -2.1563 H         1 ATP         0.0340
     35 H4'         3.8044   -0.1397   -0.4040 H         1 ATP         0.0910
     36 H3'         1.6764   -1.7639    0.2728 H         1 ATP         0.0656
     37 HO3'        2.2232   -1.2979    2.3953 H         1 ATP         0.4386
     38 H2'        -0.0011    0.0027    0.0003 H         1 ATP         0.0788
     39 HO2'       -0.1563   -0.9855    2.0596 H         1 ATP         0.4363
     40 H1'         1.7826    1.9024    1.6451 H         1 ATP         0.1225
     41 H8         -1.4030    1.8165    0.9473 H         1 ATP         0.3824
     42 HN62       -1.3197    6.9504   -2.4583 H         1 ATP         0.4018
     43 H2          2.8857    5.5186   -2.1994 H         1 ATP         0.0652
     44 H44         0.9433    6.6815   -2.6502 H         1 ATP         0.4503
     45 H45        -2.4254    3.8199   -0.2108 H         1 ATP         0.5209
@<TRIPOS>BOND
     1    1    2 2
     2    1    3 1
     3    1    4 1
     4    1    8 1
     5    4   32 1
     6    5    6 2
     7    5    7 1
     8    5    8 1
     9    5   12 1
    10    9   10 2
    11    9   11 1
    12    9   12 1
    13    9   13 1
    14   13   14 1
    15   14   15 1
    16   14   33 1
    17   14   34 1
    18   15   16 1
    19   15   17 1
    20   15   35 1
    21   16   21 1
    22   17   18 1
    23   17   19 1
    24   17   36 1
    25   18   37 1
    26   19   20 1
    27   19   21 1
    28   19   38 1
    29   20   39 1
    30   21   22 1
    31   21   40 1
    32   22   23 ar
    33   22   31 ar
    34   23   24 ar
    35   23   41 1
    36   24   25 ar
    37   24   45 1
    38   25   26 ar
    39   25   31 ar
    40   26   27 2
    41   26   28 ar
    42   27   42 1
    43   28   29 ar
    44   28   44 1
    45   29   30 ar
    46   29   43 1
    47   30   31 ar
@<TRIPOS>SUBSTRUCTURE
     1 ATP         1 GROUP 0 A     ****
@<TRIPOS>MOLECULE
[[[3,4-dihydroxy-5-(6-imino-7,8-dihydro-1~{H}-purin-8-ylium-9-yl)tetrahydrofuran-2-yl]methoxy-oxido-phosphoryl]oxy-oxido-phosphoryl] hydrogen phosphate
   45    47     1     0     0
SMALL
USER_CHARGES

@<TRIPOS>ATOM
      1 PG          7.0127   -0.4395   -5.4664 P.3       1 ATP         1.5631
      2 O1G         5.7705   -0.1909   -6.2925 O.co2     1 ATP        -0.8806
      3 O2G         7.9236   -1.6095   -5.7651 O.co2     1 ATP        -0.8806
      4 O3G         7.9090    0.9252   -5.4538 O.3       1 ATP        -0.8165
      5 PB          5.6901   -1.5597   -3.0707 P.3       1 ATP         1.6877
      6 O1B         6.2385   -2.9462   -3.3241 O.co2     1 ATP        -0.8727
      7 O2B         5.4748   -1.0475   -1.6640 O.co2     1 ATP        -0.8727
      8 O3B         6.6015   -0.4790   -3.8874 O.3       1 ATP        -0.8330
      9 PA          2.8603   -2.1317   -3.7189 P.3       1 ATP         1.6036
     10 O1A         3.0799   -3.6286   -3.7531 O.co2     1 ATP        -0.9062
     11 O2A         1.8581   -1.4755   -4.6434 O.co2     1 ATP        -0.9062
     12 O3A         4.3010   -1.3849   -3.9101 O.3       1 ATP        -0.8166
     13 O5'         2.5245   -1.6648   -2.1878 O.3       1 ATP        -0.5510
     14 C5'         2.2816   -0.2918   -1.9206 C.3       1 ATP         0.2099
     15 C4'         2.7248    0.0226   -0.4980 C.3       1 ATP         0.0598
     16 O4'         2.4697    1.4219   -0.2462 O.3       1 ATP        -0.3455
     17 C3'         1.9404   -0.7419    0.5596 C.3       1 ATP         0.0742
     18 O3'         2.7418   -0.8086    1.7389 O.3       1 ATP        -0.6025
     19 C2'         0.7477    0.1630    0.7858 C.3       1 ATP         0.1145
     20 O2'         0.1373   -0.0577    2.0407 O.3       1 ATP        -0.5835
     21 C1'         1.3733    1.5427    0.6747 C.3       1 ATP         0.3776
     22 N9          0.4520    2.5240    0.1767 N.pl3     1 ATP        -0.4429
     23 C8          0.5691    3.2215   -0.9485 C.ar      1 ATP         0.2964
     24 N7         -0.4499    4.0551   -1.1342 N.pl3     1 ATP        -0.4957
     25 C5         -1.2618    3.8674   -0.0512 C.ar      1 ATP        -0.1346
     26 C6         -2.5420    4.5007    0.3120 C.ar      1 ATP         0.7213
     27 N6         -3.0874    5.3993   -0.4432 N.2       1 ATP        -0.8215
     28 N1         -3.0494    4.0205    1.5133 N.pl3     1 ATP        -0.8455
     29 C2         -2.3933    3.0527    2.2567 C.ar      1 ATP         0.6477
     30 N3         -1.2611    2.4796    1.9536 N.2       1 ATP        -0.5707
     31 C4         -0.7334    2.9358    0.7669 C.ar      1 ATP         0.2637
     32 HOG3        8.7540    0.9243   -4.9555 H         1 ATP         0.4378
     33 H5'1        2.8432    0.3119   -2.6398 H         1 ATP         0.0340
     34 H5'2        1.2128   -0.0927   -2.0428 H         1 ATP         0.0340
     35 H4'         3.8044   -0.1397   -0.4040 H         1 ATP         0.0910
     36 H3'         1.6764   -1.7639    0.2728 H         1 ATP         0.0656
     37 HO3'        3.5554   -1.2733    1.4914 H         1 ATP         0.4386
     38 H2'        -0.0011    0.0027    0.0003 H         1 ATP         0.0788
     39 HO2'       -0.1563   -0.9855    2.0596 H         1 ATP         0.4363
     40 H1'         1.7826    1.9024    1.6451 H         1 ATP         0.1225
     41 H8          1.3912    3.1285   -1.6365 H         1 ATP         0.3824
     42 HN62       -3.9637    5.7083   -0.0142 H         1 ATP         0.4018
     43 H2         -2.9317    2.7866    3.1796 H         1 ATP         0.0652
     44 H44        -3.9307    4.3923    1.8558 H         1 ATP         0.4503
     45 H45        -0.5835    4.6857   -1.9122 H         1 ATP         0.5209
@<TRIPOS>BOND
     1    1    2 2
     2    1    3 1
     3    1    4 1
     4    1    8 1
     5    4   32 1
     6    5    6 2
     7    5    7 1
     8    5    8 1
     9    5   12 1
    10    9   10 2
    11    9   11 1
    12    9   12 1
    13    9   13 1
    14   13   14 1
    15   14   15 1
    16   14   33 1
    17   14   34 1
    18   15   16 1
    19   15   17 1
    20   15   35 1
    21   16   21 1
    22   17   18 1
    23   17   19 1
    24   17   36 1
    25   18   37 1
    26   19   20 1
    27   19   21 1
    28   19   38 1
    29   20   39 1
    30   21   22 1
    31   21   40 1
    32   22   23 ar
    33   22   31 ar
    34   23   24 ar
    35   23   41 1
    36   24   25 ar
    37   24   45 1
    38   25   26 ar
    39   25   31 ar
    40   26   27 2
    41   26   28 ar
    42   27   42 1
    43   28   29 ar
    44   28   44 1
    45   29   30 ar
    46   29   43 1
    47   30   31 ar
@<TRIPOS>SUBSTRUCTURE
     1 ATP         1 GROUP 0 A     ****
@<TRIPOS>MOLECULE
[[[3,4-dihydroxy-5-(6-imino-7,8-dihydro-1~{H}-purin-8-ylium-9-yl)tetrahydrofuran-2-yl]methoxy-oxido-phosphoryl]oxy-oxido-phosphoryl] hydrogen phosphate
   45    47     1     0     0
SMALL
USER_CHARGES

@<TRIPOS>ATOM
      1 PG          4.9446   -6.6404    2.8091 P.3       1 ATP         1.5631
      2 O1G         5.0022   -6.3651    4.2951 O.co2     1 ATP        -0.8806
      3 O2G         5.9676   -6.0441    1.8679 O.co2     1 ATP        -0.8806
      4 O3G         4.9115   -8.2569    2.5820 O.3       1 ATP        -0.8165
      5 PB          2.7899   -6.5293    0.7871 P.3       1 ATP         1.6877
      6 O1B         3.5006   -5.6477   -0.2155 O.co2     1 ATP        -0.8727
      7 O2B         2.6502   -8.0182    0.5606 O.co2     1 ATP        -0.8727
      8 O3B         3.4496   -6.2835    2.2602 O.3       1 ATP        -0.8330
      9 PA          0.1830   -6.3463    2.1748 P.3       1 ATP         1.6036
     10 O1A         0.7240   -6.0833    3.5635 O.co2     1 ATP        -0.9062
     11 O2A        -0.3378   -7.7150    1.7939 O.co2     1 ATP        -0.9062
     12 O3A         1.3110   -5.9028    1.0790 O.3       1 ATP        -0.8166
     13 O5'        -0.9724   -5.2440    1.8220 O.3       1 ATP        -0.5510
     14 C5'        -0.7840   -3.8935    2.2172 C.3       1 ATP         0.2099
     15 C4'        -0.0724   -3.1466    1.1027 C.3       1 ATP         0.0598
     16 O4'        -0.8674   -3.1929   -0.0945 O.3       1 ATP        -0.3455
     17 C3'         0.1338   -1.6715    1.4027 C.3       1 ATP         0.0742
     18 O3'         1.2893   -1.4445    2.1808 O.3       1 ATP        -0.6025
     19 C2'         0.2158   -1.0724    0.0128 C.3       1 ATP         0.1145
     20 O2'         1.5141   -1.2448   -0.5513 O.3       1 ATP        -0.5835
     21 C1'        -0.7897   -1.9176   -0.7583 C.3       1 ATP         0.3776
     22 N9         -2.1040   -1.3333   -0.7704 N.pl3     1 ATP        -0.4429
     23 C8         -3.0590   -1.5123    0.1363 C.ar      1 ATP         0.2964
     24 N7         -4.1655   -0.8354   -0.1554 N.pl3     1 ATP        -0.4957
     25 C5         -3.8852   -0.1874   -1.3253 C.ar      1 ATP        -0.1346
     26 C6         -4.7113    0.7160   -2.1458 C.ar      1 ATP         0.7213
     27 N6         -5.9213    1.0209   -1.8021 N.2       1 ATP        -0.8215
     28 N1         -4.0411    1.1673   -3.2764 N.pl3     1 ATP        -0.8455
     29 C2         -2.7403    0.7865   -3.5638 C.ar      1 ATP         0.6477
     30 N3         -1.9921   -0.0108   -2.8519 N.2       1 ATP        -0.5707
     31 C4         -2.6302   -0.4747   -1.7239 C.ar      1 ATP         0.2637
     32 HOG3        4.8733   -8.5987    1.6632 H         1 ATP         0.4378
     33 H5'1       -1.7618   -3.4448    2.4164 H         1 ATP         0.0340
     34 H5'2       -0.1874   -3.8744    3.1341 H         1 ATP         0.0340
     35 H4'         0.8874   -3.6466    0.8805 H         1 ATP         0.0910
     36 H3'        -0.7376   -1.2333    1.9867 H         1 ATP         0.0656
     37 HO3'        1.3408   -0.4870    2.3219 H         1 ATP         0.4386
     38 H2'        -0.0384   -0.0310    0.0096 H         1 ATP         0.0788
     39 HO2'        2.1463   -0.7958    0.0370 H         1 ATP         0.4363
     40 H1'        -0.4769   -2.1002   -1.8093 H         1 ATP         0.1225
     41 H8         -2.9569   -2.1323    1.0098 H         1 ATP         0.3824
     42 HN62       -6.3169    1.6552   -2.5012 H         1 ATP         0.4018
     43 H2         -2.3612    1.2343   -4.4957 H         1 ATP         0.0652
     44 H44        -4.5223    1.7976   -3.9117 H         1 ATP         0.4503
     45 H45        -5.0218   -0.8132    0.3804 H         1 ATP         0.5209
@<TRIPOS>BOND
     1    1    2 2
     2    1    3 1
     3    1    4 1
     4    1    8 1
     5    4   32 1
     6    5    6 2
     7    5    7 1
     8    5    8 1
     9    5   12 1
    10    9   10 2
    11    9   11 1
    12    9   12 1
    13    9   13 1
    14   13   14 1
    15   14   15 1
    16   14   33 1
    17   14   34 1
    18   15   16 1
    19   15   17 1
    20   15   35 1
    21   16   21 1
    22   17   18 1
    23   17   19 1
    24   17   36 1
    25   18   37 1
    26   19   20 1
    27   19   21 1
    28   19   38 1
    29   20   39 1
    30   21   22 1
    31   21   40 1
    32   22   23 ar
    33   22   31 ar
    34   23   24 ar
    35   23   41 1
    36   24   25 ar
    37   24   45 1
    38   25   26 ar
    39   25   31 ar
    40   26   27 2
    41   26   28 ar
    42   27   42 1
    43   28   29 ar
    44   28   44 1
    45   29   30 ar
    46   29   43 1
    47   30   31 ar
@<TRIPOS>SUBSTRUCTURE
     1 ATP         1 GROUP 0 A     ****
@<TRIPOS>MOLECULE
[[[3,4-dihydroxy-5-(6-imino-7,8-dihydro-1~{H}-purin-8-ylium-9-yl)tetrahydrofuran-2-yl]methoxy-oxido-phosphoryl]oxy-oxido-phosphoryl] hydrogen phosphate
   45    47     1     0     0
SMALL
USER_CHARGES

@<TRIPOS>ATOM
      1 PG          3.8254   -7.0341    5.2444 P.3       1 ATP         1.5631
      2 O1G         4.1491   -8.4796    4.9389 O.co2     1 ATP        -0.8806
      3 O2G         3.8468   -6.5163    6.6653 O.co2     1 ATP        -0.8806
      4 O3G         4.7884   -6.0828    4.3314 O.3       1 ATP        -0.8165
      5 PB          0.8909   -7.1973    4.9189 P.3       1 ATP         1.6877
      6 O1B         0.8094   -8.6655    4.5651 O.co2     1 ATP        -0.8727
      7 O2B         0.5084   -6.7008    6.2953 O.co2     1 ATP        -0.8727
      8 O3B         2.3902   -6.6562    4.5652 O.3       1 ATP        -0.8330
      9 PA          0.1830   -6.3463    2.1748 P.3       1 ATP         1.6036
     10 O1A        -0.2401   -7.7040    1.6570 O.co2     1 ATP        -0.9062
     11 O2A         1.5263   -5.7595    1.7994 O.co2     1 ATP        -0.9062
     12 O3A         0.0586   -6.3434    3.8040 O.3       1 ATP        -0.8166
     13 O5'        -0.9724   -5.2440    1.8220 O.3       1 ATP        -0.5510
     14 C5'        -0.7840   -3.8935    2.2172 C.3       1 ATP         0.2099
     15 C4'        -0.0724   -3.1466    1.1027 C.3       1 ATP         0.0598
     16 O4'        -0.8674   -3.1929   -0.0945 O.3       1 ATP        -0.3455
     17 C3'         0.1338   -1.6715    1.4027 C.3       1 ATP         0.0742
     18 O3'         1.2893   -1.4445    2.1808 O.3       1 ATP        -0.6025
     19 C2'         0.2158   -1.0724    0.0128 C.3       1 ATP         0.1145
     20 O2'         1.5141   -1.2448   -0.5513 O.3       1 ATP        -0.5835
     21 C1'        -0.7897   -1.9176   -0.7583 C.3       1 ATP         0.3776
     22 N9         -2.1040   -1.3333   -0.7704 N.pl3     1 ATP        -0.4429
     23 C8         -3.0590   -1.5123    0.1363 C.ar      1 ATP         0.2964
     24 N7         -4.1655   -0.8354   -0.1554 N.pl3     1 ATP        -0.4957
     25 C5         -3.8852   -0.1874   -1.3253 C.ar      1 ATP        -0.1346
     26 C6         -4.7113    0.7160   -2.1458 C.ar      1 ATP         0.7213
     27 N6         -5.9213    1.0209   -1.8021 N.2       1 ATP        -0.8215
     28 N1         -4.0411    1.1673   -3.2764 N.pl3     1 ATP        -0.8455
     29 C2         -2.7403    0.7865   -3.5638 C.ar      1 ATP         0.6477
     30 N3         -1.9921   -0.0108   -2.8519 N.2       1 ATP        -0.5707
     31 C4         -2.6302   -0.4747   -1.7239 C.ar      1 ATP         0.2637
     32 HOG3        4.7326   -6.1618    3.3552 H         1 ATP         0.4378
     33 H5'1       -1.7618   -3.4448    2.4164 H         1 ATP         0.0340
     34 H5'2       -0.1874   -3.8744    3.1341 H         1 ATP         0.0340
     35 H4'         0.8874   -3.6466    0.8805 H         1 ATP         0.0910
     36 H3'        -0.7376   -1.2333    1.9867 H         1 ATP         0.0656
     37 HO3'        1.3408   -0.4870    2.3219 H         1 ATP         0.4386
     38 H2'        -0.0384   -0.0310    0.0096 H         1 ATP         0.0788
     39 HO2'        2.1463   -0.7958    0.0370 H         1 ATP         0.4363
     40 H1'        -0.4769   -2.1002   -1.8093 H         1 ATP         0.1225
     41 H8         -2.9569   -2.1323    1.0098 H         1 ATP         0.3824
     42 HN62       -6.3169    1.6552   -2.5012 H         1 ATP         0.4018
     43 H2         -2.3612    1.2343   -4.4957 H         1 ATP         0.0652
     44 H44        -4.5223    1.7976   -3.9117 H         1 ATP         0.4503
     45 H45        -5.0218   -0.8132    0.3804 H         1 ATP         0.5209
@<TRIPOS>BOND
     1    1    2 2
     2    1    3 1
     3    1    4 1
     4    1    8 1
     5    4   32 1
     6    5    6 2
     7    5    7 1
     8    5    8 1
     9    5   12 1
    10    9   10 2
    11    9   11 1
    12    9   12 1
    13    9   13 1
    14   13   14 1
    15   14   15 1
    16   14   33 1
    17   14   34 1
    18   15   16 1
    19   15   17 1
    20   15   35 1
    21   16   21 1
    22   17   18 1
    23   17   19 1
    24   17   36 1
    25   18   37 1
    26   19   20 1
    27   19   21 1
    28   19   38 1
    29   20   39 1
    30   21   22 1
    31   21   40 1
    32   22   23 ar
    33   22   31 ar
    34   23   24 ar
    35   23   41 1
    36   24   25 ar
    37   24   45 1
    38   25   26 ar
    39   25   31 ar
    40   26   27 2
    41   26   28 ar
    42   27   42 1
    43   28   29 ar
    44   28   44 1
    45   29   30 ar
    46   29   43 1
    47   30   31 ar
@<TRIPOS>SUBSTRUCTURE
     1 ATP         1 GROUP 0 A     ****
@<TRIPOS>MOLECULE
[[[3,4-dihydroxy-5-(6-imino-7,8-dihydro-1~{H}-purin-8-ylium-9-yl)tetrahydrofuran-2-yl]methoxy-oxido-phosphoryl]oxy-oxido-phosphoryl] hydrogen phosphate
   45    47     1     0     0
SMALL
USER_CHARGES

@<TRIPOS>ATOM
      1 PG         -0.9061   -1.4218   -7.4882 P.3       1 ATP         1.5631
      2 O1G        -0.6126   -2.5771   -8.4190 O.co2     1 ATP        -0.8806
      3 O2G        -0.8482    0.0071   -7.9806 O.co2     1 ATP        -0.8806
      4 O3G        -2.3625   -1.6723   -6.7938 O.3       1 ATP        -0.8165
      5 PB          0.2146   -2.8219   -5.1372 P.3       1 ATP         1.6877
      6 O1B        -1.0851   -3.0411   -4.3954 O.co2     1 ATP        -0.8727
      7 O2B         0.8924   -3.9514   -5.8804 O.co2     1 ATP        -0.8727
      8 O3B         0.0287   -1.5611   -6.1576 O.3       1 ATP        -0.8330
      9 PA          2.0064   -2.7685   -2.7831 P.3       1 ATP         1.6036
     10 O1A         2.9063   -3.9109   -3.2021 O.co2     1 ATP        -0.9062
     11 O2A         0.9442   -2.9689   -1.7242 O.co2     1 ATP        -0.9062
     12 O3A         1.2930   -2.1462   -4.1148 O.3       1 ATP        -0.8166
     13 O5'         2.9216   -1.4836   -2.3516 O.3       1 ATP        -0.5510
     14 C5'         2.2816   -0.2918   -1.9206 C.3       1 ATP         0.2099
     15 C4'         2.7248    0.0226   -0.4980 C.3       1 ATP         0.0598
     16 O4'         2.4697    1.4219   -0.2462 O.3       1 ATP        -0.3455
     17 C3'         1.9404   -0.7419    0.5596 C.3       1 ATP         0.0742
     18 O3'         2.7418   -0.8086    1.7389 O.3       1 ATP        -0.6025
     19 C2'         0.7477    0.1630    0.7858 C.3       1 ATP         0.1145
     20 O2'         0.1373   -0.0577    2.0407 O.3       1 ATP        -0.5835
     21 C1'         1.3733    1.5427    0.6747 C.3       1 ATP         0.3776
     22 N9          0.4520    2.5240    0.1767 N.pl3     1 ATP        -0.4429
     23 C8          0.5691    3.2215   -0.9485 C.ar      1 ATP         0.2964
     24 N7         -0.4499    4.0551   -1.1342 N.pl3     1 ATP        -0.4957
     25 C5         -1.2618    3.8674   -0.0512 C.ar      1 ATP        -0.1346
     26 C6         -2.5420    4.5007    0.3120 C.ar      1 ATP         0.7213
     27 N6         -3.0874    5.3993   -0.4432 N.2       1 ATP        -0.8215
     28 N1         -3.0494    4.0205    1.5133 N.pl3     1 ATP        -0.8455
     29 C2         -2.3933    3.0527    2.2567 C.ar      1 ATP         0.6477
     30 N3         -1.2611    2.4796    1.9536 N.2       1 ATP        -0.5707
     31 C4         -0.7334    2.9358    0.7669 C.ar      1 ATP         0.2637
     32 HOG3       -2.6977   -1.0046   -6.1581 H         1 ATP         0.4378
     33 H5'1        2.5589    0.5217   -2.5976 H         1 ATP         0.0340
     34 H5'2        1.1982   -0.4388   -1.9617 H         1 ATP         0.0340
     35 H4'         3.8044   -0.1397   -0.4040 H         1 ATP         0.0910
     36 H3'         1.6764   -1.7639    0.2728 H         1 ATP         0.0656
     37 HO3'        2.2232   -1.2979    2.3953 H         1 ATP         0.4386
     38 H2'        -0.0011    0.0027    0.0003 H         1 ATP         0.0788
     39 HO2'       -0.1563   -0.9855    2.0596 H         1 ATP         0.4363
     40 H1'         1.7826    1.9024    1.6451 H         1 ATP         0.1225
     41 H8          1.3912    3.1285   -1.6365 H         1 ATP         0.3824
     42 HN62       -3.9637    5.7083   -0.0142 H         1 ATP         0.4018
     43 H2         -2.9317    2.7866    3.1796 H         1 ATP         0.0652
     44 H44        -3.9307    4.3923    1.8558 H         1 ATP         0.4503
     45 H45        -0.5835    4.6857   -1.9122 H         1 ATP         0.5209
@<TRIPOS>BOND
     1    1    2 2
     2    1    3 1
     3    1    4 1
     4    1    8 1
     5    4   32 1
     6    5    6 2
     7    5    7 1
     8    5    8 1
     9    5   12 1
    10    9   10 2
    11    9   11 1
    12    9   12 1
    13    9   13 1
    14   13   14 1
    15   14   15 1
    16   14   33 1
    17   14   34 1
    18   15   16 1
    19   15   17 1
    20   15   35 1
    21   16   21 1
    22   17   18 1
    23   17   19 1
    24   17   36 1
    25   18   37 1
    26   19   20 1
    27   19   21 1
    28   19   38 1
    29   20   39 1
    30   21   22 1
    31   21   40 1
    32   22   23 ar
    33   22   31 ar
    34   23   24 ar
    35   23   41 1
    36   24   25 ar
    37   24   45 1
    38   25   26 ar
    39   25   31 ar
    40   26   27 2
    41   26   28 ar
    42   27   42 1
    43   28   29 ar
    44   28   44 1
    45   29   30 ar
    46   29   43 1
    47   30   31 ar
@<TRIPOS>SUBSTRUCTURE
     1 ATP         1 GROUP 0 A     ****
@<TRIPOS>MOLECULE
[[[3,4-dihydroxy-5-(6-imino-7,8-dihydro-1~{H}-purin-8-ylium-9-yl)tetrahydrofuran-2-yl]methoxy-oxido-phosphoryl]oxy-oxido-phosphoryl] hydrogen phosphate
   45    47     1     0     0
SMALL
USER_CHARGES

@<TRIPOS>ATOM
      1 PG          6.0028   -3.4551   -7.0303 P.3       1 ATP         1.5631
      2 O1G         5.0905   -4.0313   -8.0901 O.co2     1 ATP        -0.8806
      3 O2G         7.0496   -4.3134   -6.3555 O.co2     1 ATP        -0.8806
      4 O3G         6.7345   -2.1292   -7.6408 O.3       1 ATP        -0.8165
      5 PB          4.0507   -3.3802   -4.8106 P.3       1 ATP         1.6877
      6 O1B         2.8670   -3.9435   -5.5650 O.co2     1 ATP        -0.8727
      7 O2B         4.8297   -4.2278   -3.8296 O.co2     1 ATP        -0.8727
      8 O3B         5.0945   -2.7300   -5.8846 O.3       1 ATP        -0.8330
      9 PA          4.4789   -0.9083   -3.2418 P.3       1 ATP         1.6036
     10 O1A         5.4277   -0.2314   -4.2071 O.co2     1 ATP        -0.9062
     11 O2A         4.9966   -1.5644   -1.9804 O.co2     1 ATP        -0.9062
     12 O3A         3.5882   -2.0049   -4.0627 O.3       1 ATP        -0.8166
     13 O5'         3.2903    0.1346   -2.8241 O.3       1 ATP        -0.5510
     14 C5'         2.2816   -0.2918   -1.9206 C.3       1 ATP         0.2099
     15 C4'         2.7248    0.0226   -0.4980 C.3       1 ATP         0.0598
     16 O4'         2.4697    1.4219   -0.2462 O.3       1 ATP        -0.3455
     17 C3'         1.9404   -0.7419    0.5596 C.3       1 ATP         0.0742
     18 O3'         2.7418   -0.8086    1.7389 O.3       1 ATP        -0.6025
     19 C2'         0.7477    0.1630    0.7858 C.3       1 ATP         0.1145
     20 O2'         0.1373   -0.0577    2.0407 O.3       1 ATP        -0.5835
     21 C1'         1.3733    1.5427    0.6747 C.3       1 ATP         0.3776
     22 N9          0.4520    2.5240    0.1767 N.pl3     1 ATP        -0.4429
     23 C8         -0.6821    2.9098    0.7521 C.ar      1 ATP         0.2964
     24 N7         -1.3175    3.8384    0.0437 N.pl3     1 ATP        -0.4957
     25 C5         -0.5274    4.0494   -1.0512 C.ar      1 ATP        -0.1346
     26 C6         -0.6966    4.9597   -2.1977 C.ar      1 ATP         0.7213
     27 N6         -1.7259    5.7385   -2.2937 N.2       1 ATP        -0.8215
     28 N1          0.3493    4.8663   -3.1079 N.pl3     1 ATP        -0.8455
     29 C2          1.4148    4.0005   -2.9208 C.ar      1 ATP         0.6477
     30 N3          1.5838    3.1876   -1.9144 N.2       1 ATP        -0.5707
     31 C4          0.5619    3.2578   -0.9949 C.ar      1 ATP         0.2637
     32 HOG3        7.3630   -1.6382   -7.0698 H         1 ATP         0.4378
     33 H5'1        1.3514    0.2330   -2.1577 H         1 ATP         0.0340
     34 H5'2        2.1280   -1.3678   -2.0460 H         1 ATP         0.0340
     35 H4'         3.8044   -0.1397   -0.4040 H         1 ATP         0.0910
     36 H3'         1.6764   -1.7639    0.2728 H         1 ATP         0.0656
     37 HO3'        2.2232   -1.2979    2.3953 H         1 ATP         0.4386
     38 H2'        -0.0011    0.0027    0.0003 H         1 ATP         0.0788
     39 HO2'       -0.1563   -0.9855    2.0596 H         1 ATP         0.4363
     40 H1'         1.7826    1.9024    1.6451 H         1 ATP         0.1225
     41 H8         -1.0516    2.5207    1.6849 H         1 ATP         0.3824
     42 HN62       -1.6520    6.2842   -3.1564 H         1 ATP         0.4018
     43 H2          2.1542    4.0525   -3.7351 H         1 ATP         0.0652
     44 H44         0.3306    5.4533   -3.9370 H         1 ATP         0.4503
     45 H45        -2.1941    4.2838    0.2756 H         1 ATP         0.5209
@<TRIPOS>BOND
     1    1    2 2
     2    1    3 1
     3    1    4 1
     4    1    8 1
     5    4   32 1
     6    5    6 2
     7    5    7 1
     8    5    8 1
     9    5   12 1
    10    9   10 2
    11    9   11 1
    12    9   12 1
    13    9   13 1
    14   13   14 1
    15   14   15 1
    16   14   33 1
    17   14   34 1
    18   15   16 1
    19   15   17 1
    20   15   35 1
    21   16   21 1
    22   17   18 1
    23   17   19 1
    24   17   36 1
    25   18   37 1
    26   19   20 1
    27   19   21 1
    28   19   38 1
    29   20   39 1
    30   21   22 1
    31   21   40 1
    32   22   23 ar
    33   22   31 ar
    34   23   24 ar
    35   23   41 1
    36   24   25 ar
    37   24   45 1
    38   25   26 ar
    39   25   31 ar
    40   26   27 2
    41   26   28 ar
    42   27   42 1
    43   28   29 ar
    44   28   44 1
    45   29   30 ar
    46   29   43 1
    47   30   31 ar
@<TRIPOS>SUBSTRUCTURE
     1 ATP         1 GROUP 0 A     ****
@<TRIPOS>MOLECULE
[[[3,4-dihydroxy-5-(6-imino-7,8-dihydro-1~{H}-purin-8-ylium-9-yl)tetrahydrofuran-2-yl]methoxy-oxido-phosphoryl]oxy-oxido-phosphoryl] hydrogen phosphate
   45    47     1     0     0
SMALL
USER_CHARGES

@<TRIPOS>ATOM
      1 PG         -2.2460   -4.7856   -1.7781 P.3       1 ATP         1.5631
      2 O1G        -3.0975   -4.0607   -2.7964 O.co2     1 ATP        -0.8806
      3 O2G        -2.7576   -5.0413   -0.3779 O.co2     1 ATP        -0.8806
      4 O3G        -1.7648   -6.2068   -2.4218 O.3       1 ATP        -0.8165
      5 PB          0.5532   -4.4960   -0.8702 P.3       1 ATP         1.6877
      6 O1B         0.2746   -4.4032    0.6135 O.co2     1 ATP        -0.8727
      7 O2B         1.0967   -5.7653   -1.4873 O.co2     1 ATP        -0.8727
      8 O3B        -0.7910   -4.0523   -1.6839 O.3       1 ATP        -0.8330
      9 PA          2.0064   -2.7685   -2.7831 P.3       1 ATP         1.6036
     10 O1A         0.8006   -2.2901   -3.5625 O.co2     1 ATP        -0.9062
     11 O2A         2.9220   -3.8315   -3.3500 O.co2     1 ATP        -0.9062
     12 O3A         1.5163   -3.2502   -1.3007 O.3       1 ATP        -0.8166
     13 O5'         2.9216   -1.4836   -2.3516 O.3       1 ATP        -0.5510
     14 C5'         2.2816   -0.2918   -1.9206 C.3       1 ATP         0.2099
     15 C4'         2.7248    0.0226   -0.4980 C.3       1 ATP         0.0598
     16 O4'         2.4697    1.4219   -0.2462 O.3       1 ATP        -0.3455
     17 C3'         1.9404   -0.7419    0.5596 C.3       1 ATP         0.0742
     18 O3'         2.7418   -0.8086    1.7389 O.3       1 ATP        -0.6025
     19 C2'         0.7477    0.1630    0.7858 C.3       1 ATP         0.1145
     20 O2'         0.1373   -0.0577    2.0407 O.3       1 ATP        -0.5835
     21 C1'         1.3733    1.5427    0.6747 C.3       1 ATP         0.3776
     22 N9          0.4520    2.5240    0.1767 N.pl3     1 ATP        -0.4429
     23 C8          0.2216    2.8192   -1.0985 C.ar      1 ATP         0.2964
     24 N7         -0.6906    3.7763   -1.2384 N.pl3     1 ATP        -0.4957
     25 C5         -1.0575    4.1037    0.0366 C.ar      1 ATP        -0.1346
     26 C6         -2.0291    5.0943    0.5330 C.ar      1 ATP         0.7213
     27 N6         -2.7093    5.8371   -0.2800 N.2       1 ATP        -0.8215
     28 N1         -2.1051    5.1136    1.9204 N.pl3     1 ATP        -0.8455
     29 C2         -1.3354    4.2774    2.7129 C.ar      1 ATP         0.6477
     30 N3         -0.4707    3.3945    2.2944 N.2       1 ATP        -0.5707
     31 C4         -0.3734    3.3525    0.9220 C.ar      1 ATP         0.2637
     32 HOG3       -1.2001   -6.7977   -1.8793 H         1 ATP         0.4378
     33 H5'1        2.5589    0.5217   -2.5976 H         1 ATP         0.0340
     34 H5'2        1.1982   -0.4388   -1.9617 H         1 ATP         0.0340
     35 H4'         3.8044   -0.1397   -0.4040 H         1 ATP         0.0910
     36 H3'         1.6764   -1.7639    0.2728 H         1 ATP         0.0656
     37 HO3'        2.2232   -1.2979    2.3953 H         1 ATP         0.4386
     38 H2'        -0.0011    0.0027    0.0003 H         1 ATP         0.0788
     39 HO2'       -0.6141    0.5574    2.1082 H         1 ATP         0.4363
     40 H1'         1.7826    1.9024    1.6451 H         1 ATP         0.1225
     41 H8          0.7125    2.3429   -1.9292 H         1 ATP         0.3824
     42 HN62       -3.3217    6.4517    0.2629 H         1 ATP         0.4018
     43 H2         -1.5188    4.4223    3.7890 H         1 ATP         0.0652
     44 H44        -2.7470    5.7626    2.3665 H         1 ATP         0.4503
     45 H45        -1.0305    4.1680   -2.1054 H         1 ATP         0.5209
@<TRIPOS>BOND
     1    1    2 2
     2    1    3 1
     3    1    4 1
     4    1    8 1
     5    4   32 1
     6    5    6 2
     7    5    7 1
     8    5    8 1
     9    5   12 1
    10    9   10 2
    11    9   11 1
    12    9   12 1
    13    9   13 1
    14   13   14 1
    15   14   15 1
    16   14   33 1
    17   14   34 1
    18   15   16 1
    19   15   17 1
    20   15   35 1
    21   16   21 1
    22   17   18 1
    23   17   19 1
    24   17   36 1
    25   18   37 1
    26   19   20 1
    27   19   21 1
    28   19   38 1
    29   20   39 1
    30   21   22 1
    31   21   40 1
    32   22   23 ar
    33   22   31 ar
    34   23   24 ar
    35   23   41 1
    36   24   25 ar
    37   24   45 1
    38   25   26 ar
    39   25   31 ar
    40   26   27 2
    41   26   28 ar
    42   27   42 1
    43   28   29 ar
    44   28   44 1
    45   29   30 ar
    46   29   43 1
    47   30   31 ar
@<TRIPOS>SUBSTRUCTURE
     1 ATP         1 GROUP 0 A     ****
@<TRIPOS>MOLECULE
[[[3,4-dihydroxy-5-(6-imino-7,8-dihydro-1~{H}-purin-8-ylium-9-yl)tetrahydrofuran-2-yl]methoxy-oxido-phosphoryl]oxy-oxido-phosphoryl] hydrogen phosphate
   45    47     1     0     0
SMALL
USER_CHARGES

@<TRIPOS>ATOM
      1 PG          2.9521   -8.6602    1.2300 P.3       1 ATP         1.5631
      2 O1G         4.1196   -9.0826    2.0937 O.co2     1 ATP        -0.8806
      3 O2G         3.1749   -7.9225   -0.0715 O.co2     1 ATP        -0.8806
      4 O3G         2.0270   -9.9720    0.9306 O.3       1 ATP        -0.8165
      5 PB          2.0595   -6.3549    2.8524 P.3       1 ATP         1.6877
      6 O1B         3.1024   -6.4607    3.9427 O.co2     1 ATP        -0.8727
      7 O2B         2.1586   -5.2997    1.7734 O.co2     1 ATP        -0.8727
      8 O3B         1.8946   -7.8158    2.1423 O.3       1 ATP        -0.8330
      9 PA         -0.0649   -5.0721    4.4638 P.3       1 ATP         1.6036
     10 O1A         0.8648   -4.7899    5.6242 O.co2     1 ATP        -0.9062
     11 O2A        -1.5225   -5.4005    4.7026 O.co2     1 ATP        -0.9062
     12 O3A         0.5851   -6.2576    3.5463 O.3       1 ATP        -0.8166
     13 O5'         0.0118   -3.8395    3.3916 O.3       1 ATP        -0.5510
     14 C5'        -0.7840   -3.8935    2.2172 C.3       1 ATP         0.2099
     15 C4'        -0.0724   -3.1466    1.1027 C.3       1 ATP         0.0598
     16 O4'        -0.8674   -3.1929   -0.0945 O.3       1 ATP        -0.3455
     17 C3'         0.1338   -1.6715    1.4027 C.3       1 ATP         0.0742
     18 O3'         1.2893   -1.4445    2.1808 O.3       1 ATP        -0.6025
     19 C2'         0.2158   -1.0724    0.0128 C.3       1 ATP         0.1145
     20 O2'         1.5141   -1.2448   -0.5513 O.3       1 ATP        -0.5835
     21 C1'        -0.7897   -1.9176   -0.7583 C.3       1 ATP         0.3776
     22 N9         -2.1040   -1.3333   -0.7704 N.pl3     1 ATP        -0.4429
     23 C8         -3.0590   -1.5123    0.1363 C.ar      1 ATP         0.2964
     24 N7         -4.1655   -0.8354   -0.1554 N.pl3     1 ATP        -0.4957
     25 C5         -3.8852   -0.1874   -1.3253 C.ar      1 ATP        -0.1346
     26 C6         -4.7113    0.7160   -2.1458 C.ar      1 ATP         0.7213
     27 N6         -5.9213    1.0209   -1.8021 N.2       1 ATP        -0.8215
     28 N1         -4.0411    1.1673   -3.2764 N.pl3     1 ATP        -0.8455
     29 C2         -2.7403    0.7865   -3.5638 C.ar      1 ATP         0.6477
     30 N3         -1.9921   -0.0108   -2.8519 N.2       1 ATP        -0.5707
     31 C4         -2.6302   -0.4747   -1.7239 C.ar      1 ATP         0.2637
     32 HOG3        1.2239   -9.8607    0.3784 H         1 ATP         0.4378
     33 H5'1       -0.9348   -4.9415    1.9415 H         1 ATP         0.0340
     34 H5'2       -1.7548   -3.4350    2.4278 H         1 ATP         0.0340
     35 H4'         0.8874   -3.6466    0.8805 H         1 ATP         0.0910
     36 H3'        -0.7376   -1.2333    1.9867 H         1 ATP         0.0656
     37 HO3'        1.1626   -1.9325    3.0084 H         1 ATP         0.4386
     38 H2'        -0.0384   -0.0310    0.0096 H         1 ATP         0.0788
     39 HO2'        1.4998   -0.8412   -1.4369 H         1 ATP         0.4363
     40 H1'        -0.4769   -2.1002   -1.8093 H         1 ATP         0.1225
     41 H8         -2.9569   -2.1323    1.0098 H         1 ATP         0.3824
     42 HN62       -6.3169    1.6552   -2.5012 H         1 ATP         0.4018
     43 H2         -2.3612    1.2343   -4.4957 H         1 ATP         0.0652
     44 H44        -4.5223    1.7976   -3.9117 H         1 ATP         0.4503
     45 H45        -5.0218   -0.8132    0.3804 H         1 ATP         0.5209
@<TRIPOS>BOND
     1    1    2 2
     2    1    3 1
     3    1    4 1
     4    1    8 1
     5    4   32 1
     6    5    6 2
     7    5    7 1
     8    5    8 1
     9    5   12 1
    10    9   10 2
    11    9   11 1
    12    9   12 1
    13    9   13 1
    14   13   14 1
    15   14   15 1
    16   14   33 1
    17   14   34 1
    18   15   16 1
    19   15   17 1
    20   15   35 1
    21   16   21 1
    22   17   18 1
    23   17   19 1
    24   17   36 1
    25   18   37 1
    26   19   20 1
    27   19   21 1
    28   19   38 1
    29   20   39 1
    30   21   22 1
    31   21   40 1
    32   22   23 ar
    33   22   31 ar
    34   23   24 ar
    35   23   41 1
    36   24   25 ar
    37   24   45 1
    38   25   26 ar
    39   25   31 ar
    40   26   27 2
    41   26   28 ar
    42   27   42 1
    43   28   29 ar
    44   28   44 1
    45   29   30 ar
    46   29   43 1
    47   30   31 ar
@<TRIPOS>SUBSTRUCTURE
     1 ATP         1 GROUP 0 A     ****
@<TRIPOS>MOLECULE
[[[3,4-dihydroxy-5-(6-imino-7,8-dihydro-1~{H}-purin-8-ylium-9-yl)tetrahydrofuran-2-yl]methoxy-oxido-phosphoryl]oxy-oxido-phosphoryl] hydrogen phosphate
   45    47     1     0     0
SMALL
USER_CHARGES

@<TRIPOS>ATOM
      1 PG          3.2427   -9.3339   -0.0330 P.3       1 ATP         1.5631
      2 O1G         2.3288  -10.4626   -0.4553 O.co2     1 ATP        -0.8806
      3 O2G         4.3135   -9.5507    1.0130 O.co2     1 ATP        -0.8806
      4 O3G         3.9418   -8.7055   -1.3681 O.3       1 ATP        -0.8165
      5 PB          2.7899   -6.5293    0.7871 P.3       1 ATP         1.6877
      6 O1B         3.5632   -6.5726    2.0862 O.co2     1 ATP        -0.8727
      7 O2B         3.3639   -5.8649   -0.4444 O.co2     1 ATP        -0.8727
      8 O3B         2.3346   -8.0482    0.3982 O.3       1 ATP        -0.8330
      9 PA          0.1830   -6.3463    2.1748 P.3       1 ATP         1.6036
     10 O1A         0.7240   -6.0833    3.5635 O.co2     1 ATP        -0.9062
     11 O2A        -0.3378   -7.7150    1.7939 O.co2     1 ATP        -0.9062
     12 O3A         1.3110   -5.9028    1.0790 O.3       1 ATP        -0.8166
     13 O5'        -0.9724   -5.2440    1.8220 O.3       1 ATP        -0.5510
     14 C5'        -0.7840   -3.8935    2.2172 C.3       1 ATP         0.2099
     15 C4'        -0.0724   -3.1466    1.1027 C.3       1 ATP         0.0598
     16 O4'        -0.8674   -3.1929   -0.0945 O.3       1 ATP        -0.3455
     17 C3'         0.1338   -1.6715    1.4027 C.3       1 ATP         0.0742
     18 O3'         1.2893   -1.4445    2.1808 O.3       1 ATP        -0.6025
     19 C2'         0.2158   -1.0724    0.0128 C.3       1 ATP         0.1145
     20 O2'         1.5141   -1.2448   -0.5513 O.3       1 ATP        -0.5835
     21 C1'        -0.7897   -1.9176   -0.7583 C.3       1 ATP         0.3776
     22 N9         -2.1040   -1.3333   -0.7704 N.pl3     1 ATP        -0.4429
     23 C8         -3.0590   -1.5123    0.1363 C.ar      1 ATP         0.2964
     24 N7         -4.1655   -0.8354   -0.1554 N.pl3     1 ATP        -0.4957
     25 C5         -3.8852   -0.1874   -1.3253 C.ar      1 ATP        -0.1346
     26 C6         -4.7113    0.7160   -2.1458 C.ar      1 ATP         0.7213
     27 N6         -5.9213    1.0209   -1.8021 N.2       1 ATP        -0.8215
     28 N1         -4.0411    1.1673   -3.2764 N.pl3     1 ATP        -0.8455
     29 C2         -2.7403    0.7865   -3.5638 C.ar      1 ATP         0.6477
     30 N3         -1.9921   -0.0108   -2.8519 N.2       1 ATP        -0.5707
     31 C4         -2.6302   -0.4747   -1.7239 C.ar      1 ATP         0.2637
     32 HOG3        4.5677   -7.9580   -1.2595 H         1 ATP         0.4378
     33 H5'1       -1.7618   -3.4448    2.4164 H         1 ATP         0.0340
     34 H5'2       -0.1874   -3.8744    3.1341 H         1 ATP         0.0340
     35 H4'         0.8874   -3.6466    0.8805 H         1 ATP         0.0910
     36 H3'        -0.7376   -1.2333    1.9867 H         1 ATP         0.0656
     37 HO3'        1.3408   -0.4870    2.3219 H         1 ATP         0.4386
     38 H2'        -0.0384   -0.0310    0.0096 H         1 ATP         0.0788
     39 HO2'        2.1463   -0.7958    0.0370 H         1 ATP         0.4363
     40 H1'        -0.4769   -2.1002   -1.8093 H         1 ATP         0.1225
     41 H8         -2.9569   -2.1323    1.0098 H         1 ATP         0.3824
     42 HN62       -6.3169    1.6552   -2.5012 H         1 ATP         0.4018
     43 H2         -2.3612    1.2343   -4.4957 H         1 ATP         0.0652
     44 H44        -4.5223    1.7976   -3.9117 H         1 ATP         0.4503
     45 H45        -5.0218   -0.8132    0.3804 H         1 ATP         0.5209
@<TRIPOS>BOND
     1    1    2 2
     2    1    3 1
     3    1    4 1
     4    1    8 1
     5    4   32 1
     6    5    6 2
     7    5    7 1
     8    5    8 1
     9    5   12 1
    10    9   10 2
    11    9   11 1
    12    9   12 1
    13    9   13 1
    14   13   14 1
    15   14   15 1
    16   14   33 1
    17   14   34 1
    18   15   16 1
    19   15   17 1
    20   15   35 1
    21   16   21 1
    22   17   18 1
    23   17   19 1
    24   17   36 1
    25   18   37 1
    26   19   20 1
    27   19   21 1
    28   19   38 1
    29   20   39 1
    30   21   22 1
    31   21   40 1
    32   22   23 ar
    33   22   31 ar
    34   23   24 ar
    35   23   41 1
    36   24   25 ar
    37   24   45 1
    38   25   26 ar
    39   25   31 ar
    40   26   27 2
    41   26   28 ar
    42   27   42 1
    43   28   29 ar
    44   28   44 1
    45   29   30 ar
    46   29   43 1
    47   30   31 ar
@<TRIPOS>SUBSTRUCTURE
     1 ATP         1 GROUP 0 A     ****
@<TRIPOS>MOLECULE
[[[3,4-dihydroxy-5-(6-imino-7,8-dihydro-1~{H}-purin-8-ylium-9-yl)tetrahydrofuran-2-yl]methoxy-oxido-phosphoryl]oxy-oxido-phosphoryl] hydrogen phosphate
   45    47     1     0     0
SMALL
USER_CHARGES

@<TRIPOS>ATOM
      1 PG          0.4288   -6.9685    7.8305 P.3       1 ATP         1.5631
      2 O1G         1.8052   -6.4784    8.2215 O.co2     1 ATP        -0.8806
      3 O2G         0.0115   -8.3996    8.0862 O.co2     1 ATP        -0.8806
      4 O3G        -0.6837   -5.9770    8.4978 O.3       1 ATP        -0.8165
      5 PB          0.8909   -7.1973    4.9189 P.3       1 ATP         1.6877
      6 O1B         2.3311   -6.7356    4.9072 O.co2     1 ATP        -0.8727
      7 O2B         0.5361   -8.6604    4.7737 O.co2     1 ATP        -0.8727
      8 O3B         0.1649   -6.6132    6.2595 O.3       1 ATP        -0.8330
      9 PA          0.1830   -6.3463    2.1748 P.3       1 ATP         1.6036
     10 O1A        -0.2401   -7.7040    1.6570 O.co2     1 ATP        -0.9062
     11 O2A         1.5263   -5.7595    1.7994 O.co2     1 ATP        -0.9062
     12 O3A         0.0586   -6.3434    3.8040 O.3       1 ATP        -0.8166
     13 O5'        -0.9724   -5.2440    1.8220 O.3       1 ATP        -0.5510
     14 C5'        -0.7840   -3.8935    2.2172 C.3       1 ATP         0.2099
     15 C4'        -0.0724   -3.1466    1.1027 C.3       1 ATP         0.0598
     16 O4'        -0.8674   -3.1929   -0.0945 O.3       1 ATP        -0.3455
     17 C3'         0.1338   -1.6715    1.4027 C.3       1 ATP         0.0742
     18 O3'         1.2893   -1.4445    2.1808 O.3       1 ATP        -0.6025
     19 C2'         0.2158   -1.0724    0.0128 C.3       1 ATP         0.1145
     20 O2'         1.5141   -1.2448   -0.5513 O.3       1 ATP        -0.5835
     21 C1'        -0.7897   -1.9176   -0.7583 C.3       1 ATP         0.3776
     22 N9         -2.1040   -1.3333   -0.7704 N.pl3     1 ATP        -0.4429
     23 C8         -3.2114   -1.8635   -0.2619 C.ar      1 ATP         0.2964
     24 N7         -4.2711   -1.0786   -0.4314 N.pl3     1 ATP        -0.4957
     25 C5         -3.7955    0.0193   -1.0917 C.ar      1 ATP        -0.1346
     26 C6         -4.4862    1.2344   -1.5586 C.ar      1 ATP         0.7213
     27 N6         -5.7554    1.4030   -1.3689 N.2       1 ATP        -0.8215
     28 N1         -3.6267    2.1218   -2.1949 N.pl3     1 ATP        -0.8455
     29 C2         -2.2761    1.8558   -2.3521 C.ar      1 ATP         0.6477
     30 N3         -1.6453    0.7881   -1.9466 N.2       1 ATP        -0.5707
     31 C4         -2.4722   -0.1108   -1.3117 C.ar      1 ATP         0.2637
     32 HOG3       -1.6329   -6.1638    8.3353 H         1 ATP         0.4378
     33 H5'1       -1.7618   -3.4448    2.4164 H         1 ATP         0.0340
     34 H5'2       -0.1874   -3.8744    3.1341 H         1 ATP         0.0340
     35 H4'         0.8874   -3.6466    0.8805 H         1 ATP         0.0910
     36 H3'        -0.7376   -1.2333    1.9867 H         1 ATP         0.0656
     37 HO3'        1.3408   -0.4870    2.3219 H         1 ATP         0.4386
     38 H2'        -0.0384   -0.0310    0.0096 H         1 ATP         0.0788
     39 HO2'        2.1463   -0.7958    0.0370 H         1 ATP         0.4363
     40 H1'        -0.4769   -2.1002   -1.8093 H         1 ATP         0.1225
     41 H8         -3.2547   -2.8183    0.2325 H         1 ATP         0.3824
     42 HN62       -6.0352    2.3041   -1.7656 H         1 ATP         0.4018
     43 H2         -1.7412    2.6624   -2.8773 H         1 ATP         0.0652
     44 H44        -4.0029    2.9939   -2.5557 H         1 ATP         0.4503
     45 H45        -5.2179   -1.2649   -0.1322 H         1 ATP         0.5209
@<TRIPOS>BOND
     1    1    2 2
     2    1    3 1
     3    1    4 1
     4    1    8 1
     5    4   32 1
     6    5    6 2
     7    5    7 1
     8    5    8 1
     9    5   12 1
    10    9   10 2
    11    9   11 1
    12    9   12 1
    13    9   13 1
    14   13   14 1
    15   14   15 1
    16   14   33 1
    17   14   34 1
    18   15   16 1
    19   15   17 1
    20   15   35 1
    21   16   21 1
    22   17   18 1
    23   17   19 1
    24   17   36 1
    25   18   37 1
    26   19   20 1
    27   19   21 1
    28   19   38 1
    29   20   39 1
    30   21   22 1
    31   21   40 1
    32   22   23 ar
    33   22   31 ar
    34   23   24 ar
    35   23   41 1
    36   24   25 ar
    37   24   45 1
    38   25   26 ar
    39   25   31 ar
    40   26   27 2
    41   26   28 ar
    42   27   42 1
    43   28   29 ar
    44   28   44 1
    45   29   30 ar
    46   29   43 1
    47   30   31 ar
@<TRIPOS>SUBSTRUCTURE
     1 ATP         1 GROUP 0 A     ****
@<TRIPOS>MOLECULE
[[[3,4-dihydroxy-5-(6-imino-7,8-dihydro-1~{H}-purin-8-ylium-9-yl)tetrahydrofuran-2-yl]methoxy-oxido-phosphoryl]oxy-oxido-phosphoryl] hydrogen phosphate
   45    47     1     0     0
SMALL
USER_CHARGES

@<TRIPOS>ATOM
      1 PG          6.7468   -4.2023   -4.1667 P.3       1 ATP         1.5631
      2 O1G         7.2209   -4.5522   -2.7737 O.co2     1 ATP        -0.8806
      3 O2G         7.7330   -3.8466   -5.2569 O.co2     1 ATP        -0.8806
      4 O3G         5.7894   -5.4093   -4.7073 O.3       1 ATP        -0.8165
      5 PB          4.6772   -2.3763   -5.2277 P.3       1 ATP         1.6877
      6 O1B         5.5543   -1.6236   -6.2032 O.co2     1 ATP        -0.8727
      7 O2B         3.7032   -3.4313   -5.7029 O.co2     1 ATP        -0.8727
      8 O3B         5.6231   -3.0230   -4.0647 O.3       1 ATP        -0.8330
      9 PA          4.4374   -0.0466   -3.4193 P.3       1 ATP         1.6036
     10 O1A         5.0360    0.9827   -4.3535 O.co2     1 ATP        -0.9062
     11 O2A         5.2435   -0.6084   -2.2686 O.co2     1 ATP        -0.9062
     12 O3A         3.8708   -1.2955   -4.3076 O.3       1 ATP        -0.8166
     13 O5'         3.0213    0.5153   -2.8245 O.3       1 ATP        -0.5510
     14 C5'         2.2816   -0.2918   -1.9206 C.3       1 ATP         0.2099
     15 C4'         2.7248    0.0226   -0.4980 C.3       1 ATP         0.0598
     16 O4'         2.4697    1.4219   -0.2462 O.3       1 ATP        -0.3455
     17 C3'         1.9404   -0.7419    0.5596 C.3       1 ATP         0.0742
     18 O3'         2.7418   -0.8086    1.7389 O.3       1 ATP        -0.6025
     19 C2'         0.7477    0.1630    0.7858 C.3       1 ATP         0.1145
     20 O2'         0.1373   -0.0577    2.0407 O.3       1 ATP        -0.5835
     21 C1'         1.3733    1.5427    0.6747 C.3       1 ATP         0.3776
     22 N9          0.4520    2.5240    0.1767 N.pl3     1 ATP        -0.4429
     23 C8         -0.8620    2.5492    0.3743 C.ar      1 ATP         0.2964
     24 N7         -1.4419    3.5886   -0.2183 N.pl3     1 ATP        -0.4957
     25 C5         -0.4215    4.2614   -0.8294 C.ar      1 ATP        -0.1346
     26 C6         -0.4310    5.4918   -1.6405 C.ar      1 ATP         0.7213
     27 N6         -1.5302    6.1308   -1.8826 N.2       1 ATP        -0.8215
     28 N1          0.8382    5.8461   -2.0817 N.pl3     1 ATP        -0.8455
     29 C2          1.9625    5.0982   -1.7709 C.ar      1 ATP         0.6477
     30 N3          1.9930    4.0077   -1.0554 N.2       1 ATP        -0.5707
     31 C4          0.7483    3.6314   -0.6038 C.ar      1 ATP         0.2637
     32 HOG3        5.3999   -5.3303   -5.6041 H         1 ATP         0.4378
     33 H5'1        1.2163   -0.0770   -2.0471 H         1 ATP         0.0340
     34 H5'2        2.4655   -1.3443   -2.1563 H         1 ATP         0.0340
     35 H4'         3.8044   -0.1397   -0.4040 H         1 ATP         0.0910
     36 H3'         1.6764   -1.7639    0.2728 H         1 ATP         0.0656
     37 HO3'        2.2232   -1.2979    2.3953 H         1 ATP         0.4386
     38 H2'        -0.0011    0.0027    0.0003 H         1 ATP         0.0788
     39 HO2'       -0.1563   -0.9855    2.0596 H         1 ATP         0.4363
     40 H1'         1.7826    1.9024    1.6451 H         1 ATP         0.1225
     41 H8         -1.4030    1.8165    0.9473 H         1 ATP         0.3824
     42 HN62       -1.3197    6.9504   -2.4583 H         1 ATP         0.4018
     43 H2          2.8857    5.5186   -2.1994 H         1 ATP         0.0652
     44 H44         0.9433    6.6815   -2.6502 H         1 ATP         0.4503
     45 H45        -2.4254    3.8199   -0.2108 H         1 ATP         0.5209
@<TRIPOS>BOND
     1    1    2 2
     2    1    3 1
     3    1    4 1
     4    1    8 1
     5    4   32 1
     6    5    6 2
     7    5    7 1
     8    5    8 1
     9    5   12 1
    10    9   10 2
    11    9   11 1
    12    9   12 1
    13    9   13 1
    14   13   14 1
    15   14   15 1
    16   14   33 1
    17   14   34 1
    18   15   16 1
    19   15   17 1
    20   15   35 1
    21   16   21 1
    22   17   18 1
    23   17   19 1
    24   17   36 1
    25   18   37 1
    26   19   20 1
    27   19   21 1
    28   19   38 1
    29   20   39 1
    30   21   22 1
    31   21   40 1
    32   22   23 ar
    33   22   31 ar
    34   23   24 ar
    35   23   41 1
    36   24   25 ar
    37   24   45 1
    38   25   26 ar
    39   25   31 ar
    40   26   27 2
    41   26   28 ar
    42   27   42 1
    43   28   29 ar
    44   28   44 1
    45   29   30 ar
    46   29   43 1
    47   30   31 ar
@<TRIPOS>SUBSTRUCTURE
     1 ATP         1 GROUP 0 A     ****
@<TRIPOS>MOLECULE
[[[3,4-dihydroxy-5-(6-imino-7,8-dihydro-1~{H}-purin-8-ylium-9-yl)tetrahydrofuran-2-yl]methoxy-oxido-phosphoryl]oxy-oxido-phosphoryl] hydrogen phosphate
   45    47     1     0     0
SMALL
USER_CHARGES

@<TRIPOS>ATOM
      1 PG          8.0443   -1.4533    1.1656 P.3       1 ATP         1.5631
      2 O1G         9.3624   -0.8948    0.6777 O.co2     1 ATP        -0.8806
      3 O2G         7.9229   -2.8994    1.5918 O.co2     1 ATP        -0.8806
      4 O3G         7.4976   -0.5075    2.3791 O.3       1 ATP        -0.8165
      5 PB          6.7076   -1.6936   -1.4610 P.3       1 ATP         1.6877
      6 O1B         7.8406   -1.1650   -2.3121 O.co2     1 ATP        -0.8727
      7 O2B         6.4013   -3.1733   -1.3957 O.co2     1 ATP        -0.8727
      8 O3B         6.8882   -1.1288    0.0602 O.3       1 ATP        -0.8330
      9 PA          4.4789   -0.9083   -3.2418 P.3       1 ATP         1.6036
     10 O1A         3.8928   -2.2901   -3.4350 O.co2     1 ATP        -0.9062
     11 O2A         5.3134   -0.2634   -4.3269 O.co2     1 ATP        -0.9062
     12 O3A         5.3405   -0.8925   -1.8536 O.3       1 ATP        -0.8166
     13 O5'         3.2903    0.1346   -2.8241 O.3       1 ATP        -0.5510
     14 C5'         2.2816   -0.2918   -1.9206 C.3       1 ATP         0.2099
     15 C4'         2.7248    0.0226   -0.4980 C.3       1 ATP         0.0598
     16 O4'         2.4697    1.4219   -0.2462 O.3       1 ATP        -0.3455
     17 C3'         1.9404   -0.7419    0.5596 C.3       1 ATP         0.0742
     18 O3'         2.7418   -0.8086    1.7389 O.3       1 ATP        -0.6025
     19 C2'         0.7477    0.1630    0.7858 C.3       1 ATP         0.1145
     20 O2'         0.1373   -0.0577    2.0407 O.3       1 ATP        -0.5835
     21 C1'         1.3733    1.5427    0.6747 C.3       1 ATP         0.3776
     22 N9          0.4520    2.5240    0.1767 N.pl3     1 ATP        -0.4429
     23 C8          0.5691    3.2215   -0.9485 C.ar      1 ATP         0.2964
     24 N7         -0.4499    4.0551   -1.1342 N.pl3     1 ATP        -0.4957
     25 C5         -1.2618    3.8674   -0.0512 C.ar      1 ATP        -0.1346
     26 C6         -2.5420    4.5007    0.3120 C.ar      1 ATP         0.7213
     27 N6         -3.0874    5.3993   -0.4432 N.2       1 ATP        -0.8215
     28 N1         -3.0494    4.0205    1.5133 N.pl3     1 ATP        -0.8455
     29 C2         -2.3933    3.0527    2.2567 C.ar      1 ATP         0.6477
     30 N3         -1.2611    2.4796    1.9536 N.2       1 ATP        -0.5707
     31 C4         -0.7334    2.9358    0.7669 C.ar      1 ATP         0.2637
     32 HOG3        6.6451   -0.7404    2.8048 H         1 ATP         0.4378
     33 H5'1        1.3514    0.2330   -2.1577 H         1 ATP         0.0340
     34 H5'2        2.1280   -1.3678   -2.0460 H         1 ATP         0.0340
     35 H4'         3.8044   -0.1397   -0.4040 H         1 ATP         0.0910
     36 H3'         1.6764   -1.7639    0.2728 H         1 ATP         0.0656
     37 HO3'        3.5554   -1.2733    1.4914 H         1 ATP         0.4386
     38 H2'        -0.0011    0.0027    0.0003 H         1 ATP         0.0788
     39 HO2'        0.8082    0.1199    2.7232 H         1 ATP         0.4363
     40 H1'         1.7826    1.9024    1.6451 H         1 ATP         0.1225
     41 H8          1.3912    3.1285   -1.6365 H         1 ATP         0.3824
     42 HN62       -3.9637    5.7083   -0.0142 H         1 ATP         0.4018
     43 H2         -2.9317    2.7866    3.1796 H         1 ATP         0.0652
     44 H44        -3.9307    4.3923    1.8558 H         1 ATP         0.4503
     45 H45        -0.5835    4.6857   -1.9122 H         1 ATP         0.5209
@<TRIPOS>BOND
     1    1    2 2
     2    1    3 1
     3    1    4 1
     4    1    8 1
     5    4   32 1
     6    5    6 2
     7    5    7 1
     8    5    8 1
     9    5   12 1
    10    9   10 2
    11    9   11 1
    12    9   12 1
    13    9   13 1
    14   13   14 1
    15   14   15 1
    16   14   33 1
    17   14   34 1
    18   15   16 1
    19   15   17 1
    20   15   35 1
    21   16   21 1
    22   17   18 1
    23   17   19 1
    24   17   36 1
    25   18   37 1
    26   19   20 1
    27   19   21 1
    28   19   38 1
    29   20   39 1
    30   21   22 1
    31   21   40 1
    32   22   23 ar
    33   22   31 ar
    34   23   24 ar
    35   23   41 1
    36   24   25 ar
    37   24   45 1
    38   25   26 ar
    39   25   31 ar
    40   26   27 2
    41   26   28 ar
    42   27   42 1
    43   28   29 ar
    44   28   44 1
    45   29   30 ar
    46   29   43 1
    47   30   31 ar
@<TRIPOS>SUBSTRUCTURE
     1 ATP         1 GROUP 0 A     ****
@<TRIPOS>MOLECULE
[[[3,4-dihydroxy-5-(6-imino-7,8-dihydro-1~{H}-purin-8-ylium-9-yl)tetrahydrofuran-2-yl]methoxy-oxido-phosphoryl]oxy-oxido-phosphoryl] hydrogen phosphate
   45    47     1     0     0
SMALL
USER_CHARGES

@<TRIPOS>ATOM
      1 PG         -0.2532   -1.2176   -7.9869 P.3       1 ATP         1.5631
      2 O1G        -0.7300   -2.6342   -7.7553 O.co2     1 ATP        -0.8806
      3 O2G         0.4569   -0.8359   -9.2666 O.co2     1 ATP        -0.8806
      4 O3G        -1.5152   -0.2040   -7.7721 O.3       1 ATP        -0.8165
      5 PB          1.2948    0.7130   -6.3683 P.3       1 ATP         1.6877
      6 O1B         2.3498    1.0408   -7.4013 O.co2     1 ATP        -0.8727
      7 O2B         0.1662    1.6744   -6.0690 O.co2     1 ATP        -0.8727
      8 O3B         0.6580   -0.7495   -6.7164 O.3       1 ATP        -0.8330
      9 PA          2.9232    1.2546   -3.9579 P.3       1 ATP         1.6036
     10 O1A         2.0227    2.3093   -3.3521 O.co2     1 ATP        -0.9062
     11 O2A         4.2011    1.6439   -4.6686 O.co2     1 ATP        -0.9062
     12 O3A         2.0371    0.3242   -4.9674 O.3       1 ATP        -0.8166
     13 O5'         3.2903    0.1346   -2.8241 O.3       1 ATP        -0.5510
     14 C5'         2.2816   -0.2918   -1.9206 C.3       1 ATP         0.2099
     15 C4'         2.7248    0.0226   -0.4980 C.3       1 ATP         0.0598
     16 O4'         2.4697    1.4219   -0.2462 O.3       1 ATP        -0.3455
     17 C3'         1.9404   -0.7419    0.5596 C.3       1 ATP         0.0742
     18 O3'         2.7418   -0.8086    1.7389 O.3       1 ATP        -0.6025
     19 C2'         0.7477    0.1630    0.7858 C.3       1 ATP         0.1145
     20 O2'         0.1373   -0.0577    2.0407 O.3       1 ATP        -0.5835
     21 C1'         1.3733    1.5427    0.6747 C.3       1 ATP         0.3776
     22 N9          0.4520    2.5240    0.1767 N.pl3     1 ATP        -0.4429
     23 C8         -0.8620    2.5492    0.3743 C.ar      1 ATP         0.2964
     24 N7         -1.4419    3.5886   -0.2183 N.pl3     1 ATP        -0.4957
     25 C5         -0.4215    4.2614   -0.8294 C.ar      1 ATP        -0.1346
     26 C6         -0.4310    5.4918   -1.6405 C.ar      1 ATP         0.7213
     27 N6         -1.5302    6.1308   -1.8826 N.2       1 ATP        -0.8215
     28 N1          0.8382    5.8461   -2.0817 N.pl3     1 ATP        -0.8455
     29 C2          1.9625    5.0982   -1.7709 C.ar      1 ATP         0.6477
     30 N3          1.9930    4.0077   -1.0554 N.2       1 ATP        -0.5707
     31 C4          0.7483    3.6314   -0.6038 C.ar      1 ATP         0.2637
     32 HOG3       -1.3658    0.7585   -7.8880 H         1 ATP         0.4378
     33 H5'1        1.3514    0.2330   -2.1577 H         1 ATP         0.0340
     34 H5'2        2.1280   -1.3678   -2.0460 H         1 ATP         0.0340
     35 H4'         3.8044   -0.1397   -0.4040 H         1 ATP         0.0910
     36 H3'         1.6764   -1.7639    0.2728 H         1 ATP         0.0656
     37 HO3'        3.5554   -1.2733    1.4914 H         1 ATP         0.4386
     38 H2'        -0.0011    0.0027    0.0003 H         1 ATP         0.0788
     39 HO2'        0.8082    0.1199    2.7232 H         1 ATP         0.4363
     40 H1'         1.7826    1.9024    1.6451 H         1 ATP         0.1225
     41 H8         -1.4030    1.8165    0.9473 H         1 ATP         0.3824
     42 HN62       -1.3197    6.9504   -2.4583 H         1 ATP         0.4018
     43 H2          2.8857    5.5186   -2.1994 H         1 ATP         0.0652
     44 H44         0.9433    6.6815   -2.6502 H         1 ATP         0.4503
     45 H45        -2.4254    3.8199   -0.2108 H         1 ATP         0.5209
@<TRIPOS>BOND
     1    1    2 2
     2    1    3 1
     3    1    4 1
     4    1    8 1
     5    4   32 1
     6    5    6 2
     7    5    7 1
     8    5    8 1
     9    5   12 1
    10    9   10 2
    11    9   11 1
    12    9   12 1
    13    9   13 1
    14   13   14 1
    15   14   15 1
    16   14   33 1
    17   14   34 1
    18   15   16 1
    19   15   17 1
    20   15   35 1
    21   16   21 1
    22   17   18 1
    23   17   19 1
    24   17   36 1
    25   18   37 1
    26   19   20 1
    27   19   21 1
    28   19   38 1
    29   20   39 1
    30   21   22 1
    31   21   40 1
    32   22   23 ar
    33   22   31 ar
    34   23   24 ar
    35   23   41 1
    36   24   25 ar
    37   24   45 1
    38   25   26 ar
    39   25   31 ar
    40   26   27 2
    41   26   28 ar
    42   27   42 1
    43   28   29 ar
    44   28   44 1
    45   29   30 ar
    46   29   43 1
    47   30   31 ar
@<TRIPOS>SUBSTRUCTURE
     1 ATP         1 GROUP 0 A     ****
@<TRIPOS>MOLECULE
[[[3,4-dihydroxy-5-(6-imino-7,8-dihydro-1~{H}-purin-8-ylium-9-yl)tetrahydrofuran-2-yl]methoxy-oxido-phosphoryl]oxy-oxido-phosphoryl] hydrogen phosphate
   45    47     1     0     0
SMALL
USER_CHARGES

@<TRIPOS>ATOM
      1 PG          8.3616    0.2046    0.7003 P.3       1 ATP         1.5631
      2 O1G         9.3881    1.1997    0.2068 O.co2     1 ATP        -0.8806
      3 O2G         8.7408   -1.2347    0.9691 O.co2     1 ATP        -0.8806
      4 O3G         7.6520    0.8125    2.0393 O.3       1 ATP        -0.8165
      5 PB          6.9461   -0.2229   -1.8604 P.3       1 ATP         1.6877
      6 O1B         7.7755    0.7161   -2.7076 O.co2     1 ATP        -0.8727
      7 O2B         7.1297   -1.7218   -1.9435 O.co2     1 ATP        -0.8727
      8 O3B         7.0706    0.2339   -0.2979 O.3       1 ATP        -0.8330
      9 PA          4.4374   -0.0466   -3.4193 P.3       1 ATP         1.6036
     10 O1A         4.3033   -1.5210   -3.7328 O.co2     1 ATP        -0.9062
     11 O2A         4.9277    0.9261   -4.4696 O.co2     1 ATP        -0.9062
     12 O3A         5.3672    0.1247   -2.0867 O.3       1 ATP        -0.8166
     13 O5'         3.0213    0.5153   -2.8245 O.3       1 ATP        -0.5510
     14 C5'         2.2816   -0.2918   -1.9206 C.3       1 ATP         0.2099
     15 C4'         2.7248    0.0226   -0.4980 C.3       1 ATP         0.0598
     16 O4'         2.4697    1.4219   -0.2462 O.3       1 ATP        -0.3455
     17 C3'         1.9404   -0.7419    0.5596 C.3       1 ATP         0.0742
     18 O3'         2.7418   -0.8086    1.7389 O.3       1 ATP        -0.6025
     19 C2'         0.7477    0.1630    0.7858 C.3       1 ATP         0.1145
     20 O2'         0.1373   -0.0577    2.0407 O.3       1 ATP        -0.5835
     21 C1'         1.3733    1.5427    0.6747 C.3       1 ATP         0.3776
     22 N9          0.4520    2.5240    0.1767 N.pl3     1 ATP        -0.4429
     23 C8         -0.6821    2.9098    0.7521 C.ar      1 ATP         0.2964
     24 N7         -1.3175    3.8384    0.0437 N.pl3     1 ATP        -0.4957
     25 C5         -0.5274    4.0494   -1.0512 C.ar      1 ATP        -0.1346
     26 C6         -0.6966    4.9597   -2.1977 C.ar      1 ATP         0.7213
     27 N6         -1.7259    5.7385   -2.2937 N.2       1 ATP        -0.8215
     28 N1          0.3493    4.8663   -3.1079 N.pl3     1 ATP        -0.8455
     29 C2          1.4148    4.0005   -2.9208 C.ar      1 ATP         0.6477
     30 N3          1.5838    3.1876   -1.9144 N.2       1 ATP        -0.5707
     31 C4          0.5619    3.2578   -0.9949 C.ar      1 ATP         0.2637
     32 HOG3        6.9571    0.2801    2.4821 H         1 ATP         0.4378
     33 H5'1        1.2163   -0.0770   -2.0471 H         1 ATP         0.0340
     34 H5'2        2.4655   -1.3443   -2.1563 H         1 ATP         0.0340
     35 H4'         3.8044   -0.1397   -0.4040 H         1 ATP         0.0910
     36 H3'         1.6764   -1.7639    0.2728 H         1 ATP         0.0656
     37 HO3'        2.2232   -1.2979    2.3953 H         1 ATP         0.4386
     38 H2'        -0.0011    0.0027    0.0003 H         1 ATP         0.0788
     39 HO2'       -0.1563   -0.9855    2.0596 H         1 ATP         0.4363
     40 H1'         1.7826    1.9024    1.6451 H         1 ATP         0.1225
     41 H8         -1.0516    2.5207    1.6849 H         1 ATP         0.3824
     42 HN62       -1.6520    6.2842   -3.1564 H         1 ATP         0.4018
     43 H2          2.1542    4.0525   -3.7351 H         1 ATP         0.0652
     44 H44         0.3306    5.4533   -3.9370 H         1 ATP         0.4503
     45 H45        -2.1941    4.2838    0.2756 H         1 ATP         0.5209
@<TRIPOS>BOND
     1    1    2 2
     2    1    3 1
     3    1    4 1
     4    1    8 1
     5    4   32 1
     6    5    6 2
     7    5    7 1
     8    5    8 1
     9    5   12 1
    10    9   10 2
    11    9   11 1
    12    9   12 1
    13    9   13 1
    14   13   14 1
    15   14   15 1
    16   14   33 1
    17   14   34 1
    18   15   16 1
    19   15   17 1
    20   15   35 1
    21   16   21 1
    22   17   18 1
    23   17   19 1
    24   17   36 1
    25   18   37 1
    26   19   20 1
    27   19   21 1
    28   19   38 1
    29   20   39 1
    30   21   22 1
    31   21   40 1
    32   22   23 ar
    33   22   31 ar
    34   23   24 ar
    35   23   41 1
    36   24   25 ar
    37   24   45 1
    38   25   26 ar
    39   25   31 ar
    40   26   27 2
    41   26   28 ar
    42   27   42 1
    43   28   29 ar
    44   28   44 1
    45   29   30 ar
    46   29   43 1
    47   30   31 ar
@<TRIPOS>SUBSTRUCTURE
     1 ATP         1 GROUP 0 A     ****
@<TRIPOS>MOLECULE
[[[3,4-dihydroxy-5-(6-imino-7,8-dihydro-1~{H}-purin-8-ylium-9-yl)tetrahydrofuran-2-yl]methoxy-oxido-phosphoryl]oxy-oxido-phosphoryl] hydrogen phosphate
   45    47     1     0     0
SMALL
USER_CHARGES

@<TRIPOS>ATOM
      1 PG         -0.0268   -1.8410   -6.1658 P.3       1 ATP         1.5631
      2 O1G         0.7837   -2.3762   -5.0064 O.co2     1 ATP        -0.8806
      3 O2G         0.4431   -2.0225   -7.5920 O.co2     1 ATP        -0.8806
      4 O3G        -1.5494   -2.4179   -6.0443 O.3       1 ATP        -0.8165
      5 PB          0.6774    1.0155   -5.8696 P.3       1 ATP         1.6877
      6 O1B         1.4950    1.0231   -7.1420 O.co2     1 ATP        -0.8727
      7 O2B        -0.0945    2.2386   -5.4272 O.co2     1 ATP        -0.8727
      8 O3B        -0.3408   -0.2601   -5.9094 O.3       1 ATP        -0.8330
      9 PA          2.9232    1.2546   -3.9579 P.3       1 ATP         1.6036
     10 O1A         2.4622    2.5266   -3.2798 O.co2     1 ATP        -0.9062
     11 O2A         4.0435    1.2824   -4.9747 O.co2     1 ATP        -0.9062
     12 O3A         1.6300    0.5237   -4.6385 O.3       1 ATP        -0.8166
     13 O5'         3.2903    0.1346   -2.8241 O.3       1 ATP        -0.5510
     14 C5'         2.2816   -0.2918   -1.9206 C.3       1 ATP         0.2099
     15 C4'         2.7248    0.0226   -0.4980 C.3       1 ATP         0.0598
     16 O4'         2.4697    1.4219   -0.2462 O.3       1 ATP        -0.3455
     17 C3'         1.9404   -0.7419    0.5596 C.3       1 ATP         0.0742
     18 O3'         2.7418   -0.8086    1.7389 O.3       1 ATP        -0.6025
     19 C2'         0.7477    0.1630    0.7858 C.3       1 ATP         0.1145
     20 O2'         0.1373   -0.0577    2.0407 O.3       1 ATP        -0.5835
     21 C1'         1.3733    1.5427    0.6747 C.3       1 ATP         0.3776
     22 N9          0.4520    2.5240    0.1767 N.pl3     1 ATP        -0.4429
     23 C8         -0.8620    2.5492    0.3743 C.ar      1 ATP         0.2964
     24 N7         -1.4419    3.5886   -0.2183 N.pl3     1 ATP        -0.4957
     25 C5         -0.4215    4.2614   -0.8294 C.ar      1 ATP        -0.1346
     26 C6         -0.4310    5.4918   -1.6405 C.ar      1 ATP         0.7213
     27 N6         -1.5302    6.1308   -1.8826 N.2       1 ATP        -0.8215
     28 N1          0.8382    5.8461   -2.0817 N.pl3     1 ATP        -0.8455
     29 C2          1.9625    5.0982   -1.7709 C.ar      1 ATP         0.6477
     30 N3          1.9930    4.0077   -1.0554 N.2       1 ATP        -0.5707
     31 C4          0.7483    3.6314   -0.6038 C.ar      1 ATP         0.2637
     32 HOG3       -2.2029   -2.1588   -6.7285 H         1 ATP         0.4378
     33 H5'1        1.3514    0.2330   -2.1577 H         1 ATP         0.0340
     34 H5'2        2.1280   -1.3678   -2.0460 H         1 ATP         0.0340
     35 H4'         3.8044   -0.1397   -0.4040 H         1 ATP         0.0910
     36 H3'         1.6764   -1.7639    0.2728 H         1 ATP         0.0656
     37 HO3'        2.2232   -1.2979    2.3953 H         1 ATP         0.4386
     38 H2'        -0.0011    0.0027    0.0003 H         1 ATP         0.0788
     39 HO2'       -0.1563   -0.9855    2.0596 H         1 ATP         0.4363
     40 H1'         1.7826    1.9024    1.6451 H         1 ATP         0.1225
     41 H8         -1.4030    1.8165    0.9473 H         1 ATP         0.3824
     42 HN62       -1.3197    6.9504   -2.4583 H         1 ATP         0.4018
     43 H2          2.8857    5.5186   -2.1994 H         1 ATP         0.0652
     44 H44         0.9433    6.6815   -2.6502 H         1 ATP         0.4503
     45 H45        -2.4254    3.8199   -0.2108 H         1 ATP         0.5209
@<TRIPOS>BOND
     1    1    2 2
     2    1    3 1
     3    1    4 1
     4    1    8 1
     5    4   32 1
     6    5    6 2
     7    5    7 1
     8    5    8 1
     9    5   12 1
    10    9   10 2
    11    9   11 1
    12    9   12 1
    13    9   13 1
    14   13   14 1
    15   14   15 1
    16   14   33 1
    17   14   34 1
    18   15   16 1
    19   15   17 1
    20   15   35 1
    21   16   21 1
    22   17   18 1
    23   17   19 1
    24   17   36 1
    25   18   37 1
    26   19   20 1
    27   19   21 1
    28   19   38 1
    29   20   39 1
    30   21   22 1
    31   21   40 1
    32   22   23 ar
    33   22   31 ar
    34   23   24 ar
    35   23   41 1
    36   24   25 ar
    37   24   45 1
    38   25   26 ar
    39   25   31 ar
    40   26   27 2
    41   26   28 ar
    42   27   42 1
    43   28   29 ar
    44   28   44 1
    45   29   30 ar
    46   29   43 1
    47   30   31 ar
@<TRIPOS>SUBSTRUCTURE
     1 ATP         1 GROUP 0 A     ****
@<TRIPOS>MOLECULE
[[[3,4-dihydroxy-5-(6-imino-7,8-dihydro-1~{H}-purin-8-ylium-9-yl)tetrahydrofuran-2-yl]methoxy-oxido-phosphoryl]oxy-oxido-phosphoryl] hydrogen phosphate
   45    47     1     0     0
SMALL
USER_CHARGES

@<TRIPOS>ATOM
      1 PG          1.1735   -7.3237   -1.4722 P.3       1 ATP         1.5631
      2 O1G         2.3893   -8.0354   -2.0225 O.co2     1 ATP        -0.8806
      3 O2G        -0.2042   -7.5888   -2.0372 O.co2     1 ATP        -0.8806
      4 O3G         1.1246   -7.5543    0.1434 O.3       1 ATP        -0.8165
      5 PB          0.5532   -4.4960   -0.8702 P.3       1 ATP         1.6877
      6 O1B        -0.7383   -4.4028   -1.6518 O.co2     1 ATP        -0.8727
      7 O2B         0.5497   -4.6079    0.6381 O.co2     1 ATP        -0.8727
      8 O3B         1.4493   -5.7151   -1.4835 O.3       1 ATP        -0.8330
      9 PA          2.0064   -2.7685   -2.7831 P.3       1 ATP         1.6036
     10 O1A         0.8006   -2.2901   -3.5625 O.co2     1 ATP        -0.9062
     11 O2A         2.9220   -3.8315   -3.3500 O.co2     1 ATP        -0.9062
     12 O3A         1.5163   -3.2502   -1.3007 O.3       1 ATP        -0.8166
     13 O5'         2.9216   -1.4836   -2.3516 O.3       1 ATP        -0.5510
     14 C5'         2.2816   -0.2918   -1.9206 C.3       1 ATP         0.2099
     15 C4'         2.7248    0.0226   -0.4980 C.3       1 ATP         0.0598
     16 O4'         2.4697    1.4219   -0.2462 O.3       1 ATP        -0.3455
     17 C3'         1.9404   -0.7419    0.5596 C.3       1 ATP         0.0742
     18 O3'         2.7418   -0.8086    1.7389 O.3       1 ATP        -0.6025
     19 C2'         0.7477    0.1630    0.7858 C.3       1 ATP         0.1145
     20 O2'         0.1373   -0.0577    2.0407 O.3       1 ATP        -0.5835
     21 C1'         1.3733    1.5427    0.6747 C.3       1 ATP         0.3776
     22 N9          0.4520    2.5240    0.1767 N.pl3     1 ATP        -0.4429
     23 C8          0.2216    2.8192   -1.0985 C.ar      1 ATP         0.2964
     24 N7         -0.6906    3.7763   -1.2384 N.pl3     1 ATP        -0.4957
     25 C5         -1.0575    4.1037    0.0366 C.ar      1 ATP        -0.1346
     26 C6         -2.0291    5.0943    0.5330 C.ar      1 ATP         0.7213
     27 N6         -2.7093    5.8371   -0.2800 N.2       1 ATP        -0.8215
     28 N1         -2.1051    5.1136    1.9204 N.pl3     1 ATP        -0.8455
     29 C2         -1.3354    4.2774    2.7129 C.ar      1 ATP         0.6477
     30 N3         -0.4707    3.3945    2.2944 N.2       1 ATP        -0.5707
     31 C4         -0.3734    3.3525    0.9220 C.ar      1 ATP         0.2637
     32 HOG3        0.3878   -7.1512    0.6504 H         1 ATP         0.4378
     33 H5'1        2.5589    0.5217   -2.5976 H         1 ATP         0.0340
     34 H5'2        1.1982   -0.4388   -1.9617 H         1 ATP         0.0340
     35 H4'         3.8044   -0.1397   -0.4040 H         1 ATP         0.0910
     36 H3'         1.6764   -1.7639    0.2728 H         1 ATP         0.0656
     37 HO3'        2.2232   -1.2979    2.3953 H         1 ATP         0.4386
     38 H2'        -0.0011    0.0027    0.0003 H         1 ATP         0.0788
     39 HO2'       -0.6141    0.5574    2.1082 H         1 ATP         0.4363
     40 H1'         1.7826    1.9024    1.6451 H         1 ATP         0.1225
     41 H8          0.7125    2.3429   -1.9292 H         1 ATP         0.3824
     42 HN62       -3.3217    6.4517    0.2629 H         1 ATP         0.4018
     43 H2         -1.5188    4.4223    3.7890 H         1 ATP         0.0652
     44 H44        -2.7470    5.7626    2.3665 H         1 ATP         0.4503
     45 H45        -1.0305    4.1680   -2.1054 H         1 ATP         0.5209
@<TRIPOS>BOND
     1    1    2 2
     2    1    3 1
     3    1    4 1
     4    1    8 1
     5    4   32 1
     6    5    6 2
     7    5    7 1
     8    5    8 1
     9    5   12 1
    10    9   10 2
    11    9   11 1
    12    9   12 1
    13    9   13 1
    14   13   14 1
    15   14   15 1
    16   14   33 1
    17   14   34 1
    18   15   16 1
    19   15   17 1
    20   15   35 1
    21   16   21 1
    22   17   18 1
    23   17   19 1
    24   17   36 1
    25   18   37 1
    26   19   20 1
    27   19   21 1
    28   19   38 1
    29   20   39 1
    30   21   22 1
    31   21   40 1
    32   22   23 ar
    33   22   31 ar
    34   23   24 ar
    35   23   41 1
    36   24   25 ar
    37   24   45 1
    38   25   26 ar
    39   25   31 ar
    40   26   27 2
    41   26   28 ar
    42   27   42 1
    43   28   29 ar
    44   28   44 1
    45   29   30 ar
    46   29   43 1
    47   30   31 ar
@<TRIPOS>SUBSTRUCTURE
     1 ATP         1 GROUP 0 A     ****
@<TRIPOS>MOLECULE
[[[3,4-dihydroxy-5-(6-imino-7,8-dihydro-1~{H}-purin-8-ylium-9-yl)tetrahydrofuran-2-yl]methoxy-oxido-phosphoryl]oxy-oxido-phosphoryl] hydrogen phosphate
   45    47     1     0     0
SMALL
USER_CHARGES

@<TRIPOS>ATOM
      1 PG          5.4089   -4.4746   -0.1049 P.3       1 ATP         1.5631
      2 O1G         5.9503   -5.7636   -0.6818 O.co2     1 ATP        -0.8806
      3 O2G         6.2233   -3.6588    0.8743 O.co2     1 ATP        -0.8806
      4 O3G         4.9564   -3.5044   -1.3378 O.3       1 ATP        -0.8165
      5 PB          3.5169   -5.6601    1.8337 P.3       1 ATP         1.6877
      6 O1B         3.7947   -7.1138    1.5223 O.co2     1 ATP        -0.8727
      7 O2B         4.0706   -5.0063    3.0801 O.co2     1 ATP        -0.8727
      8 O3B         3.9363   -4.7581    0.5391 O.3       1 ATP        -0.8330
      9 PA          0.7271   -5.9839    2.7651 P.3       1 ATP         1.6036
     10 O1A         0.9178   -5.3973    4.1471 O.co2     1 ATP        -0.9062
     11 O2A         0.6273   -7.4807    2.5671 O.co2     1 ATP        -0.9062
     12 O3A         1.9039   -5.4136    1.7854 O.3       1 ATP        -0.8166
     13 O5'        -0.5687   -5.2869    2.0510 O.3       1 ATP        -0.5510
     14 C5'        -0.7840   -3.8935    2.2172 C.3       1 ATP         0.2099
     15 C4'        -0.0724   -3.1466    1.1027 C.3       1 ATP         0.0598
     16 O4'        -0.8674   -3.1929   -0.0945 O.3       1 ATP        -0.3455
     17 C3'         0.1338   -1.6715    1.4027 C.3       1 ATP         0.0742
     18 O3'         1.2893   -1.4445    2.1808 O.3       1 ATP        -0.6025
     19 C2'         0.2158   -1.0724    0.0128 C.3       1 ATP         0.1145
     20 O2'         1.5141   -1.2448   -0.5513 O.3       1 ATP        -0.5835
     21 C1'        -0.7897   -1.9176   -0.7583 C.3       1 ATP         0.3776
     22 N9         -2.1040   -1.3333   -0.7704 N.pl3     1 ATP        -0.4429
     23 C8         -3.0590   -1.5123    0.1363 C.ar      1 ATP         0.2964
     24 N7         -4.1655   -0.8354   -0.1554 N.pl3     1 ATP        -0.4957
     25 C5         -3.8852   -0.1874   -1.3253 C.ar      1 ATP        -0.1346
     26 C6         -4.7113    0.7160   -2.1458 C.ar      1 ATP         0.7213
     27 N6         -5.9213    1.0209   -1.8021 N.2       1 ATP        -0.8215
     28 N1         -4.0411    1.1673   -3.2764 N.pl3     1 ATP        -0.8455
     29 C2         -2.7403    0.7865   -3.5638 C.ar      1 ATP         0.6477
     30 N3         -1.9921   -0.0108   -2.8519 N.2       1 ATP        -0.5707
     31 C4         -2.6302   -0.4747   -1.7239 C.ar      1 ATP         0.2637
     32 HOG3        4.5814   -2.6233   -1.1250 H         1 ATP         0.4378
     33 H5'1       -1.8598   -3.6968    2.1850 H         1 ATP         0.0340
     34 H5'2       -0.3933   -3.5903    3.1931 H         1 ATP         0.0340
     35 H4'         0.8874   -3.6466    0.8805 H         1 ATP         0.0910
     36 H3'        -0.7376   -1.2333    1.9867 H         1 ATP         0.0656
     37 HO3'        1.3408   -0.4870    2.3219 H         1 ATP         0.4386
     38 H2'        -0.0384   -0.0310    0.0096 H         1 ATP         0.0788
     39 HO2'        1.4998   -0.8412   -1.4369 H         1 ATP         0.4363
     40 H1'        -0.4769   -2.1002   -1.8093 H         1 ATP         0.1225
     41 H8         -2.9569   -2.1323    1.0098 H         1 ATP         0.3824
     42 HN62       -6.3169    1.6552   -2.5012 H         1 ATP         0.4018
     43 H2         -2.3612    1.2343   -4.4957 H         1 ATP         0.0652
     44 H44        -4.5223    1.7976   -3.9117 H         1 ATP         0.4503
     45 H45        -5.0218   -0.8132    0.3804 H         1 ATP         0.5209
@<TRIPOS>BOND
     1    1    2 2
     2    1    3 1
     3    1    4 1
     4    1    8 1
     5    4   32 1
     6    5    6 2
     7    5    7 1
     8    5    8 1
     9    5   12 1
    10    9   10 2
    11    9   11 1
    12    9   12 1
    13    9   13 1
    14   13   14 1
    15   14   15 1
    16   14   33 1
    17   14   34 1
    18   15   16 1
    19   15   17 1
    20   15   35 1
    21   16   21 1
    22   17   18 1
    23   17   19 1
    24   17   36 1
    25   18   37 1
    26   19   20 1
    27   19   21 1
    28   19   38 1
    29   20   39 1
    30   21   22 1
    31   21   40 1
    32   22   23 ar
    33   22   31 ar
    34   23   24 ar
    35   23   41 1
    36   24   25 ar
    37   24   45 1
    38   25   26 ar
    39   25   31 ar
    40   26   27 2
    41   26   28 ar
    42   27   42 1
    43   28   29 ar
    44   28   44 1
    45   29   30 ar
    46   29   43 1
    47   30   31 ar
@<TRIPOS>SUBSTRUCTURE
     1 ATP         1 GROUP 0 A     ****
@<TRIPOS>MOLECULE
[[[3,4-dihydroxy-5-(6-imino-7,8-dihydro-1~{H}-purin-8-ylium-9-yl)tetrahydrofuran-2-yl]methoxy-oxido-phosphoryl]oxy-oxido-phosphoryl] hydrogen phosphate
   45    47     1     0     0
SMALL
USER_CHARGES

@<TRIPOS>ATOM
      1 PG          7.4581   -0.3958   -5.6498 P.3       1 ATP         1.5631
      2 O1G         8.3202    0.2575   -4.5927 O.co2     1 ATP        -0.8806
      3 O2G         7.2192    0.2774   -6.9830 O.co2     1 ATP        -0.8806
      4 O3G         8.0255   -1.9020   -5.9239 O.3       1 ATP        -0.8165
      5 PB          4.7775   -1.6435   -5.6233 P.3       1 ATP         1.6877
      6 O1B         4.1761   -0.8520   -6.7632 O.co2     1 ATP        -0.8727
      7 O2B         5.2213   -3.0769   -5.8133 O.co2     1 ATP        -0.8727
      8 O3B         6.0180   -0.7908   -4.9912 O.3       1 ATP        -0.8330
      9 PA          3.9668   -2.1116   -2.8163 P.3       1 ATP         1.6036
     10 O1A         5.0719   -1.3107   -2.1623 O.co2     1 ATP        -0.9062
     11 O2A         4.0210   -3.6235   -2.8465 O.co2     1 ATP        -0.9062
     12 O3A         3.7633   -1.5743   -4.3459 O.3       1 ATP        -0.8166
     13 O5'         2.5245   -1.6648   -2.1878 O.3       1 ATP        -0.5510
     14 C5'         2.2816   -0.2918   -1.9206 C.3       1 ATP         0.2099
     15 C4'         2.7248    0.0226   -0.4980 C.3       1 ATP         0.0598
     16 O4'         2.4697    1.4219   -0.2462 O.3       1 ATP        -0.3455
     17 C3'         1.9404   -0.7419    0.5596 C.3       1 ATP         0.0742
     18 O3'         2.7418   -0.8086    1.7389 O.3       1 ATP        -0.6025
     19 C2'         0.7477    0.1630    0.7858 C.3       1 ATP         0.1145
     20 O2'         0.1373   -0.0577    2.0407 O.3       1 ATP        -0.5835
     21 C1'         1.3733    1.5427    0.6747 C.3       1 ATP         0.3776
     22 N9          0.4520    2.5240    0.1767 N.pl3     1 ATP        -0.4429
     23 C8         -0.8620    2.5492    0.3743 C.ar      1 ATP         0.2964
     24 N7         -1.4419    3.5886   -0.2183 N.pl3     1 ATP        -0.4957
     25 C5         -0.4215    4.2614   -0.8294 C.ar      1 ATP        -0.1346
     26 C6         -0.4310    5.4918   -1.6405 C.ar      1 ATP         0.7213
     27 N6         -1.5302    6.1308   -1.8826 N.2       1 ATP        -0.8215
     28 N1          0.8382    5.8461   -2.0817 N.pl3     1 ATP        -0.8455
     29 C2          1.9625    5.0982   -1.7709 C.ar      1 ATP         0.6477
     30 N3          1.9930    4.0077   -1.0554 N.2       1 ATP        -0.5707
     31 C4          0.7483    3.6314   -0.6038 C.ar      1 ATP         0.2637
     32 HOG3        7.5687   -2.4591   -6.5897 H         1 ATP         0.4378
     33 H5'1        2.8432    0.3119   -2.6398 H         1 ATP         0.0340
     34 H5'2        1.2128   -0.0927   -2.0428 H         1 ATP         0.0340
     35 H4'         3.8044   -0.1397   -0.4040 H         1 ATP         0.0910
     36 H3'         1.6764   -1.7639    0.2728 H         1 ATP         0.0656
     37 HO3'        2.2232   -1.2979    2.3953 H         1 ATP         0.4386
     38 H2'        -0.0011    0.0027    0.0003 H         1 ATP         0.0788
     39 HO2'       -0.1563   -0.9855    2.0596 H         1 ATP         0.4363
     40 H1'         1.7826    1.9024    1.6451 H         1 ATP         0.1225
     41 H8         -1.4030    1.8165    0.9473 H         1 ATP         0.3824
     42 HN62       -1.3197    6.9504   -2.4583 H         1 ATP         0.4018
     43 H2          2.8857    5.5186   -2.1994 H         1 ATP         0.0652
     44 H44         0.9433    6.6815   -2.6502 H         1 ATP         0.4503
     45 H45        -2.4254    3.8199   -0.2108 H         1 ATP         0.5209
@<TRIPOS>BOND
     1    1    2 2
     2    1    3 1
     3    1    4 1
     4    1    8 1
     5    4   32 1
     6    5    6 2
     7    5    7 1
     8    5    8 1
     9    5   12 1
    10    9   10 2
    11    9   11 1
    12    9   12 1
    13    9   13 1
    14   13   14 1
    15   14   15 1
    16   14   33 1
    17   14   34 1
    18   15   16 1
    19   15   17 1
    20   15   35 1
    21   16   21 1
    22   17   18 1
    23   17   19 1
    24   17   36 1
    25   18   37 1
    26   19   20 1
    27   19   21 1
    28   19   38 1
    29   20   39 1
    30   21   22 1
    31   21   40 1
    32   22   23 ar
    33   22   31 ar
    34   23   24 ar
    35   23   41 1
    36   24   25 ar
    37   24   45 1
    38   25   26 ar
    39   25   31 ar
    40   26   27 2
    41   26   28 ar
    42   27   42 1
    43   28   29 ar
    44   28   44 1
    45   29   30 ar
    46   29   43 1
    47   30   31 ar
@<TRIPOS>SUBSTRUCTURE
     1 ATP         1 GROUP 0 A     ****
@<TRIPOS>MOLECULE
[[[3,4-dihydroxy-5-(6-imino-7,8-dihydro-1~{H}-purin-8-ylium-9-yl)tetrahydrofuran-2-yl]methoxy-oxido-phosphoryl]oxy-oxido-phosphoryl] hydrogen phosphate
   45    47     1     0     0
SMALL
USER_CHARGES

@<TRIPOS>ATOM
      1 PG         -0.1587   -5.1174    1.9317 P.3       1 ATP         1.5631
      2 O1G        -1.6351   -5.2202    1.6201 O.co2     1 ATP        -0.8806
      3 O2G         0.3190   -4.6027    3.2713 O.co2     1 ATP        -0.8806
      4 O3G         0.5313   -6.5719    1.6591 O.3       1 ATP        -0.8165
      5 PB          0.5532   -4.4960   -0.8702 P.3       1 ATP         1.6877
      6 O1B         1.2651   -5.7918   -1.1887 O.co2     1 ATP        -0.8727
      7 O2B        -0.8458   -4.2255   -1.3775 O.co2     1 ATP        -0.8727
      8 O3B         0.5765   -4.2697    0.7465 O.3       1 ATP        -0.8330
      9 PA          2.0064   -2.7685   -2.7831 P.3       1 ATP         1.6036
     10 O1A         0.8006   -2.2901   -3.5625 O.co2     1 ATP        -0.9062
     11 O2A         2.9220   -3.8315   -3.3500 O.co2     1 ATP        -0.9062
     12 O3A         1.5163   -3.2502   -1.3007 O.3       1 ATP        -0.8166
     13 O5'         2.9216   -1.4836   -2.3516 O.3       1 ATP        -0.5510
     14 C5'         2.2816   -0.2918   -1.9206 C.3       1 ATP         0.2099
     15 C4'         2.7248    0.0226   -0.4980 C.3       1 ATP         0.0598
     16 O4'         2.4697    1.4219   -0.2462 O.3       1 ATP        -0.3455
     17 C3'         1.9404   -0.7419    0.5596 C.3       1 ATP         0.0742
     18 O3'         2.7418   -0.8086    1.7389 O.3       1 ATP        -0.6025
     19 C2'         0.7477    0.1630    0.7858 C.3       1 ATP         0.1145
     20 O2'         0.1373   -0.0577    2.0407 O.3       1 ATP        -0.5835
     21 C1'         1.3733    1.5427    0.6747 C.3       1 ATP         0.3776
     22 N9          0.4520    2.5240    0.1767 N.pl3     1 ATP        -0.4429
     23 C8         -0.2004    2.4829   -0.9804 C.ar      1 ATP         0.2964
     24 N7         -0.9830    3.5431   -1.1568 N.pl3     1 ATP        -0.4957
     25 C5         -0.8095    4.3012   -0.0331 C.ar      1 ATP        -0.1346
     26 C6         -1.4065    5.5904    0.3585 C.ar      1 ATP         0.7213
     27 N6         -2.2501    6.2030   -0.4084 N.2       1 ATP        -0.8215
     28 N1         -0.9585    6.0272    1.5994 N.pl3     1 ATP        -0.8455
     29 C2         -0.0508    5.3009    2.3532 C.ar      1 ATP         0.6477
     30 N3          0.4890    4.1592    2.0257 N.2       1 ATP        -0.5707
     31 C4          0.0637    3.7006    0.7995 C.ar      1 ATP         0.2637
     32 HOG3        1.4947   -6.6685    1.8168 H         1 ATP         0.4378
     33 H5'1        2.5589    0.5217   -2.5976 H         1 ATP         0.0340
     34 H5'2        1.1982   -0.4388   -1.9617 H         1 ATP         0.0340
     35 H4'         3.8044   -0.1397   -0.4040 H         1 ATP         0.0910
     36 H3'         1.6764   -1.7639    0.2728 H         1 ATP         0.0656
     37 HO3'        2.2232   -1.2979    2.3953 H         1 ATP         0.4386
     38 H2'        -0.0011    0.0027    0.0003 H         1 ATP         0.0788
     39 HO2'       -0.6141    0.5574    2.1082 H         1 ATP         0.4363
     40 H1'         1.7826    1.9024    1.6451 H         1 ATP         0.1225
     41 H8         -0.1116    1.6863   -1.6984 H         1 ATP         0.3824
     42 HN62       -2.5420    7.0730    0.0447 H         1 ATP         0.4018
     43 H2          0.1969    5.7893    3.3086 H         1 ATP         0.0652
     44 H44        -1.3097    6.9080    1.9642 H         1 ATP         0.4503
     45 H45        -1.5735    3.7351   -1.9538 H         1 ATP         0.5209
@<TRIPOS>BOND
     1    1    2 2
     2    1    3 1
     3    1    4 1
     4    1    8 1
     5    4   32 1
     6    5    6 2
     7    5    7 1
     8    5    8 1
     9    5   12 1
    10    9   10 2
    11    9   11 1
    12    9   12 1
    13    9   13 1
    14   13   14 1
    15   14   15 1
    16   14   33 1
    17   14   34 1
    18   15   16 1
    19   15   17 1
    20   15   35 1
    21   16   21 1
    22   17   18 1
    23   17   19 1
    24   17   36 1
    25   18   37 1
    26   19   20 1
    27   19   21 1
    28   19   38 1
    29   20   39 1
    30   21   22 1
    31   21   40 1
    32   22   23 ar
    33   22   31 ar
    34   23   24 ar
    35   23   41 1
    36   24   25 ar
    37   24   45 1
    38   25   26 ar
    39   25   31 ar
    40   26   27 2
    41   26   28 ar
    42   27   42 1
    43   28   29 ar
    44   28   44 1
    45   29   30 ar
    46   29   43 1
    47   30   31 ar
@<TRIPOS>SUBSTRUCTURE
     1 ATP         1 GROUP 0 A     ****
@<TRIPOS>MOLECULE
[[[3,4-dihydroxy-5-(6-imino-7,8-dihydro-1~{H}-purin-8-ylium-9-yl)tetrahydrofuran-2-yl]methoxy-oxido-phosphoryl]oxy-oxido-phosphoryl] hydrogen phosphate
   45    47     1     0     0
SMALL
USER_CHARGES

@<TRIPOS>ATOM
      1 PG         -1.0694    0.8723   -5.4266 P.3       1 ATP         1.5631
      2 O1G        -1.0207    1.8440   -4.2687 O.co2     1 ATP        -0.8806
      3 O2G        -1.4465   -0.5764   -5.2103 O.co2     1 ATP        -0.8806
      4 O3G        -2.0393    1.4932   -6.5842 O.3       1 ATP        -0.8165
      5 PB          1.8436    0.4860   -5.7558 P.3       1 ATP         1.6877
      6 O1B         1.7860   -0.9419   -5.2605 O.co2     1 ATP        -0.8727
      7 O2B         2.8377    0.9083   -6.8146 O.co2     1 ATP        -0.8727
      8 O3B         0.3482    0.9353   -6.2329 O.3       1 ATP        -0.8330
      9 PA          3.2344    1.6562   -3.4210 P.3       1 ATP         1.6036
     10 O1A         2.8137    2.6124   -2.3260 O.co2     1 ATP        -0.9062
     11 O2A         4.4988    1.8986   -4.2160 O.co2     1 ATP        -0.9062
     12 O3A         1.9940    1.4803   -4.4699 O.3       1 ATP        -0.8166
     13 O5'         3.2903    0.1346   -2.8241 O.3       1 ATP        -0.5510
     14 C5'         2.2816   -0.2918   -1.9206 C.3       1 ATP         0.2099
     15 C4'         2.7248    0.0226   -0.4980 C.3       1 ATP         0.0598
     16 O4'         2.4697    1.4219   -0.2462 O.3       1 ATP        -0.3455
     17 C3'         1.9404   -0.7419    0.5596 C.3       1 ATP         0.0742
     18 O3'         2.7418   -0.8086    1.7389 O.3       1 ATP        -0.6025
     19 C2'         0.7477    0.1630    0.7858 C.3       1 ATP         0.1145
     20 O2'         0.1373   -0.0577    2.0407 O.3       1 ATP        -0.5835
     21 C1'         1.3733    1.5427    0.6747 C.3       1 ATP         0.3776
     22 N9          0.4520    2.5240    0.1767 N.pl3     1 ATP        -0.4429
     23 C8         -0.2004    2.4829   -0.9804 C.ar      1 ATP         0.2964
     24 N7         -0.9830    3.5431   -1.1568 N.pl3     1 ATP        -0.4957
     25 C5         -0.8095    4.3012   -0.0331 C.ar      1 ATP        -0.1346
     26 C6         -1.4065    5.5904    0.3585 C.ar      1 ATP         0.7213
     27 N6         -2.2501    6.2030   -0.4084 N.2       1 ATP        -0.8215
     28 N1         -0.9585    6.0272    1.5994 N.pl3     1 ATP        -0.8455
     29 C2         -0.0508    5.3009    2.3532 C.ar      1 ATP         0.6477
     30 N3          0.4890    4.1592    2.0257 N.2       1 ATP        -0.5707
     31 C4          0.0637    3.7006    0.7995 C.ar      1 ATP         0.2637
     32 HOG3       -2.1743    0.9763   -7.4069 H         1 ATP         0.4378
     33 H5'1        1.3514    0.2330   -2.1577 H         1 ATP         0.0340
     34 H5'2        2.1280   -1.3678   -2.0460 H         1 ATP         0.0340
     35 H4'         3.8044   -0.1397   -0.4040 H         1 ATP         0.0910
     36 H3'         1.6764   -1.7639    0.2728 H         1 ATP         0.0656
     37 HO3'        2.2232   -1.2979    2.3953 H         1 ATP         0.4386
     38 H2'        -0.0011    0.0027    0.0003 H         1 ATP         0.0788
     39 HO2'       -0.6141    0.5574    2.1082 H         1 ATP         0.4363
     40 H1'         1.7826    1.9024    1.6451 H         1 ATP         0.1225
     41 H8         -0.1116    1.6863   -1.6984 H         1 ATP         0.3824
     42 HN62       -2.5420    7.0730    0.0447 H         1 ATP         0.4018
     43 H2          0.1969    5.7893    3.3086 H         1 ATP         0.0652
     44 H44        -1.3097    6.9080    1.9642 H         1 ATP         0.4503
     45 H45        -1.5735    3.7351   -1.9538 H         1 ATP         0.5209
@<TRIPOS>BOND
     1    1    2 2
     2    1    3 1
     3    1    4 1
     4    1    8 1
     5    4   32 1
     6    5    6 2
     7    5    7 1
     8    5    8 1
     9    5   12 1
    10    9   10 2
    11    9   11 1
    12    9   12 1
    13    9   13 1
    14   13   14 1
    15   14   15 1
    16   14   33 1
    17   14   34 1
    18   15   16 1
    19   15   17 1
    20   15   35 1
    21   16   21 1
    22   17   18 1
    23   17   19 1
    24   17   36 1
    25   18   37 1
    26   19   20 1
    27   19   21 1
    28   19   38 1
    29   20   39 1
    30   21   22 1
    31   21   40 1
    32   22   23 ar
    33   22   31 ar
    34   23   24 ar
    35   23   41 1
    36   24   25 ar
    37   24   45 1
    38   25   26 ar
    39   25   31 ar
    40   26   27 2
    41   26   28 ar
    42   27   42 1
    43   28   29 ar
    44   28   44 1
    45   29   30 ar
    46   29   43 1
    47   30   31 ar
@<TRIPOS>SUBSTRUCTURE
     1 ATP         1 GROUP 0 A     ****
@<TRIPOS>MOLECULE
[[[3,4-dihydroxy-5-(6-imino-7,8-dihydro-1~{H}-purin-8-ylium-9-yl)tetrahydrofuran-2-yl]methoxy-oxido-phosphoryl]oxy-oxido-phosphoryl] hydrogen phosphate
   45    47     1     0     0
SMALL
USER_CHARGES

@<TRIPOS>ATOM
      1 PG         -2.2460   -4.7856   -1.7781 P.3       1 ATP         1.5631
      2 O1G        -2.9110   -4.7360   -0.4206 O.co2     1 ATP        -0.8806
      3 O2G        -2.0881   -6.0947   -2.5189 O.co2     1 ATP        -0.8806
      4 O3G        -2.9960   -3.7201   -2.7621 O.3       1 ATP        -0.8165
      5 PB          0.5532   -4.4960   -0.8702 P.3       1 ATP         1.6877
      6 O1B         0.2746   -4.4032    0.6135 O.co2     1 ATP        -0.8727
      7 O2B         1.0967   -5.7653   -1.4873 O.co2     1 ATP        -0.8727
      8 O3B        -0.7910   -4.0523   -1.6839 O.3       1 ATP        -0.8330
      9 PA          2.0064   -2.7685   -2.7831 P.3       1 ATP         1.6036
     10 O1A         0.8006   -2.2901   -3.5625 O.co2     1 ATP        -0.9062
     11 O2A         2.9220   -3.8315   -3.3500 O.co2     1 ATP        -0.9062
     12 O3A         1.5163   -3.2502   -1.3007 O.3       1 ATP        -0.8166
     13 O5'         2.9216   -1.4836   -2.3516 O.3       1 ATP        -0.5510
     14 C5'         2.2816   -0.2918   -1.9206 C.3       1 ATP         0.2099
     15 C4'         2.7248    0.0226   -0.4980 C.3       1 ATP         0.0598
     16 O4'         2.4697    1.4219   -0.2462 O.3       1 ATP        -0.3455
     17 C3'         1.9404   -0.7419    0.5596 C.3       1 ATP         0.0742
     18 O3'         2.7418   -0.8086    1.7389 O.3       1 ATP        -0.6025
     19 C2'         0.7477    0.1630    0.7858 C.3       1 ATP         0.1145
     20 O2'         0.1373   -0.0577    2.0407 O.3       1 ATP        -0.5835
     21 C1'         1.3733    1.5427    0.6747 C.3       1 ATP         0.3776
     22 N9          0.4520    2.5240    0.1767 N.pl3     1 ATP        -0.4429
     23 C8         -0.2004    2.4829   -0.9804 C.ar      1 ATP         0.2964
     24 N7         -0.9830    3.5431   -1.1568 N.pl3     1 ATP        -0.4957
     25 C5         -0.8095    4.3012   -0.0331 C.ar      1 ATP        -0.1346
     26 C6         -1.4065    5.5904    0.3585 C.ar      1 ATP         0.7213
     27 N6         -2.2501    6.2030   -0.4084 N.2       1 ATP        -0.8215
     28 N1         -0.9585    6.0272    1.5994 N.pl3     1 ATP        -0.8455
     29 C2         -0.0508    5.3009    2.3532 C.ar      1 ATP         0.6477
     30 N3          0.4890    4.1592    2.0257 N.2       1 ATP        -0.5707
     31 C4          0.0637    3.7006    0.7995 C.ar      1 ATP         0.2637
     32 HOG3       -2.6776   -3.6339   -3.6860 H         1 ATP         0.4378
     33 H5'1        2.5589    0.5217   -2.5976 H         1 ATP         0.0340
     34 H5'2        1.1982   -0.4388   -1.9617 H         1 ATP         0.0340
     35 H4'         3.8044   -0.1397   -0.4040 H         1 ATP         0.0910
     36 H3'         1.6764   -1.7639    0.2728 H         1 ATP         0.0656
     37 HO3'        2.2232   -1.2979    2.3953 H         1 ATP         0.4386
     38 H2'        -0.0011    0.0027    0.0003 H         1 ATP         0.0788
     39 HO2'       -0.1563   -0.9855    2.0596 H         1 ATP         0.4363
     40 H1'         1.7826    1.9024    1.6451 H         1 ATP         0.1225
     41 H8         -0.1116    1.6863   -1.6984 H         1 ATP         0.3824
     42 HN62       -2.5420    7.0730    0.0447 H         1 ATP         0.4018
     43 H2          0.1969    5.7893    3.3086 H         1 ATP         0.0652
     44 H44        -1.3097    6.9080    1.9642 H         1 ATP         0.4503
     45 H45        -1.5735    3.7351   -1.9538 H         1 ATP         0.5209
@<TRIPOS>BOND
     1    1    2 2
     2    1    3 1
     3    1    4 1
     4    1    8 1
     5    4   32 1
     6    5    6 2
     7    5    7 1
     8    5    8 1
     9    5   12 1
    10    9   10 2
    11    9   11 1
    12    9   12 1
    13    9   13 1
    14   13   14 1
    15   14   15 1
    16   14   33 1
    17   14   34 1
    18   15   16 1
    19   15   17 1
    20   15   35 1
    21   16   21 1
    22   17   18 1
    23   17   19 1
    24   17   36 1
    25   18   37 1
    26   19   20 1
    27   19   21 1
    28   19   38 1
    29   20   39 1
    30   21   22 1
    31   21   40 1
    32   22   23 ar
    33   22   31 ar
    34   23   24 ar
    35   23   41 1
    36   24   25 ar
    37   24   45 1
    38   25   26 ar
    39   25   31 ar
    40   26   27 2
    41   26   28 ar
    42   27   42 1
    43   28   29 ar
    44   28   44 1
    45   29   30 ar
    46   29   43 1
    47   30   31 ar
@<TRIPOS>SUBSTRUCTURE
     1 ATP         1 GROUP 0 A     ****
@<TRIPOS>MOLECULE
[[[3,4-dihydroxy-5-(6-imino-7,8-dihydro-1~{H}-purin-8-ylium-9-yl)tetrahydrofuran-2-yl]methoxy-oxido-phosphoryl]oxy-oxido-phosphoryl] hydrogen phosphate
   45    47     1     0     0
SMALL
USER_CHARGES

@<TRIPOS>ATOM
      1 PG          2.1120   -8.4953    6.8337 P.3       1 ATP         1.5631
      2 O1G         2.7026   -7.7108    7.9840 O.co2     1 ATP        -0.8806
      3 O2G         2.9624   -9.4512    6.0270 O.co2     1 ATP        -0.8806
      4 O3G         0.7986   -9.3003    7.3751 O.3       1 ATP        -0.8165
      5 PB          0.4405   -7.7708    4.5046 P.3       1 ATP         1.6877
      6 O1B         1.3090   -8.3916    3.4332 O.co2     1 ATP        -0.8727
      7 O2B        -0.8383   -8.4376    4.9601 O.co2     1 ATP        -0.8727
      8 O3B         1.3653   -7.4624    5.8143 O.3       1 ATP        -0.8330
      9 PA          1.1153   -5.0160    3.6616 P.3       1 ATP         1.6036
     10 O1A         1.7973   -5.3763    2.3595 O.co2     1 ATP        -0.9062
     11 O2A         1.9269   -4.6320    4.8795 O.co2     1 ATP        -0.9062
     12 O3A         0.1056   -6.2308    4.0794 O.3       1 ATP        -0.8166
     13 O5'         0.0118   -3.8395    3.3916 O.3       1 ATP        -0.5510
     14 C5'        -0.7840   -3.8935    2.2172 C.3       1 ATP         0.2099
     15 C4'        -0.0724   -3.1466    1.1027 C.3       1 ATP         0.0598
     16 O4'        -0.8674   -3.1929   -0.0945 O.3       1 ATP        -0.3455
     17 C3'         0.1338   -1.6715    1.4027 C.3       1 ATP         0.0742
     18 O3'         1.2893   -1.4445    2.1808 O.3       1 ATP        -0.6025
     19 C2'         0.2158   -1.0724    0.0128 C.3       1 ATP         0.1145
     20 O2'         1.5141   -1.2448   -0.5513 O.3       1 ATP        -0.5835
     21 C1'        -0.7897   -1.9176   -0.7583 C.3       1 ATP         0.3776
     22 N9         -2.1040   -1.3333   -0.7704 N.pl3     1 ATP        -0.4429
     23 C8         -3.2114   -1.8635   -0.2619 C.ar      1 ATP         0.2964
     24 N7         -4.2711   -1.0786   -0.4314 N.pl3     1 ATP        -0.4957
     25 C5         -3.7955    0.0193   -1.0917 C.ar      1 ATP        -0.1346
     26 C6         -4.4862    1.2344   -1.5586 C.ar      1 ATP         0.7213
     27 N6         -5.7554    1.4030   -1.3689 N.2       1 ATP        -0.8215
     28 N1         -3.6267    2.1218   -2.1949 N.pl3     1 ATP        -0.8455
     29 C2         -2.2761    1.8558   -2.3521 C.ar      1 ATP         0.6477
     30 N3         -1.6453    0.7881   -1.9466 N.2       1 ATP        -0.5707
     31 C4         -2.4722   -0.1108   -1.3117 C.ar      1 ATP         0.2637
     32 HOG3        0.3003   -9.8599    6.7421 H         1 ATP         0.4378
     33 H5'1       -0.9348   -4.9415    1.9415 H         1 ATP         0.0340
     34 H5'2       -1.7548   -3.4350    2.4278 H         1 ATP         0.0340
     35 H4'         0.8874   -3.6466    0.8805 H         1 ATP         0.0910
     36 H3'        -0.7376   -1.2333    1.9867 H         1 ATP         0.0656
     37 HO3'        1.1626   -1.9325    3.0084 H         1 ATP         0.4386
     38 H2'        -0.0384   -0.0310    0.0096 H         1 ATP         0.0788
     39 HO2'        2.1463   -0.7958    0.0370 H         1 ATP         0.4363
     40 H1'        -0.4769   -2.1002   -1.8093 H         1 ATP         0.1225
     41 H8         -3.2547   -2.8183    0.2325 H         1 ATP         0.3824
     42 HN62       -6.0352    2.3041   -1.7656 H         1 ATP         0.4018
     43 H2         -1.7412    2.6624   -2.8773 H         1 ATP         0.0652
     44 H44        -4.0029    2.9939   -2.5557 H         1 ATP         0.4503
     45 H45        -5.2179   -1.2649   -0.1322 H         1 ATP         0.5209
@<TRIPOS>BOND
     1    1    2 2
     2    1    3 1
     3    1    4 1
     4    1    8 1
     5    4   32 1
     6    5    6 2
     7    5    7 1
     8    5    8 1
     9    5   12 1
    10    9   10 2
    11    9   11 1
    12    9   12 1
    13    9   13 1
    14   13   14 1
    15   14   15 1
    16   14   33 1
    17   14   34 1
    18   15   16 1
    19   15   17 1
    20   15   35 1
    21   16   21 1
    22   17   18 1
    23   17   19 1
    24   17   36 1
    25   18   37 1
    26   19   20 1
    27   19   21 1
    28   19   38 1
    29   20   39 1
    30   21   22 1
    31   21   40 1
    32   22   23 ar
    33   22   31 ar
    34   23   24 ar
    35   23   41 1
    36   24   25 ar
    37   24   45 1
    38   25   26 ar
    39   25   31 ar
    40   26   27 2
    41   26   28 ar
    42   27   42 1
    43   28   29 ar
    44   28   44 1
    45   29   30 ar
    46   29   43 1
    47   30   31 ar
@<TRIPOS>SUBSTRUCTURE
     1 ATP         1 GROUP 0 A     ****
@<TRIPOS>MOLECULE
[[[3,4-dihydroxy-5-(6-imino-7,8-dihydro-1~{H}-purin-8-ylium-9-yl)tetrahydrofuran-2-yl]methoxy-oxido-phosphoryl]oxy-oxido-phosphoryl] hydrogen phosphate
   45    47     1     0     0
SMALL
USER_CHARGES

@<TRIPOS>ATOM
      1 PG          0.0402   -5.7292    8.4129 P.3       1 ATP         1.5631
      2 O1G        -1.2835   -5.2353    8.9526 O.co2     1 ATP        -0.8806
      3 O2G         1.3456   -5.1334    8.8912 O.co2     1 ATP        -0.8806
      4 O3G         0.1077   -7.3489    8.6070 O.3       1 ATP        -0.8165
      5 PB          1.0850   -6.2284    5.6921 P.3       1 ATP         1.6877
      6 O1B         2.3501   -5.4079    5.8090 O.co2     1 ATP        -0.8727
      7 O2B         1.1212   -7.7387    5.7650 O.co2     1 ATP        -0.8727
      8 O3B         0.0014   -5.6776    6.7820 O.3       1 ATP        -0.8330
      9 PA          0.7271   -5.9839    2.7651 P.3       1 ATP         1.6036
     10 O1A         0.7437   -7.4632    2.4464 O.co2     1 ATP        -0.9062
     11 O2A         1.9389   -5.1200    2.4913 O.co2     1 ATP        -0.9062
     12 O3A         0.3000   -5.7884    4.3301 O.3       1 ATP        -0.8166
     13 O5'        -0.5687   -5.2869    2.0510 O.3       1 ATP        -0.5510
     14 C5'        -0.7840   -3.8935    2.2172 C.3       1 ATP         0.2099
     15 C4'        -0.0724   -3.1466    1.1027 C.3       1 ATP         0.0598
     16 O4'        -0.8674   -3.1929   -0.0945 O.3       1 ATP        -0.3455
     17 C3'         0.1338   -1.6715    1.4027 C.3       1 ATP         0.0742
     18 O3'         1.2893   -1.4445    2.1808 O.3       1 ATP        -0.6025
     19 C2'         0.2158   -1.0724    0.0128 C.3       1 ATP         0.1145
     20 O2'         1.5141   -1.2448   -0.5513 O.3       1 ATP        -0.5835
     21 C1'        -0.7897   -1.9176   -0.7583 C.3       1 ATP         0.3776
     22 N9         -2.1040   -1.3333   -0.7704 N.pl3     1 ATP        -0.4429
     23 C8         -3.0590   -1.5123    0.1363 C.ar      1 ATP         0.2964
     24 N7         -4.1655   -0.8354   -0.1554 N.pl3     1 ATP        -0.4957
     25 C5         -3.8852   -0.1874   -1.3253 C.ar      1 ATP        -0.1346
     26 C6         -4.7113    0.7160   -2.1458 C.ar      1 ATP         0.7213
     27 N6         -5.9213    1.0209   -1.8021 N.2       1 ATP        -0.8215
     28 N1         -4.0411    1.1673   -3.2764 N.pl3     1 ATP        -0.8455
     29 C2         -2.7403    0.7865   -3.5638 C.ar      1 ATP         0.6477
     30 N3         -1.9921   -0.0108   -2.8519 N.2       1 ATP        -0.5707
     31 C4         -2.6302   -0.4747   -1.7239 C.ar      1 ATP         0.2637
     32 HOG3        0.9113   -7.8225    8.3034 H         1 ATP         0.4378
     33 H5'1       -1.8598   -3.6968    2.1850 H         1 ATP         0.0340
     34 H5'2       -0.3933   -3.5903    3.1931 H         1 ATP         0.0340
     35 H4'         0.8874   -3.6466    0.8805 H         1 ATP         0.0910
     36 H3'        -0.7376   -1.2333    1.9867 H         1 ATP         0.0656
     37 HO3'        1.1626   -1.9325    3.0084 H         1 ATP         0.4386
     38 H2'        -0.0384   -0.0310    0.0096 H         1 ATP         0.0788
     39 HO2'        1.6843   -2.2021   -0.5965 H         1 ATP         0.4363
     40 H1'        -0.4769   -2.1002   -1.8093 H         1 ATP         0.1225
     41 H8         -2.9569   -2.1323    1.0098 H         1 ATP         0.3824
     42 HN62       -6.3169    1.6552   -2.5012 H         1 ATP         0.4018
     43 H2         -2.3612    1.2343   -4.4957 H         1 ATP         0.0652
     44 H44        -4.5223    1.7976   -3.9117 H         1 ATP         0.4503
     45 H45        -5.0218   -0.8132    0.3804 H         1 ATP         0.5209
@<TRIPOS>BOND
     1    1    2 2
     2    1    3 1
     3    1    4 1
     4    1    8 1
     5    4   32 1
     6    5    6 2
     7    5    7 1
     8    5    8 1
     9    5   12 1
    10    9   10 2
    11    9   11 1
    12    9   12 1
    13    9   13 1
    14   13   14 1
    15   14   15 1
    16   14   33 1
    17   14   34 1
    18   15   16 1
    19   15   17 1
    20   15   35 1
    21   16   21 1
    22   17   18 1
    23   17   19 1
    24   17   36 1
    25   18   37 1
    26   19   20 1
    27   19   21 1
    28   19   38 1
    29   20   39 1
    30   21   22 1
    31   21   40 1
    32   22   23 ar
    33   22   31 ar
    34   23   24 ar
    35   23   41 1
    36   24   25 ar
    37   24   45 1
    38   25   26 ar
    39   25   31 ar
    40   26   27 2
    41   26   28 ar
    42   27   42 1
    43   28   29 ar
    44   28   44 1
    45   29   30 ar
    46   29   43 1
    47   30   31 ar
@<TRIPOS>SUBSTRUCTURE
     1 ATP         1 GROUP 0 A     ****
@<TRIPOS>MOLECULE
[[[3,4-dihydroxy-5-(6-imino-7,8-dihydro-1~{H}-purin-8-ylium-9-yl)tetrahydrofuran-2-yl]methoxy-oxido-phosphoryl]oxy-oxido-phosphoryl] hydrogen phosphate
   45    47     1     0     0
SMALL
USER_CHARGES

@<TRIPOS>ATOM
      1 PG          3.6618   -8.3202    1.2617 P.3       1 ATP         1.5631
      2 O1G         4.4443   -8.0421   -0.0023 O.co2     1 ATP        -0.8806
      3 O2G         2.6792   -9.4680    1.3309 O.co2     1 ATP        -0.8806
      4 O3G         4.7138   -8.4629    2.5022 O.3       1 ATP        -0.8165
      5 PB          3.5194   -5.4590    1.9945 P.3       1 ATP         1.6877
      6 O1B         4.4350   -5.5139    3.1971 O.co2     1 ATP        -0.8727
      7 O2B         3.9922   -4.8902    0.6753 O.co2     1 ATP        -0.8727
      8 O3B         2.9093   -6.9507    1.7328 O.3       1 ATP        -0.8330
      9 PA          1.1153   -5.0160    3.6616 P.3       1 ATP         1.6036
     10 O1A         1.8343   -4.7438    4.9651 O.co2     1 ATP        -0.9062
     11 O2A         0.4525   -6.3525    3.4081 O.co2     1 ATP        -0.9062
     12 O3A         2.1361   -4.7061    2.4240 O.3       1 ATP        -0.8166
     13 O5'         0.0118   -3.8395    3.3916 O.3       1 ATP        -0.5510
     14 C5'        -0.7840   -3.8935    2.2172 C.3       1 ATP         0.2099
     15 C4'        -0.0724   -3.1466    1.1027 C.3       1 ATP         0.0598
     16 O4'        -0.8674   -3.1929   -0.0945 O.3       1 ATP        -0.3455
     17 C3'         0.1338   -1.6715    1.4027 C.3       1 ATP         0.0742
     18 O3'         1.2893   -1.4445    2.1808 O.3       1 ATP        -0.6025
     19 C2'         0.2158   -1.0724    0.0128 C.3       1 ATP         0.1145
     20 O2'         1.5141   -1.2448   -0.5513 O.3       1 ATP        -0.5835
     21 C1'        -0.7897   -1.9176   -0.7583 C.3       1 ATP         0.3776
     22 N9         -2.1040   -1.3333   -0.7704 N.pl3     1 ATP        -0.4429
     23 C8         -3.0590   -1.5123    0.1363 C.ar      1 ATP         0.2964
     24 N7         -4.1655   -0.8354   -0.1554 N.pl3     1 ATP        -0.4957
     25 C5         -3.8852   -0.1874   -1.3253 C.ar      1 ATP        -0.1346
     26 C6         -4.7113    0.7160   -2.1458 C.ar      1 ATP         0.7213
     27 N6         -5.9213    1.0209   -1.8021 N.2       1 ATP        -0.8215
     28 N1         -4.0411    1.1673   -3.2764 N.pl3     1 ATP        -0.8455
     29 C2         -2.7403    0.7865   -3.5638 C.ar      1 ATP         0.6477
     30 N3         -1.9921   -0.0108   -2.8519 N.2       1 ATP        -0.5707
     31 C4         -2.6302   -0.4747   -1.7239 C.ar      1 ATP         0.2637
     32 HOG3        4.3576   -8.6457    3.3978 H         1 ATP         0.4378
     33 H5'1       -0.9348   -4.9415    1.9415 H         1 ATP         0.0340
     34 H5'2       -1.7548   -3.4350    2.4278 H         1 ATP         0.0340
     35 H4'         0.8874   -3.6466    0.8805 H         1 ATP         0.0910
     36 H3'        -0.7376   -1.2333    1.9867 H         1 ATP         0.0656
     37 HO3'        1.1626   -1.9325    3.0084 H         1 ATP         0.4386
     38 H2'        -0.0384   -0.0310    0.0096 H         1 ATP         0.0788
     39 HO2'        2.1463   -0.7958    0.0370 H         1 ATP         0.4363
     40 H1'        -0.4769   -2.1002   -1.8093 H         1 ATP         0.1225
     41 H8         -2.9569   -2.1323    1.0098 H         1 ATP         0.3824
     42 HN62       -6.3169    1.6552   -2.5012 H         1 ATP         0.4018
     43 H2         -2.3612    1.2343   -4.4957 H         1 ATP         0.0652
     44 H44        -4.5223    1.7976   -3.9117 H         1 ATP         0.4503
     45 H45        -5.0218   -0.8132    0.3804 H         1 ATP         0.5209
@<TRIPOS>BOND
     1    1    2 2
     2    1    3 1
     3    1    4 1
     4    1    8 1
     5    4   32 1
     6    5    6 2
     7    5    7 1
     8    5    8 1
     9    5   12 1
    10    9   10 2
    11    9   11 1
    12    9   12 1
    13    9   13 1
    14   13   14 1
    15   14   15 1
    16   14   33 1
    17   14   34 1
    18   15   16 1
    19   15   17 1
    20   15   35 1
    21   16   21 1
    22   17   18 1
    23   17   19 1
    24   17   36 1
    25   18   37 1
    26   19   20 1
    27   19   21 1
    28   19   38 1
    29   20   39 1
    30   21   22 1
    31   21   40 1
    32   22   23 ar
    33   22   31 ar
    34   23   24 ar
    35   23   41 1
    36   24   25 ar
    37   24   45 1
    38   25   26 ar
    39   25   31 ar
    40   26   27 2
    41   26   28 ar
    42   27   42 1
    43   28   29 ar
    44   28   44 1
    45   29   30 ar
    46   29   43 1
    47   30   31 ar
@<TRIPOS>SUBSTRUCTURE
     1 ATP         1 GROUP 0 A     ****
@<TRIPOS>MOLECULE
[[[3,4-dihydroxy-5-(6-imino-7,8-dihydro-1~{H}-purin-8-ylium-9-yl)tetrahydrofuran-2-yl]methoxy-oxido-phosphoryl]oxy-oxido-phosphoryl] hydrogen phosphate
   45    47     1     0     0
SMALL
USER_CHARGES

@<TRIPOS>ATOM
      1 PG          1.3834    5.9739   -2.3756 P.3       1 ATP         1.5631
      2 O1G        -0.0677    5.7948   -2.7623 O.co2     1 ATP        -0.8806
      3 O2G         2.2814    6.9186   -3.1430 O.co2     1 ATP        -0.8806
      4 O3G         1.4538    6.3638   -0.7916 O.3       1 ATP        -0.8165
      5 PB          3.5940    4.0992   -1.7907 P.3       1 ATP         1.6877
      6 O1B         4.6091    4.6801   -2.7496 O.co2     1 ATP        -0.8727
      7 O2B         3.6858    4.3551   -0.3029 O.co2     1 ATP        -0.8727
      8 O3B         2.0980    4.5085   -2.3008 O.3       1 ATP        -0.8330
      9 PA          3.2344    1.6562   -3.4210 P.3       1 ATP         1.6036
     10 O1A         4.4053    1.8754   -4.3543 O.co2     1 ATP        -0.9062
     11 O2A         1.8186    1.9327   -3.8780 O.co2     1 ATP        -0.9062
     12 O3A         3.5002    2.4887   -2.0403 O.3       1 ATP        -0.8166
     13 O5'         3.2903    0.1346   -2.8241 O.3       1 ATP        -0.5510
     14 C5'         2.2816   -0.2918   -1.9206 C.3       1 ATP         0.2099
     15 C4'         2.7248    0.0226   -0.4980 C.3       1 ATP         0.0598
     16 O4'         2.4697    1.4219   -0.2462 O.3       1 ATP        -0.3455
     17 C3'         1.9404   -0.7419    0.5596 C.3       1 ATP         0.0742
     18 O3'         2.7418   -0.8086    1.7389 O.3       1 ATP        -0.6025
     19 C2'         0.7477    0.1630    0.7858 C.3       1 ATP         0.1145
     20 O2'         0.1373   -0.0577    2.0407 O.3       1 ATP        -0.5835
     21 C1'         1.3733    1.5427    0.6747 C.3       1 ATP         0.3776
     22 N9          0.4520    2.5240    0.1767 N.pl3     1 ATP        -0.4429
     23 C8         -0.2004    2.4829   -0.9804 C.ar      1 ATP         0.2964
     24 N7         -0.9830    3.5431   -1.1568 N.pl3     1 ATP        -0.4957
     25 C5         -0.8095    4.3012   -0.0331 C.ar      1 ATP        -0.1346
     26 C6         -1.4065    5.5904    0.3585 C.ar      1 ATP         0.7213
     27 N6         -2.2501    6.2030   -0.4084 N.2       1 ATP        -0.8215
     28 N1         -0.9585    6.0272    1.5994 N.pl3     1 ATP        -0.8455
     29 C2         -0.0508    5.3009    2.3532 C.ar      1 ATP         0.6477
     30 N3          0.4890    4.1592    2.0257 N.2       1 ATP        -0.5707
     31 C4          0.0637    3.7006    0.7995 C.ar      1 ATP         0.2637
     32 HOG3        2.3344    6.5141   -0.3865 H         1 ATP         0.4378
     33 H5'1        1.3514    0.2330   -2.1577 H         1 ATP         0.0340
     34 H5'2        2.1280   -1.3678   -2.0460 H         1 ATP         0.0340
     35 H4'         3.8044   -0.1397   -0.4040 H         1 ATP         0.0910
     36 H3'         1.6764   -1.7639    0.2728 H         1 ATP         0.0656
     37 HO3'        2.2232   -1.2979    2.3953 H         1 ATP         0.4386
     38 H2'        -0.0011    0.0027    0.0003 H         1 ATP         0.0788
     39 HO2'       -0.6141    0.5574    2.1082 H         1 ATP         0.4363
     40 H1'         1.7826    1.9024    1.6451 H         1 ATP         0.1225
     41 H8         -0.1116    1.6863   -1.6984 H         1 ATP         0.3824
     42 HN62       -2.5420    7.0730    0.0447 H         1 ATP         0.4018
     43 H2          0.1969    5.7893    3.3086 H         1 ATP         0.0652
     44 H44        -1.3097    6.9080    1.9642 H         1 ATP         0.4503
     45 H45        -1.5735    3.7351   -1.9538 H         1 ATP         0.5209
@<TRIPOS>BOND
     1    1    2 2
     2    1    3 1
     3    1    4 1
     4    1    8 1
     5    4   32 1
     6    5    6 2
     7    5    7 1
     8    5    8 1
     9    5   12 1
    10    9   10 2
    11    9   11 1
    12    9   12 1
    13    9   13 1
    14   13   14 1
    15   14   15 1
    16   14   33 1
    17   14   34 1
    18   15   16 1
    19   15   17 1
    20   15   35 1
    21   16   21 1
    22   17   18 1
    23   17   19 1
    24   17   36 1
    25   18   37 1
    26   19   20 1
    27   19   21 1
    28   19   38 1
    29   20   39 1
    30   21   22 1
    31   21   40 1
    32   22   23 ar
    33   22   31 ar
    34   23   24 ar
    35   23   41 1
    36   24   25 ar
    37   24   45 1
    38   25   26 ar
    39   25   31 ar
    40   26   27 2
    41   26   28 ar
    42   27   42 1
    43   28   29 ar
    44   28   44 1
    45   29   30 ar
    46   29   43 1
    47   30   31 ar
@<TRIPOS>SUBSTRUCTURE
     1 ATP         1 GROUP 0 A     ****
@<TRIPOS>MOLECULE
[[[3,4-dihydroxy-5-(6-imino-7,8-dihydro-1~{H}-purin-8-ylium-9-yl)tetrahydrofuran-2-yl]methoxy-oxido-phosphoryl]oxy-oxido-phosphoryl] hydrogen phosphate
   45    47     1     0     0
SMALL
USER_CHARGES

@<TRIPOS>ATOM
      1 PG          9.1311    1.0167   -3.4201 P.3       1 ATP         1.5631
      2 O1G         9.6801   -0.2451   -4.0478 O.co2     1 ATP        -0.8806
      3 O2G         9.8490    1.6890   -2.2710 O.co2     1 ATP        -0.8806
      4 O3G         8.8917    2.1207   -4.5989 O.3       1 ATP        -0.8165
      5 PB          6.9461   -0.2229   -1.8604 P.3       1 ATP         1.6877
      6 O1B         7.1913   -1.6565   -2.2754 O.co2     1 ATP        -0.8727
      7 O2B         7.3629    0.2800   -0.4962 O.co2     1 ATP        -0.8727
      8 O3B         7.5748    0.7659   -2.9973 O.3       1 ATP        -0.8330
      9 PA          4.4374   -0.0466   -3.4193 P.3       1 ATP         1.6036
     10 O1A         4.3033   -1.5210   -3.7328 O.co2     1 ATP        -0.9062
     11 O2A         4.9277    0.9261   -4.4696 O.co2     1 ATP        -0.9062
     12 O3A         5.3672    0.1247   -2.0867 O.3       1 ATP        -0.8166
     13 O5'         3.0213    0.5153   -2.8245 O.3       1 ATP        -0.5510
     14 C5'         2.2816   -0.2918   -1.9206 C.3       1 ATP         0.2099
     15 C4'         2.7248    0.0226   -0.4980 C.3       1 ATP         0.0598
     16 O4'         2.4697    1.4219   -0.2462 O.3       1 ATP        -0.3455
     17 C3'         1.9404   -0.7419    0.5596 C.3       1 ATP         0.0742
     18 O3'         2.7418   -0.8086    1.7389 O.3       1 ATP        -0.6025
     19 C2'         0.7477    0.1630    0.7858 C.3       1 ATP         0.1145
     20 O2'         0.1373   -0.0577    2.0407 O.3       1 ATP        -0.5835
     21 C1'         1.3733    1.5427    0.6747 C.3       1 ATP         0.3776
     22 N9          0.4520    2.5240    0.1767 N.pl3     1 ATP        -0.4429
     23 C8         -0.8620    2.5492    0.3743 C.ar      1 ATP         0.2964
     24 N7         -1.4419    3.5886   -0.2183 N.pl3     1 ATP        -0.4957
     25 C5         -0.4215    4.2614   -0.8294 C.ar      1 ATP        -0.1346
     26 C6         -0.4310    5.4918   -1.6405 C.ar      1 ATP         0.7213
     27 N6         -1.5302    6.1308   -1.8826 N.2       1 ATP        -0.8215
     28 N1          0.8382    5.8461   -2.0817 N.pl3     1 ATP        -0.8455
     29 C2          1.9625    5.0982   -1.7709 C.ar      1 ATP         0.6477
     30 N3          1.9930    4.0077   -1.0554 N.2       1 ATP        -0.5707
     31 C4          0.7483    3.6314   -0.6038 C.ar      1 ATP         0.2637
     32 HOG3        8.5354    3.0000   -4.3497 H         1 ATP         0.4378
     33 H5'1        1.2163   -0.0770   -2.0471 H         1 ATP         0.0340
     34 H5'2        2.4655   -1.3443   -2.1563 H         1 ATP         0.0340
     35 H4'         3.8044   -0.1397   -0.4040 H         1 ATP         0.0910
     36 H3'         1.6764   -1.7639    0.2728 H         1 ATP         0.0656
     37 HO3'        2.2232   -1.2979    2.3953 H         1 ATP         0.4386
     38 H2'        -0.0011    0.0027    0.0003 H         1 ATP         0.0788
     39 HO2'       -0.1563   -0.9855    2.0596 H         1 ATP         0.4363
     40 H1'         1.7826    1.9024    1.6451 H         1 ATP         0.1225
     41 H8         -1.4030    1.8165    0.9473 H         1 ATP         0.3824
     42 HN62       -1.3197    6.9504   -2.4583 H         1 ATP         0.4018
     43 H2          2.8857    5.5186   -2.1994 H         1 ATP         0.0652
     44 H44         0.9433    6.6815   -2.6502 H         1 ATP         0.4503
     45 H45        -2.4254    3.8199   -0.2108 H         1 ATP         0.5209
@<TRIPOS>BOND
     1    1    2 2
     2    1    3 1
     3    1    4 1
     4    1    8 1
     5    4   32 1
     6    5    6 2
     7    5    7 1
     8    5    8 1
     9    5   12 1
    10    9   10 2
    11    9   11 1
    12    9   12 1
    13    9   13 1
    14   13   14 1
    15   14   15 1
    16   14   33 1
    17   14   34 1
    18   15   16 1
    19   15   17 1
    20   15   35 1
    21   16   21 1
    22   17   18 1
    23   17   19 1
    24   17   36 1
    25   18   37 1
    26   19   20 1
    27   19   21 1
    28   19   38 1
    29   20   39 1
    30   21   22 1
    31   21   40 1
    32   22   23 ar
    33   22   31 ar
    34   23   24 ar
    35   23   41 1
    36   24   25 ar
    37   24   45 1
    38   25   26 ar
    39   25   31 ar
    40   26   27 2
    41   26   28 ar
    42   27   42 1
    43   28   29 ar
    44   28   44 1
    45   29   30 ar
    46   29   43 1
    47   30   31 ar
@<TRIPOS>SUBSTRUCTURE
     1 ATP         1 GROUP 0 A     ****
@<TRIPOS>MOLECULE
[[[3,4-dihydroxy-5-(6-imino-7,8-dihydro-1~{H}-purin-8-ylium-9-yl)tetrahydrofuran-2-yl]methoxy-oxido-phosphoryl]oxy-oxido-phosphoryl] hydrogen phosphate
   45    47     1     0     0
SMALL
USER_CHARGES

@<TRIPOS>ATOM
      1 PG          4.0920    5.3149    0.8584 P.3       1 ATP         1.5631
      2 O1G         5.1900    6.2117    0.3317 O.co2     1 ATP        -0.8806
      3 O2G         4.1442    4.7677    2.2674 O.co2     1 ATP        -0.8806
      4 O3G         2.6598    6.0704    0.6484 O.3       1 ATP        -0.8165
      5 PB          3.5940    4.0992   -1.7907 P.3       1 ATP         1.6877
      6 O1B         2.2320    4.7083   -2.0384 O.co2     1 ATP        -0.8727
      7 O2B         4.8272    4.6274   -2.4890 O.co2     1 ATP        -0.8727
      8 O3B         3.8725    4.0767   -0.1821 O.3       1 ATP        -0.8330
      9 PA          3.2344    1.6562   -3.4210 P.3       1 ATP         1.6036
     10 O1A         4.4053    1.8754   -4.3543 O.co2     1 ATP        -0.9062
     11 O2A         1.8186    1.9327   -3.8780 O.co2     1 ATP        -0.9062
     12 O3A         3.5002    2.4887   -2.0403 O.3       1 ATP        -0.8166
     13 O5'         3.2903    0.1346   -2.8241 O.3       1 ATP        -0.5510
     14 C5'         2.2816   -0.2918   -1.9206 C.3       1 ATP         0.2099
     15 C4'         2.7248    0.0226   -0.4980 C.3       1 ATP         0.0598
     16 O4'         2.4697    1.4219   -0.2462 O.3       1 ATP        -0.3455
     17 C3'         1.9404   -0.7419    0.5596 C.3       1 ATP         0.0742
     18 O3'         2.7418   -0.8086    1.7389 O.3       1 ATP        -0.6025
     19 C2'         0.7477    0.1630    0.7858 C.3       1 ATP         0.1145
     20 O2'         0.1373   -0.0577    2.0407 O.3       1 ATP        -0.5835
     21 C1'         1.3733    1.5427    0.6747 C.3       1 ATP         0.3776
     22 N9          0.4520    2.5240    0.1767 N.pl3     1 ATP        -0.4429
     23 C8         -0.2004    2.4829   -0.9804 C.ar      1 ATP         0.2964
     24 N7         -0.9830    3.5431   -1.1568 N.pl3     1 ATP        -0.4957
     25 C5         -0.8095    4.3012   -0.0331 C.ar      1 ATP        -0.1346
     26 C6         -1.4065    5.5904    0.3585 C.ar      1 ATP         0.7213
     27 N6         -2.2501    6.2030   -0.4084 N.2       1 ATP        -0.8215
     28 N1         -0.9585    6.0272    1.5994 N.pl3     1 ATP        -0.8455
     29 C2         -0.0508    5.3009    2.3532 C.ar      1 ATP         0.6477
     30 N3          0.4890    4.1592    2.0257 N.2       1 ATP        -0.5707
     31 C4          0.0637    3.7006    0.7995 C.ar      1 ATP         0.2637
     32 HOG3        2.3870    6.3088   -0.2632 H         1 ATP         0.4378
     33 H5'1        1.3514    0.2330   -2.1577 H         1 ATP         0.0340
     34 H5'2        2.1280   -1.3678   -2.0460 H         1 ATP         0.0340
     35 H4'         3.8044   -0.1397   -0.4040 H         1 ATP         0.0910
     36 H3'         1.6764   -1.7639    0.2728 H         1 ATP         0.0656
     37 HO3'        3.5554   -1.2733    1.4914 H         1 ATP         0.4386
     38 H2'        -0.0011    0.0027    0.0003 H         1 ATP         0.0788
     39 HO2'       -0.1563   -0.9855    2.0596 H         1 ATP         0.4363
     40 H1'         1.7826    1.9024    1.6451 H         1 ATP         0.1225
     41 H8         -0.1116    1.6863   -1.6984 H         1 ATP         0.3824
     42 HN62       -2.5420    7.0730    0.0447 H         1 ATP         0.4018
     43 H2          0.1969    5.7893    3.3086 H         1 ATP         0.0652
     44 H44        -1.3097    6.9080    1.9642 H         1 ATP         0.4503
     45 H45        -1.5735    3.7351   -1.9538 H         1 ATP         0.5209
@<TRIPOS>BOND
     1    1    2 2
     2    1    3 1
     3    1    4 1
     4    1    8 1
     5    4   32 1
     6    5    6 2
     7    5    7 1
     8    5    8 1
     9    5   12 1
    10    9   10 2
    11    9   11 1
    12    9   12 1
    13    9   13 1
    14   13   14 1
    15   14   15 1
    16   14   33 1
    17   14   34 1
    18   15   16 1
    19   15   17 1
    20   15   35 1
    21   16   21 1
    22   17   18 1
    23   17   19 1
    24   17   36 1
    25   18   37 1
    26   19   20 1
    27   19   21 1
    28   19   38 1
    29   20   39 1
    30   21   22 1
    31   21   40 1
    32   22   23 ar
    33   22   31 ar
    34   23   24 ar
    35   23   41 1
    36   24   25 ar
    37   24   45 1
    38   25   26 ar
    39   25   31 ar
    40   26   27 2
    41   26   28 ar
    42   27   42 1
    43   28   29 ar
    44   28   44 1
    45   29   30 ar
    46   29   43 1
    47   30   31 ar
@<TRIPOS>SUBSTRUCTURE
     1 ATP         1 GROUP 0 A     ****
@<TRIPOS>MOLECULE
[[[3,4-dihydroxy-5-(6-imino-7,8-dihydro-1~{H}-purin-8-ylium-9-yl)tetrahydrofuran-2-yl]methoxy-oxido-phosphoryl]oxy-oxido-phosphoryl] hydrogen phosphate
   45    47     1     0     0
SMALL
USER_CHARGES

@<TRIPOS>ATOM
      1 PG          1.1735   -7.3237   -1.4722 P.3       1 ATP         1.5631
      2 O1G        -0.0330   -7.6223   -2.3339 O.co2     1 ATP        -0.8806
      3 O2G         1.2544   -7.8250   -0.0475 O.co2     1 ATP        -0.8806
      4 O3G         2.5132   -7.8093   -2.2694 O.3       1 ATP        -0.8165
      5 PB          0.5532   -4.4960   -0.8702 P.3       1 ATP         1.6877
      6 O1B        -0.7383   -4.4028   -1.6518 O.co2     1 ATP        -0.8727
      7 O2B         0.5497   -4.6079    0.6381 O.co2     1 ATP        -0.8727
      8 O3B         1.4493   -5.7151   -1.4835 O.3       1 ATP        -0.8330
      9 PA          2.0064   -2.7685   -2.7831 P.3       1 ATP         1.6036
     10 O1A         0.8006   -2.2901   -3.5625 O.co2     1 ATP        -0.9062
     11 O2A         2.9220   -3.8315   -3.3500 O.co2     1 ATP        -0.9062
     12 O3A         1.5163   -3.2502   -1.3007 O.3       1 ATP        -0.8166
     13 O5'         2.9216   -1.4836   -2.3516 O.3       1 ATP        -0.5510
     14 C5'         2.2816   -0.2918   -1.9206 C.3       1 ATP         0.2099
     15 C4'         2.7248    0.0226   -0.4980 C.3       1 ATP         0.0598
     16 O4'         2.4697    1.4219   -0.2462 O.3       1 ATP        -0.3455
     17 C3'         1.9404   -0.7419    0.5596 C.3       1 ATP         0.0742
     18 O3'         2.7418   -0.8086    1.7389 O.3       1 ATP        -0.6025
     19 C2'         0.7477    0.1630    0.7858 C.3       1 ATP         0.1145
     20 O2'         0.1373   -0.0577    2.0407 O.3       1 ATP        -0.5835
     21 C1'         1.3733    1.5427    0.6747 C.3       1 ATP         0.3776
     22 N9          0.4520    2.5240    0.1767 N.pl3     1 ATP        -0.4429
     23 C8         -0.2004    2.4829   -0.9804 C.ar      1 ATP         0.2964
     24 N7         -0.9830    3.5431   -1.1568 N.pl3     1 ATP        -0.4957
     25 C5         -0.8095    4.3012   -0.0331 C.ar      1 ATP        -0.1346
     26 C6         -1.4065    5.5904    0.3585 C.ar      1 ATP         0.7213
     27 N6         -2.2501    6.2030   -0.4084 N.2       1 ATP        -0.8215
     28 N1         -0.9585    6.0272    1.5994 N.pl3     1 ATP        -0.8455
     29 C2         -0.0508    5.3009    2.3532 C.ar      1 ATP         0.6477
     30 N3          0.4890    4.1592    2.0257 N.2       1 ATP        -0.5707
     31 C4          0.0637    3.7006    0.7995 C.ar      1 ATP         0.2637
     32 HOG3        3.3850   -7.6825   -1.8379 H         1 ATP         0.4378
     33 H5'1        2.5589    0.5217   -2.5976 H         1 ATP         0.0340
     34 H5'2        1.1982   -0.4388   -1.9617 H         1 ATP         0.0340
     35 H4'         3.8044   -0.1397   -0.4040 H         1 ATP         0.0910
     36 H3'         1.6764   -1.7639    0.2728 H         1 ATP         0.0656
     37 HO3'        2.2232   -1.2979    2.3953 H         1 ATP         0.4386
     38 H2'        -0.0011    0.0027    0.0003 H         1 ATP         0.0788
     39 HO2'       -0.1563   -0.9855    2.0596 H         1 ATP         0.4363
     40 H1'         1.7826    1.9024    1.6451 H         1 ATP         0.1225
     41 H8         -0.1116    1.6863   -1.6984 H         1 ATP         0.3824
     42 HN62       -2.5420    7.0730    0.0447 H         1 ATP         0.4018
     43 H2          0.1969    5.7893    3.3086 H         1 ATP         0.0652
     44 H44        -1.3097    6.9080    1.9642 H         1 ATP         0.4503
     45 H45        -1.5735    3.7351   -1.9538 H         1 ATP         0.5209
@<TRIPOS>BOND
     1    1    2 2
     2    1    3 1
     3    1    4 1
     4    1    8 1
     5    4   32 1
     6    5    6 2
     7    5    7 1
     8    5    8 1
     9    5   12 1
    10    9   10 2
    11    9   11 1
    12    9   12 1
    13    9   13 1
    14   13   14 1
    15   14   15 1
    16   14   33 1
    17   14   34 1
    18   15   16 1
    19   15   17 1
    20   15   35 1
    21   16   21 1
    22   17   18 1
    23   17   19 1
    24   17   36 1
    25   18   37 1
    26   19   20 1
    27   19   21 1
    28   19   38 1
    29   20   39 1
    30   21   22 1
    31   21   40 1
    32   22   23 ar
    33   22   31 ar
    34   23   24 ar
    35   23   41 1
    36   24   25 ar
    37   24   45 1
    38   25   26 ar
    39   25   31 ar
    40   26   27 2
    41   26   28 ar
    42   27   42 1
    43   28   29 ar
    44   28   44 1
    45   29   30 ar
    46   29   43 1
    47   30   31 ar
@<TRIPOS>SUBSTRUCTURE
     1 ATP         1 GROUP 0 A     ****
@<TRIPOS>MOLECULE
[[[3,4-dihydroxy-5-(6-imino-7,8-dihydro-1~{H}-purin-8-ylium-9-yl)tetrahydrofuran-2-yl]methoxy-oxido-phosphoryl]oxy-oxido-phosphoryl] hydrogen phosphate
   45    47     1     0     0
SMALL
USER_CHARGES

@<TRIPOS>ATOM
      1 PG          6.0028   -3.4551   -7.0303 P.3       1 ATP         1.5631
      2 O1G         6.9274   -2.4296   -7.6475 O.co2     1 ATP        -0.8806
      3 O2G         5.1072   -4.3143   -7.8949 O.co2     1 ATP        -0.8806
      4 O3G         6.8840   -4.4330   -6.0643 O.3       1 ATP        -0.8165
      5 PB          4.0507   -3.3802   -4.8106 P.3       1 ATP         1.6877
      6 O1B         2.8670   -3.9435   -5.5650 O.co2     1 ATP        -0.8727
      7 O2B         4.8297   -4.2278   -3.8296 O.co2     1 ATP        -0.8727
      8 O3B         5.0945   -2.7300   -5.8846 O.3       1 ATP        -0.8330
      9 PA          4.4789   -0.9083   -3.2418 P.3       1 ATP         1.6036
     10 O1A         5.4277   -0.2314   -4.2071 O.co2     1 ATP        -0.9062
     11 O2A         4.9966   -1.5644   -1.9804 O.co2     1 ATP        -0.9062
     12 O3A         3.5882   -2.0049   -4.0627 O.3       1 ATP        -0.8166
     13 O5'         3.2903    0.1346   -2.8241 O.3       1 ATP        -0.5510
     14 C5'         2.2816   -0.2918   -1.9206 C.3       1 ATP         0.2099
     15 C4'         2.7248    0.0226   -0.4980 C.3       1 ATP         0.0598
     16 O4'         2.4697    1.4219   -0.2462 O.3       1 ATP        -0.3455
     17 C3'         1.9404   -0.7419    0.5596 C.3       1 ATP         0.0742
     18 O3'         2.7418   -0.8086    1.7389 O.3       1 ATP        -0.6025
     19 C2'         0.7477    0.1630    0.7858 C.3       1 ATP         0.1145
     20 O2'         0.1373   -0.0577    2.0407 O.3       1 ATP        -0.5835
     21 C1'         1.3733    1.5427    0.6747 C.3       1 ATP         0.3776
     22 N9          0.4520    2.5240    0.1767 N.pl3     1 ATP        -0.4429
     23 C8         -0.8620    2.5492    0.3743 C.ar      1 ATP         0.2964
     24 N7         -1.4419    3.5886   -0.2183 N.pl3     1 ATP        -0.4957
     25 C5         -0.4215    4.2614   -0.8294 C.ar      1 ATP        -0.1346
     26 C6         -0.4310    5.4918   -1.6405 C.ar      1 ATP         0.7213
     27 N6         -1.5302    6.1308   -1.8826 N.2       1 ATP        -0.8215
     28 N1          0.8382    5.8461   -2.0817 N.pl3     1 ATP        -0.8455
     29 C2          1.9625    5.0982   -1.7709 C.ar      1 ATP         0.6477
     30 N3          1.9930    4.0077   -1.0554 N.2       1 ATP        -0.5707
     31 C4          0.7483    3.6314   -0.6038 C.ar      1 ATP         0.2637
     32 HOG3        6.4238   -5.1565   -5.5878 H         1 ATP         0.4378
     33 H5'1        1.3514    0.2330   -2.1577 H         1 ATP         0.0340
     34 H5'2        2.1280   -1.3678   -2.0460 H         1 ATP         0.0340
     35 H4'         3.8044   -0.1397   -0.4040 H         1 ATP         0.0910
     36 H3'         1.6764   -1.7639    0.2728 H         1 ATP         0.0656
     37 HO3'        3.5554   -1.2733    1.4914 H         1 ATP         0.4386
     38 H2'        -0.0011    0.0027    0.0003 H         1 ATP         0.0788
     39 HO2'       -0.1563   -0.9855    2.0596 H         1 ATP         0.4363
     40 H1'         1.7826    1.9024    1.6451 H         1 ATP         0.1225
     41 H8         -1.4030    1.8165    0.9473 H         1 ATP         0.3824
     42 HN62       -1.3197    6.9504   -2.4583 H         1 ATP         0.4018
     43 H2          2.8857    5.5186   -2.1994 H         1 ATP         0.0652
     44 H44         0.9433    6.6815   -2.6502 H         1 ATP         0.4503
     45 H45        -2.4254    3.8199   -0.2108 H         1 ATP         0.5209
@<TRIPOS>BOND
     1    1    2 2
     2    1    3 1
     3    1    4 1
     4    1    8 1
     5    4   32 1
     6    5    6 2
     7    5    7 1
     8    5    8 1
     9    5   12 1
    10    9   10 2
    11    9   11 1
    12    9   12 1
    13    9   13 1
    14   13   14 1
    15   14   15 1
    16   14   33 1
    17   14   34 1
    18   15   16 1
    19   15   17 1
    20   15   35 1
    21   16   21 1
    22   17   18 1
    23   17   19 1
    24   17   36 1
    25   18   37 1
    26   19   20 1
    27   19   21 1
    28   19   38 1
    29   20   39 1
    30   21   22 1
    31   21   40 1
    32   22   23 ar
    33   22   31 ar
    34   23   24 ar
    35   23   41 1
    36   24   25 ar
    37   24   45 1
    38   25   26 ar
    39   25   31 ar
    40   26   27 2
    41   26   28 ar
    42   27   42 1
    43   28   29 ar
    44   28   44 1
    45   29   30 ar
    46   29   43 1
    47   30   31 ar
@<TRIPOS>SUBSTRUCTURE
     1 ATP         1 GROUP 0 A     ****
@<TRIPOS>MOLECULE
[[[3,4-dihydroxy-5-(6-imino-7,8-dihydro-1~{H}-purin-8-ylium-9-yl)tetrahydrofuran-2-yl]methoxy-oxido-phosphoryl]oxy-oxido-phosphoryl] hydrogen phosphate
   45    47     1     0     0
SMALL
USER_CHARGES

@<TRIPOS>ATOM
      1 PG          3.3526   -4.5492   -6.7335 P.3       1 ATP         1.5631
      2 O1G         4.0872   -4.2209   -8.0141 O.co2     1 ATP        -0.8806
      3 O2G         1.9408   -5.0909   -6.7642 O.co2     1 ATP        -0.8806
      4 O3G         4.2780   -5.5638   -5.8502 O.3       1 ATP        -0.8165
      5 PB          4.6772   -2.3763   -5.2277 P.3       1 ATP         1.6877
      6 O1B         5.5245   -3.2449   -4.3250 O.co2     1 ATP        -0.8727
      7 O2B         5.2811   -1.6519   -6.4101 O.co2     1 ATP        -0.8727
      8 O3B         3.3994   -3.2503   -5.7463 O.3       1 ATP        -0.8330
      9 PA          4.4374   -0.0466   -3.4193 P.3       1 ATP         1.6036
     10 O1A         5.0360    0.9827   -4.3535 O.co2     1 ATP        -0.9062
     11 O2A         5.2435   -0.6084   -2.2686 O.co2     1 ATP        -0.9062
     12 O3A         3.8708   -1.2955   -4.3076 O.3       1 ATP        -0.8166
     13 O5'         3.0213    0.5153   -2.8245 O.3       1 ATP        -0.5510
     14 C5'         2.2816   -0.2918   -1.9206 C.3       1 ATP         0.2099
     15 C4'         2.7248    0.0226   -0.4980 C.3       1 ATP         0.0598
     16 O4'         2.4697    1.4219   -0.2462 O.3       1 ATP        -0.3455
     17 C3'         1.9404   -0.7419    0.5596 C.3       1 ATP         0.0742
     18 O3'         2.7418   -0.8086    1.7389 O.3       1 ATP        -0.6025
     19 C2'         0.7477    0.1630    0.7858 C.3       1 ATP         0.1145
     20 O2'         0.1373   -0.0577    2.0407 O.3       1 ATP        -0.5835
     21 C1'         1.3733    1.5427    0.6747 C.3       1 ATP         0.3776
     22 N9          0.4520    2.5240    0.1767 N.pl3     1 ATP        -0.4429
     23 C8          0.5691    3.2215   -0.9485 C.ar      1 ATP         0.2964
     24 N7         -0.4499    4.0551   -1.1342 N.pl3     1 ATP        -0.4957
     25 C5         -1.2618    3.8674   -0.0512 C.ar      1 ATP        -0.1346
     26 C6         -2.5420    4.5007    0.3120 C.ar      1 ATP         0.7213
     27 N6         -3.0874    5.3993   -0.4432 N.2       1 ATP        -0.8215
     28 N1         -3.0494    4.0205    1.5133 N.pl3     1 ATP        -0.8455
     29 C2         -2.3933    3.0527    2.2567 C.ar      1 ATP         0.6477
     30 N3         -1.2611    2.4796    1.9536 N.2       1 ATP        -0.5707
     31 C4         -0.7334    2.9358    0.7669 C.ar      1 ATP         0.2637
     32 HOG3        3.9369   -5.8718   -4.9835 H         1 ATP         0.4378
     33 H5'1        1.2163   -0.0770   -2.0471 H         1 ATP         0.0340
     34 H5'2        2.4655   -1.3443   -2.1563 H         1 ATP         0.0340
     35 H4'         3.8044   -0.1397   -0.4040 H         1 ATP         0.0910
     36 H3'         1.6764   -1.7639    0.2728 H         1 ATP         0.0656
     37 HO3'        2.9083    0.1071    2.0092 H         1 ATP         0.4386
     38 H2'        -0.0011    0.0027    0.0003 H         1 ATP         0.0788
     39 HO2'       -0.6141    0.5574    2.1082 H         1 ATP         0.4363
     40 H1'         1.7826    1.9024    1.6451 H         1 ATP         0.1225
     41 H8          1.3912    3.1285   -1.6365 H         1 ATP         0.3824
     42 HN62       -3.9637    5.7083   -0.0142 H         1 ATP         0.4018
     43 H2         -2.9317    2.7866    3.1796 H         1 ATP         0.0652
     44 H44        -3.9307    4.3923    1.8558 H         1 ATP         0.4503
     45 H45        -0.5835    4.6857   -1.9122 H         1 ATP         0.5209
@<TRIPOS>BOND
     1    1    2 2
     2    1    3 1
     3    1    4 1
     4    1    8 1
     5    4   32 1
     6    5    6 2
     7    5    7 1
     8    5    8 1
     9    5   12 1
    10    9   10 2
    11    9   11 1
    12    9   12 1
    13    9   13 1
    14   13   14 1
    15   14   15 1
    16   14   33 1
    17   14   34 1
    18   15   16 1
    19   15   17 1
    20   15   35 1
    21   16   21 1
    22   17   18 1
    23   17   19 1
    24   17   36 1
    25   18   37 1
    26   19   20 1
    27   19   21 1
    28   19   38 1
    29   20   39 1
    30   21   22 1
    31   21   40 1
    32   22   23 ar
    33   22   31 ar
    34   23   24 ar
    35   23   41 1
    36   24   25 ar
    37   24   45 1
    38   25   26 ar
    39   25   31 ar
    40   26   27 2
    41   26   28 ar
    42   27   42 1
    43   28   29 ar
    44   28   44 1
    45   29   30 ar
    46   29   43 1
    47   30   31 ar
@<TRIPOS>SUBSTRUCTURE
     1 ATP         1 GROUP 0 A     ****
@<TRIPOS>MOLECULE
[[[3,4-dihydroxy-5-(6-imino-7,8-dihydro-1~{H}-purin-8-ylium-9-yl)tetrahydrofuran-2-yl]methoxy-oxido-phosphoryl]oxy-oxido-phosphoryl] hydrogen phosphate
   45    47     1     0     0
SMALL
USER_CHARGES

@<TRIPOS>ATOM
      1 PG         -1.7922   -3.6397    2.1139 P.3       1 ATP         1.5631
      2 O1G        -1.4418   -2.8805    3.3742 O.co2     1 ATP        -0.8806
      3 O2G        -1.9201   -5.1468    2.1246 O.co2     1 ATP        -0.8806
      4 O3G        -3.1630   -3.0075    1.4917 O.3       1 ATP        -0.8165
      5 PB         -0.7669   -3.5905   -0.6591 P.3       1 ATP         1.6877
      6 O1B        -0.4957   -5.0718   -0.7994 O.co2     1 ATP        -0.8727
      7 O2B        -1.9737   -2.9502   -1.3080 O.co2     1 ATP        -0.8727
      8 O3B        -0.7593   -3.2049    0.9273 O.3       1 ATP        -0.8330
      9 PA          1.2681   -2.6345   -2.5827 P.3       1 ATP         1.6036
     10 O1A         0.3257   -1.8894   -3.5031 O.co2     1 ATP        -0.9062
     11 O2A         1.8204   -3.9883   -2.9722 O.co2     1 ATP        -0.9062
     12 O3A         0.5690   -2.7687   -1.1120 O.3       1 ATP        -0.8166
     13 O5'         2.5245   -1.6648   -2.1878 O.3       1 ATP        -0.5510
     14 C5'         2.2816   -0.2918   -1.9206 C.3       1 ATP         0.2099
     15 C4'         2.7248    0.0226   -0.4980 C.3       1 ATP         0.0598
     16 O4'         2.4697    1.4219   -0.2462 O.3       1 ATP        -0.3455
     17 C3'         1.9404   -0.7419    0.5596 C.3       1 ATP         0.0742
     18 O3'         2.7418   -0.8086    1.7389 O.3       1 ATP        -0.6025
     19 C2'         0.7477    0.1630    0.7858 C.3       1 ATP         0.1145
     20 O2'         0.1373   -0.0577    2.0407 O.3       1 ATP        -0.5835
     21 C1'         1.3733    1.5427    0.6747 C.3       1 ATP         0.3776
     22 N9          0.4520    2.5240    0.1767 N.pl3     1 ATP        -0.4429
     23 C8          0.2216    2.8192   -1.0985 C.ar      1 ATP         0.2964
     24 N7         -0.6906    3.7763   -1.2384 N.pl3     1 ATP        -0.4957
     25 C5         -1.0575    4.1037    0.0366 C.ar      1 ATP        -0.1346
     26 C6         -2.0291    5.0943    0.5330 C.ar      1 ATP         0.7213
     27 N6         -2.7093    5.8371   -0.2800 N.2       1 ATP        -0.8215
     28 N1         -2.1051    5.1136    1.9204 N.pl3     1 ATP        -0.8455
     29 C2         -1.3354    4.2774    2.7129 C.ar      1 ATP         0.6477
     30 N3         -0.4707    3.3945    2.2944 N.2       1 ATP        -0.5707
     31 C4         -0.3734    3.3525    0.9220 C.ar      1 ATP         0.2637
     32 HOG3       -3.5231   -3.3954    0.6658 H         1 ATP         0.4378
     33 H5'1        2.8432    0.3119   -2.6398 H         1 ATP         0.0340
     34 H5'2        1.2128   -0.0927   -2.0428 H         1 ATP         0.0340
     35 H4'         3.8044   -0.1397   -0.4040 H         1 ATP         0.0910
     36 H3'         1.6764   -1.7639    0.2728 H         1 ATP         0.0656
     37 HO3'        2.2232   -1.2979    2.3953 H         1 ATP         0.4386
     38 H2'        -0.0011    0.0027    0.0003 H         1 ATP         0.0788
     39 HO2'       -0.1563   -0.9855    2.0596 H         1 ATP         0.4363
     40 H1'         1.7826    1.9024    1.6451 H         1 ATP         0.1225
     41 H8          0.7125    2.3429   -1.9292 H         1 ATP         0.3824
     42 HN62       -3.3217    6.4517    0.2629 H         1 ATP         0.4018
     43 H2         -1.5188    4.4223    3.7890 H         1 ATP         0.0652
     44 H44        -2.7470    5.7626    2.3665 H         1 ATP         0.4503
     45 H45        -1.0305    4.1680   -2.1054 H         1 ATP         0.5209
@<TRIPOS>BOND
     1    1    2 2
     2    1    3 1
     3    1    4 1
     4    1    8 1
     5    4   32 1
     6    5    6 2
     7    5    7 1
     8    5    8 1
     9    5   12 1
    10    9   10 2
    11    9   11 1
    12    9   12 1
    13    9   13 1
    14   13   14 1
    15   14   15 1
    16   14   33 1
    17   14   34 1
    18   15   16 1
    19   15   17 1
    20   15   35 1
    21   16   21 1
    22   17   18 1
    23   17   19 1
    24   17   36 1
    25   18   37 1
    26   19   20 1
    27   19   21 1
    28   19   38 1
    29   20   39 1
    30   21   22 1
    31   21   40 1
    32   22   23 ar
    33   22   31 ar
    34   23   24 ar
    35   23   41 1
    36   24   25 ar
    37   24   45 1
    38   25   26 ar
    39   25   31 ar
    40   26   27 2
    41   26   28 ar
    42   27   42 1
    43   28   29 ar
    44   28   44 1
    45   29   30 ar
    46   29   43 1
    47   30   31 ar
@<TRIPOS>SUBSTRUCTURE
     1 ATP         1 GROUP 0 A     ****
@<TRIPOS>MOLECULE
[[[3,4-dihydroxy-5-(6-imino-7,8-dihydro-1~{H}-purin-8-ylium-9-yl)tetrahydrofuran-2-yl]methoxy-oxido-phosphoryl]oxy-oxido-phosphoryl] hydrogen phosphate
   45    47     1     0     0
SMALL
USER_CHARGES

@<TRIPOS>ATOM
      1 PG          0.2262    0.5618    7.6949 P.3       1 ATP         1.5631
      2 O1G         1.3902    0.0537    8.5162 O.co2     1 ATP        -0.8806
      3 O2G        -1.1278    0.7957    8.3272 O.co2     1 ATP        -0.8806
      4 O3G         0.6867    1.9313    6.9343 O.3       1 ATP        -0.8165
      5 PB         -0.9488   -0.2284    5.0991 P.3       1 ATP         1.6877
      6 O1B        -2.3799   -0.3803    5.5644 O.co2     1 ATP        -0.8727
      7 O2B        -0.5080    0.9797    4.3031 O.co2     1 ATP        -0.8727
      8 O3B         0.0408   -0.3963    6.3868 O.3       1 ATP        -0.8330
      9 PA         -0.6019   -3.1447    4.7390 P.3       1 ATP         1.6036
     10 O1A        -2.0579   -3.5300    4.8869 O.co2     1 ATP        -0.9062
     11 O2A         0.3759   -3.3668    5.8723 O.co2     1 ATP        -0.9062
     12 O3A        -0.5167   -1.5769    4.2870 O.3       1 ATP        -0.8166
     13 O5'         0.0118   -3.8395    3.3916 O.3       1 ATP        -0.5510
     14 C5'        -0.7840   -3.8935    2.2172 C.3       1 ATP         0.2099
     15 C4'        -0.0724   -3.1466    1.1027 C.3       1 ATP         0.0598
     16 O4'        -0.8674   -3.1929   -0.0945 O.3       1 ATP        -0.3455
     17 C3'         0.1338   -1.6715    1.4027 C.3       1 ATP         0.0742
     18 O3'         1.2893   -1.4445    2.1808 O.3       1 ATP        -0.6025
     19 C2'         0.2158   -1.0724    0.0128 C.3       1 ATP         0.1145
     20 O2'         1.5141   -1.2448   -0.5513 O.3       1 ATP        -0.5835
     21 C1'        -0.7897   -1.9176   -0.7583 C.3       1 ATP         0.3776
     22 N9         -2.1040   -1.3333   -0.7704 N.pl3     1 ATP        -0.4429
     23 C8         -3.0590   -1.5123    0.1363 C.ar      1 ATP         0.2964
     24 N7         -4.1655   -0.8354   -0.1554 N.pl3     1 ATP        -0.4957
     25 C5         -3.8852   -0.1874   -1.3253 C.ar      1 ATP        -0.1346
     26 C6         -4.7113    0.7160   -2.1458 C.ar      1 ATP         0.7213
     27 N6         -5.9213    1.0209   -1.8021 N.2       1 ATP        -0.8215
     28 N1         -4.0411    1.1673   -3.2764 N.pl3     1 ATP        -0.8455
     29 C2         -2.7403    0.7865   -3.5638 C.ar      1 ATP         0.6477
     30 N3         -1.9921   -0.0108   -2.8519 N.2       1 ATP        -0.5707
     31 C4         -2.6302   -0.4747   -1.7239 C.ar      1 ATP         0.2637
     32 HOG3        0.0367    2.3861    6.3574 H         1 ATP         0.4378
     33 H5'1       -0.9348   -4.9415    1.9415 H         1 ATP         0.0340
     34 H5'2       -1.7548   -3.4350    2.4278 H         1 ATP         0.0340
     35 H4'         0.8874   -3.6466    0.8805 H         1 ATP         0.0910
     36 H3'        -0.7376   -1.2333    1.9867 H         1 ATP         0.0656
     37 HO3'        1.3408   -0.4870    2.3219 H         1 ATP         0.4386
     38 H2'        -0.0384   -0.0310    0.0096 H         1 ATP         0.0788
     39 HO2'        2.1463   -0.7958    0.0370 H         1 ATP         0.4363
     40 H1'        -0.4769   -2.1002   -1.8093 H         1 ATP         0.1225
     41 H8         -2.9569   -2.1323    1.0098 H         1 ATP         0.3824
     42 HN62       -6.3169    1.6552   -2.5012 H         1 ATP         0.4018
     43 H2         -2.3612    1.2343   -4.4957 H         1 ATP         0.0652
     44 H44        -4.5223    1.7976   -3.9117 H         1 ATP         0.4503
     45 H45        -5.0218   -0.8132    0.3804 H         1 ATP         0.5209
@<TRIPOS>BOND
     1    1    2 2
     2    1    3 1
     3    1    4 1
     4    1    8 1
     5    4   32 1
     6    5    6 2
     7    5    7 1
     8    5    8 1
     9    5   12 1
    10    9   10 2
    11    9   11 1
    12    9   12 1
    13    9   13 1
    14   13   14 1
    15   14   15 1
    16   14   33 1
    17   14   34 1
    18   15   16 1
    19   15   17 1
    20   15   35 1
    21   16   21 1
    22   17   18 1
    23   17   19 1
    24   17   36 1
    25   18   37 1
    26   19   20 1
    27   19   21 1
    28   19   38 1
    29   20   39 1
    30   21   22 1
    31   21   40 1
    32   22   23 ar
    33   22   31 ar
    34   23   24 ar
    35   23   41 1
    36   24   25 ar
    37   24   45 1
    38   25   26 ar
    39   25   31 ar
    40   26   27 2
    41   26   28 ar
    42   27   42 1
    43   28   29 ar
    44   28   44 1
    45   29   30 ar
    46   29   43 1
    47   30   31 ar
@<TRIPOS>SUBSTRUCTURE
     1 ATP         1 GROUP 0 A     ****
@<TRIPOS>MOLECULE
[[[3,4-dihydroxy-5-(6-imino-7,8-dihydro-1~{H}-purin-8-ylium-9-yl)tetrahydrofuran-2-yl]methoxy-oxido-phosphoryl]oxy-oxido-phosphoryl] hydrogen phosphate
   45    47     1     0     0
SMALL
USER_CHARGES

@<TRIPOS>ATOM
      1 PG         -0.9496    1.9397   -7.2743 P.3       1 ATP         1.5631
      2 O1G        -1.7459    3.1470   -6.8318 O.co2     1 ATP        -0.8806
      3 O2G        -1.6421    0.6557   -7.6738 O.co2     1 ATP        -0.8806
      4 O3G         0.0458    2.3910   -8.4873 O.3       1 ATP        -0.8165
      5 PB          1.3102    2.5703   -5.4746 P.3       1 ATP         1.6877
      6 O1B         2.3163    2.9459   -6.5395 O.co2     1 ATP        -0.8727
      7 O2B         0.6167    3.6273   -4.6443 O.co2     1 ATP        -0.8727
      8 O3B         0.1774    1.6029   -6.1428 O.3       1 ATP        -0.8330
      9 PA          3.2344    1.6562   -3.4210 P.3       1 ATP         1.6036
     10 O1A         2.8137    2.6124   -2.3260 O.co2     1 ATP        -0.9062
     11 O2A         4.4988    1.8986   -4.2160 O.co2     1 ATP        -0.9062
     12 O3A         1.9940    1.4803   -4.4699 O.3       1 ATP        -0.8166
     13 O5'         3.2903    0.1346   -2.8241 O.3       1 ATP        -0.5510
     14 C5'         2.2816   -0.2918   -1.9206 C.3       1 ATP         0.2099
     15 C4'         2.7248    0.0226   -0.4980 C.3       1 ATP         0.0598
     16 O4'         2.4697    1.4219   -0.2462 O.3       1 ATP        -0.3455
     17 C3'         1.9404   -0.7419    0.5596 C.3       1 ATP         0.0742
     18 O3'         2.7418   -0.8086    1.7389 O.3       1 ATP        -0.6025
     19 C2'         0.7477    0.1630    0.7858 C.3       1 ATP         0.1145
     20 O2'         0.1373   -0.0577    2.0407 O.3       1 ATP        -0.5835
     21 C1'         1.3733    1.5427    0.6747 C.3       1 ATP         0.3776
     22 N9          0.4520    2.5240    0.1767 N.pl3     1 ATP        -0.4429
     23 C8         -0.2004    2.4829   -0.9804 C.ar      1 ATP         0.2964
     24 N7         -0.9830    3.5431   -1.1568 N.pl3     1 ATP        -0.4957
     25 C5         -0.8095    4.3012   -0.0331 C.ar      1 ATP        -0.1346
     26 C6         -1.4065    5.5904    0.3585 C.ar      1 ATP         0.7213
     27 N6         -2.2501    6.2030   -0.4084 N.2       1 ATP        -0.8215
     28 N1         -0.9585    6.0272    1.5994 N.pl3     1 ATP        -0.8455
     29 C2         -0.0508    5.3009    2.3532 C.ar      1 ATP         0.6477
     30 N3          0.4890    4.1592    2.0257 N.2       1 ATP        -0.5707
     31 C4          0.0637    3.7006    0.7995 C.ar      1 ATP         0.2637
     32 HOG3        0.6333    1.7138   -8.8856 H         1 ATP         0.4378
     33 H5'1        1.3514    0.2330   -2.1577 H         1 ATP         0.0340
     34 H5'2        2.1280   -1.3678   -2.0460 H         1 ATP         0.0340
     35 H4'         3.8044   -0.1397   -0.4040 H         1 ATP         0.0910
     36 H3'         1.6764   -1.7639    0.2728 H         1 ATP         0.0656
     37 HO3'        2.2232   -1.2979    2.3953 H         1 ATP         0.4386
     38 H2'        -0.0011    0.0027    0.0003 H         1 ATP         0.0788
     39 HO2'       -0.6141    0.5574    2.1082 H         1 ATP         0.4363
     40 H1'         1.7826    1.9024    1.6451 H         1 ATP         0.1225
     41 H8         -0.1116    1.6863   -1.6984 H         1 ATP         0.3824
     42 HN62       -2.5420    7.0730    0.0447 H         1 ATP         0.4018
     43 H2          0.1969    5.7893    3.3086 H         1 ATP         0.0652
     44 H44        -1.3097    6.9080    1.9642 H         1 ATP         0.4503
     45 H45        -1.5735    3.7351   -1.9538 H         1 ATP         0.5209
@<TRIPOS>BOND
     1    1    2 2
     2    1    3 1
     3    1    4 1
     4    1    8 1
     5    4   32 1
     6    5    6 2
     7    5    7 1
     8    5    8 1
     9    5   12 1
    10    9   10 2
    11    9   11 1
    12    9   12 1
    13    9   13 1
    14   13   14 1
    15   14   15 1
    16   14   33 1
    17   14   34 1
    18   15   16 1
    19   15   17 1
    20   15   35 1
    21   16   21 1
    22   17   18 1
    23   17   19 1
    24   17   36 1
    25   18   37 1
    26   19   20 1
    27   19   21 1
    28   19   38 1
    29   20   39 1
    30   21   22 1
    31   21   40 1
    32   22   23 ar
    33   22   31 ar
    34   23   24 ar
    35   23   41 1
    36   24   25 ar
    37   24   45 1
    38   25   26 ar
    39   25   31 ar
    40   26   27 2
    41   26   28 ar
    42   27   42 1
    43   28   29 ar
    44   28   44 1
    45   29   30 ar
    46   29   43 1
    47   30   31 ar
@<TRIPOS>SUBSTRUCTURE
     1 ATP         1 GROUP 0 A     ****
@<TRIPOS>MOLECULE
[[[3,4-dihydroxy-5-(6-imino-7,8-dihydro-1~{H}-purin-8-ylium-9-yl)tetrahydrofuran-2-yl]methoxy-oxido-phosphoryl]oxy-oxido-phosphoryl] hydrogen phosphate
   45    47     1     0     0
SMALL
USER_CHARGES

@<TRIPOS>ATOM
      1 PG         -1.2536    0.9167    4.7520 P.3       1 ATP         1.5631
      2 O1G        -0.4591    0.2924    3.6266 O.co2     1 ATP        -0.8806
      3 O2G        -0.5594    1.5056    5.9600 O.co2     1 ATP        -0.8806
      4 O3G        -2.2453    2.0496    4.1206 O.3       1 ATP        -0.8165
      5 PB         -2.2053   -1.5829    6.0128 P.3       1 ATP         1.6877
      6 O1B        -1.3408   -1.3826    7.2375 O.co2     1 ATP        -0.8727
      7 O2B        -3.5586   -2.2512    6.1100 O.co2     1 ATP        -0.8727
      8 O3B        -2.3840   -0.1465    5.2577 O.3       1 ATP        -0.8330
      9 PA         -0.7215   -3.8652    4.8532 P.3       1 ATP         1.6036
     10 O1A        -1.8735   -4.8461    4.8225 O.co2     1 ATP        -0.9062
     11 O2A         0.3496   -3.9631    5.9175 O.co2     1 ATP        -0.9062
     12 O3A        -1.3248   -2.3468    4.8700 O.3       1 ATP        -0.8166
     13 O5'         0.0118   -3.8395    3.3916 O.3       1 ATP        -0.5510
     14 C5'        -0.7840   -3.8935    2.2172 C.3       1 ATP         0.2099
     15 C4'        -0.0724   -3.1466    1.1027 C.3       1 ATP         0.0598
     16 O4'        -0.8674   -3.1929   -0.0945 O.3       1 ATP        -0.3455
     17 C3'         0.1338   -1.6715    1.4027 C.3       1 ATP         0.0742
     18 O3'         1.2893   -1.4445    2.1808 O.3       1 ATP        -0.6025
     19 C2'         0.2158   -1.0724    0.0128 C.3       1 ATP         0.1145
     20 O2'         1.5141   -1.2448   -0.5513 O.3       1 ATP        -0.5835
     21 C1'        -0.7897   -1.9176   -0.7583 C.3       1 ATP         0.3776
     22 N9         -2.1040   -1.3333   -0.7704 N.pl3     1 ATP        -0.4429
     23 C8         -3.2114   -1.8635   -0.2619 C.ar      1 ATP         0.2964
     24 N7         -4.2711   -1.0786   -0.4314 N.pl3     1 ATP        -0.4957
     25 C5         -3.7955    0.0193   -1.0917 C.ar      1 ATP        -0.1346
     26 C6         -4.4862    1.2344   -1.5586 C.ar      1 ATP         0.7213
     27 N6         -5.7554    1.4030   -1.3689 N.2       1 ATP        -0.8215
     28 N1         -3.6267    2.1218   -2.1949 N.pl3     1 ATP        -0.8455
     29 C2         -2.2761    1.8558   -2.3521 C.ar      1 ATP         0.6477
     30 N3         -1.6453    0.7881   -1.9466 N.2       1 ATP        -0.5707
     31 C4         -2.4722   -0.1108   -1.3117 C.ar      1 ATP         0.2637
     32 HOG3       -2.8313    2.5486    4.7288 H         1 ATP         0.4378
     33 H5'1       -0.9348   -4.9415    1.9415 H         1 ATP         0.0340
     34 H5'2       -1.7548   -3.4350    2.4278 H         1 ATP         0.0340
     35 H4'         0.8874   -3.6466    0.8805 H         1 ATP         0.0910
     36 H3'        -0.7376   -1.2333    1.9867 H         1 ATP         0.0656
     37 HO3'        1.1626   -1.9325    3.0084 H         1 ATP         0.4386
     38 H2'        -0.0384   -0.0310    0.0096 H         1 ATP         0.0788
     39 HO2'        2.1463   -0.7958    0.0370 H         1 ATP         0.4363
     40 H1'        -0.4769   -2.1002   -1.8093 H         1 ATP         0.1225
     41 H8         -3.2547   -2.8183    0.2325 H         1 ATP         0.3824
     42 HN62       -6.0352    2.3041   -1.7656 H         1 ATP         0.4018
     43 H2         -1.7412    2.6624   -2.8773 H         1 ATP         0.0652
     44 H44        -4.0029    2.9939   -2.5557 H         1 ATP         0.4503
     45 H45        -5.2179   -1.2649   -0.1322 H         1 ATP         0.5209
@<TRIPOS>BOND
     1    1    2 2
     2    1    3 1
     3    1    4 1
     4    1    8 1
     5    4   32 1
     6    5    6 2
     7    5    7 1
     8    5    8 1
     9    5   12 1
    10    9   10 2
    11    9   11 1
    12    9   12 1
    13    9   13 1
    14   13   14 1
    15   14   15 1
    16   14   33 1
    17   14   34 1
    18   15   16 1
    19   15   17 1
    20   15   35 1
    21   16   21 1
    22   17   18 1
    23   17   19 1
    24   17   36 1
    25   18   37 1
    26   19   20 1
    27   19   21 1
    28   19   38 1
    29   20   39 1
    30   21   22 1
    31   21   40 1
    32   22   23 ar
    33   22   31 ar
    34   23   24 ar
    35   23   41 1
    36   24   25 ar
    37   24   45 1
    38   25   26 ar
    39   25   31 ar
    40   26   27 2
    41   26   28 ar
    42   27   42 1
    43   28   29 ar
    44   28   44 1
    45   29   30 ar
    46   29   43 1
    47   30   31 ar
@<TRIPOS>SUBSTRUCTURE
     1 ATP         1 GROUP 0 A     ****
@<TRIPOS>MOLECULE
[[[3,4-dihydroxy-5-(6-imino-7,8-dihydro-1~{H}-purin-8-ylium-9-yl)tetrahydrofuran-2-yl]methoxy-oxido-phosphoryl]oxy-oxido-phosphoryl] hydrogen phosphate
   45    47     1     0     0
SMALL
USER_CHARGES

@<TRIPOS>ATOM
      1 PG          8.0841   -2.9330   -2.1820 P.3       1 ATP         1.5631
      2 O1G         8.5761   -3.1215   -0.7642 O.co2     1 ATP        -0.8806
      3 O2G         9.0486   -2.6199   -3.3042 O.co2     1 ATP        -0.8806
      4 O3G         7.2050   -4.2425   -2.6042 O.3       1 ATP        -0.8165
      5 PB          6.9461   -0.2229   -1.8604 P.3       1 ATP         1.6877
      6 O1B         7.2782   -0.0380   -0.3965 O.co2     1 ATP        -0.8727
      7 O2B         7.7536    0.4633   -2.9396 O.co2     1 ATP        -0.8727
      8 O3B         6.8889   -1.8217   -2.1862 O.3       1 ATP        -0.8330
      9 PA          4.4374   -0.0466   -3.4193 P.3       1 ATP         1.6036
     10 O1A         4.3033   -1.5210   -3.7328 O.co2     1 ATP        -0.9062
     11 O2A         4.9277    0.9261   -4.4696 O.co2     1 ATP        -0.9062
     12 O3A         5.3672    0.1247   -2.0867 O.3       1 ATP        -0.8166
     13 O5'         3.0213    0.5153   -2.8245 O.3       1 ATP        -0.5510
     14 C5'         2.2816   -0.2918   -1.9206 C.3       1 ATP         0.2099
     15 C4'         2.7248    0.0226   -0.4980 C.3       1 ATP         0.0598
     16 O4'         2.4697    1.4219   -0.2462 O.3       1 ATP        -0.3455
     17 C3'         1.9404   -0.7419    0.5596 C.3       1 ATP         0.0742
     18 O3'         2.7418   -0.8086    1.7389 O.3       1 ATP        -0.6025
     19 C2'         0.7477    0.1630    0.7858 C.3       1 ATP         0.1145
     20 O2'         0.1373   -0.0577    2.0407 O.3       1 ATP        -0.5835
     21 C1'         1.3733    1.5427    0.6747 C.3       1 ATP         0.3776
     22 N9          0.4520    2.5240    0.1767 N.pl3     1 ATP        -0.4429
     23 C8         -0.6821    2.9098    0.7521 C.ar      1 ATP         0.2964
     24 N7         -1.3175    3.8384    0.0437 N.pl3     1 ATP        -0.4957
     25 C5         -0.5274    4.0494   -1.0512 C.ar      1 ATP        -0.1346
     26 C6         -0.6966    4.9597   -2.1977 C.ar      1 ATP         0.7213
     27 N6         -1.7259    5.7385   -2.2937 N.2       1 ATP        -0.8215
     28 N1          0.3493    4.8663   -3.1079 N.pl3     1 ATP        -0.8455
     29 C2          1.4148    4.0005   -2.9208 C.ar      1 ATP         0.6477
     30 N3          1.5838    3.1876   -1.9144 N.2       1 ATP        -0.5707
     31 C4          0.5619    3.2578   -0.9949 C.ar      1 ATP         0.2637
     32 HOG3        6.8132   -4.2718   -3.5031 H         1 ATP         0.4378
     33 H5'1        1.2163   -0.0770   -2.0471 H         1 ATP         0.0340
     34 H5'2        2.4655   -1.3443   -2.1563 H         1 ATP         0.0340
     35 H4'         3.8044   -0.1397   -0.4040 H         1 ATP         0.0910
     36 H3'         1.6764   -1.7639    0.2728 H         1 ATP         0.0656
     37 HO3'        3.5554   -1.2733    1.4914 H         1 ATP         0.4386
     38 H2'        -0.0011    0.0027    0.0003 H         1 ATP         0.0788
     39 HO2'       -0.1563   -0.9855    2.0596 H         1 ATP         0.4363
     40 H1'         1.7826    1.9024    1.6451 H         1 ATP         0.1225
     41 H8         -1.0516    2.5207    1.6849 H         1 ATP         0.3824
     42 HN62       -1.6520    6.2842   -3.1564 H         1 ATP         0.4018
     43 H2          2.1542    4.0525   -3.7351 H         1 ATP         0.0652
     44 H44         0.3306    5.4533   -3.9370 H         1 ATP         0.4503
     45 H45        -2.1941    4.2838    0.2756 H         1 ATP         0.5209
@<TRIPOS>BOND
     1    1    2 2
     2    1    3 1
     3    1    4 1
     4    1    8 1
     5    4   32 1
     6    5    6 2
     7    5    7 1
     8    5    8 1
     9    5   12 1
    10    9   10 2
    11    9   11 1
    12    9   12 1
    13    9   13 1
    14   13   14 1
    15   14   15 1
    16   14   33 1
    17   14   34 1
    18   15   16 1
    19   15   17 1
    20   15   35 1
    21   16   21 1
    22   17   18 1
    23   17   19 1
    24   17   36 1
    25   18   37 1
    26   19   20 1
    27   19   21 1
    28   19   38 1
    29   20   39 1
    30   21   22 1
    31   21   40 1
    32   22   23 ar
    33   22   31 ar
    34   23   24 ar
    35   23   41 1
    36   24   25 ar
    37   24   45 1
    38   25   26 ar
    39   25   31 ar
    40   26   27 2
    41   26   28 ar
    42   27   42 1
    43   28   29 ar
    44   28   44 1
    45   29   30 ar
    46   29   43 1
    47   30   31 ar
@<TRIPOS>SUBSTRUCTURE
     1 ATP         1 GROUP 0 A     ****
@<TRIPOS>MOLECULE
[[[3,4-dihydroxy-5-(6-imino-7,8-dihydro-1~{H}-purin-8-ylium-9-yl)tetrahydrofuran-2-yl]methoxy-oxido-phosphoryl]oxy-oxido-phosphoryl] hydrogen phosphate
   45    47     1     0     0
SMALL
USER_CHARGES

@<TRIPOS>ATOM
      1 PG          0.0374    5.0728   -4.5469 P.3       1 ATP         1.5631
      2 O1G         0.7899    5.9227   -5.5463 O.co2     1 ATP        -0.8806
      3 O2G        -0.3299    5.6171   -3.1843 O.co2     1 ATP        -0.8806
      4 O3G        -1.3176    4.5085   -5.2621 O.3       1 ATP        -0.8165
      5 PB          1.3102    2.5703   -5.4746 P.3       1 ATP         1.6877
      6 O1B         0.0870    1.9454   -6.1077 O.co2     1 ATP        -0.8727
      7 O2B         2.3955    3.1985   -6.3201 O.co2     1 ATP        -0.8727
      8 O3B         0.8240    3.6556   -4.3560 O.3       1 ATP        -0.8330
      9 PA          3.2344    1.6562   -3.4210 P.3       1 ATP         1.6036
     10 O1A         2.8137    2.6124   -2.3260 O.co2     1 ATP        -0.9062
     11 O2A         4.4988    1.8986   -4.2160 O.co2     1 ATP        -0.9062
     12 O3A         1.9940    1.4803   -4.4699 O.3       1 ATP        -0.8166
     13 O5'         3.2903    0.1346   -2.8241 O.3       1 ATP        -0.5510
     14 C5'         2.2816   -0.2918   -1.9206 C.3       1 ATP         0.2099
     15 C4'         2.7248    0.0226   -0.4980 C.3       1 ATP         0.0598
     16 O4'         2.4697    1.4219   -0.2462 O.3       1 ATP        -0.3455
     17 C3'         1.9404   -0.7419    0.5596 C.3       1 ATP         0.0742
     18 O3'         2.7418   -0.8086    1.7389 O.3       1 ATP        -0.6025
     19 C2'         0.7477    0.1630    0.7858 C.3       1 ATP         0.1145
     20 O2'         0.1373   -0.0577    2.0407 O.3       1 ATP        -0.5835
     21 C1'         1.3733    1.5427    0.6747 C.3       1 ATP         0.3776
     22 N9          0.4520    2.5240    0.1767 N.pl3     1 ATP        -0.4429
     23 C8         -0.2004    2.4829   -0.9804 C.ar      1 ATP         0.2964
     24 N7         -0.9830    3.5431   -1.1568 N.pl3     1 ATP        -0.4957
     25 C5         -0.8095    4.3012   -0.0331 C.ar      1 ATP        -0.1346
     26 C6         -1.4065    5.5904    0.3585 C.ar      1 ATP         0.7213
     27 N6         -2.2501    6.2030   -0.4084 N.2       1 ATP        -0.8215
     28 N1         -0.9585    6.0272    1.5994 N.pl3     1 ATP        -0.8455
     29 C2         -0.0508    5.3009    2.3532 C.ar      1 ATP         0.6477
     30 N3          0.4890    4.1592    2.0257 N.2       1 ATP        -0.5707
     31 C4          0.0637    3.7006    0.7995 C.ar      1 ATP         0.2637
     32 HOG3       -1.2247    3.9490   -6.0625 H         1 ATP         0.4378
     33 H5'1        1.3514    0.2330   -2.1577 H         1 ATP         0.0340
     34 H5'2        2.1280   -1.3678   -2.0460 H         1 ATP         0.0340
     35 H4'         3.8044   -0.1397   -0.4040 H         1 ATP         0.0910
     36 H3'         1.6764   -1.7639    0.2728 H         1 ATP         0.0656
     37 HO3'        2.2232   -1.2979    2.3953 H         1 ATP         0.4386
     38 H2'        -0.0011    0.0027    0.0003 H         1 ATP         0.0788
     39 HO2'       -0.6141    0.5574    2.1082 H         1 ATP         0.4363
     40 H1'         1.7826    1.9024    1.6451 H         1 ATP         0.1225
     41 H8         -0.1116    1.6863   -1.6984 H         1 ATP         0.3824
     42 HN62       -2.5420    7.0730    0.0447 H         1 ATP         0.4018
     43 H2          0.1969    5.7893    3.3086 H         1 ATP         0.0652
     44 H44        -1.3097    6.9080    1.9642 H         1 ATP         0.4503
     45 H45        -1.5735    3.7351   -1.9538 H         1 ATP         0.5209
@<TRIPOS>BOND
     1    1    2 2
     2    1    3 1
     3    1    4 1
     4    1    8 1
     5    4   32 1
     6    5    6 2
     7    5    7 1
     8    5    8 1
     9    5   12 1
    10    9   10 2
    11    9   11 1
    12    9   12 1
    13    9   13 1
    14   13   14 1
    15   14   15 1
    16   14   33 1
    17   14   34 1
    18   15   16 1
    19   15   17 1
    20   15   35 1
    21   16   21 1
    22   17   18 1
    23   17   19 1
    24   17   36 1
    25   18   37 1
    26   19   20 1
    27   19   21 1
    28   19   38 1
    29   20   39 1
    30   21   22 1
    31   21   40 1
    32   22   23 ar
    33   22   31 ar
    34   23   24 ar
    35   23   41 1
    36   24   25 ar
    37   24   45 1
    38   25   26 ar
    39   25   31 ar
    40   26   27 2
    41   26   28 ar
    42   27   42 1
    43   28   29 ar
    44   28   44 1
    45   29   30 ar
    46   29   43 1
    47   30   31 ar
@<TRIPOS>SUBSTRUCTURE
     1 ATP         1 GROUP 0 A     ****
@<TRIPOS>MOLECULE
[[[3,4-dihydroxy-5-(6-imino-7,8-dihydro-1~{H}-purin-8-ylium-9-yl)tetrahydrofuran-2-yl]methoxy-oxido-phosphoryl]oxy-oxido-phosphoryl] hydrogen phosphate
   45    47     1     0     0
SMALL
USER_CHARGES

@<TRIPOS>ATOM
      1 PG         -5.1041   -5.4279    4.3925 P.3       1 ATP         1.5631
      2 O1G        -3.7219   -4.9279    4.7488 O.co2     1 ATP        -0.8806
      3 O2G        -5.5951   -6.7716    4.8834 O.co2     1 ATP        -0.8806
      4 O3G        -6.1937   -4.2898    4.8209 O.3       1 ATP        -0.8165
      5 PB         -4.5479   -6.2000    1.5929 P.3       1 ATP         1.6877
      6 O1B        -4.6826   -7.6760    1.8944 O.co2     1 ATP        -0.8727
      7 O2B        -4.9629   -5.6330    0.2535 O.co2     1 ATP        -0.8727
      8 O3B        -5.2945   -5.3545    2.7732 O.3       1 ATP        -0.8330
      9 PA         -1.6226   -6.1545    1.1504 P.3       1 ATP         1.6036
     10 O1A        -1.6513   -5.6066   -0.2600 O.co2     1 ATP        -0.9062
     11 O2A        -1.3635   -7.6235    1.4045 O.co2     1 ATP        -0.9062
     12 O3A        -3.0125   -5.7405    1.9031 O.3       1 ATP        -0.8166
     13 O5'        -0.5687   -5.2869    2.0510 O.3       1 ATP        -0.5510
     14 C5'        -0.7840   -3.8935    2.2172 C.3       1 ATP         0.2099
     15 C4'        -0.0724   -3.1466    1.1027 C.3       1 ATP         0.0598
     16 O4'        -0.8674   -3.1929   -0.0945 O.3       1 ATP        -0.3455
     17 C3'         0.1338   -1.6715    1.4027 C.3       1 ATP         0.0742
     18 O3'         1.2893   -1.4445    2.1808 O.3       1 ATP        -0.6025
     19 C2'         0.2158   -1.0724    0.0128 C.3       1 ATP         0.1145
     20 O2'         1.5141   -1.2448   -0.5513 O.3       1 ATP        -0.5835
     21 C1'        -0.7897   -1.9176   -0.7583 C.3       1 ATP         0.3776
     22 N9         -2.1040   -1.3333   -0.7704 N.pl3     1 ATP        -0.4429
     23 C8         -3.0590   -1.5123    0.1363 C.ar      1 ATP         0.2964
     24 N7         -4.1655   -0.8354   -0.1554 N.pl3     1 ATP        -0.4957
     25 C5         -3.8852   -0.1874   -1.3253 C.ar      1 ATP        -0.1346
     26 C6         -4.7113    0.7160   -2.1458 C.ar      1 ATP         0.7213
     27 N6         -5.9213    1.0209   -1.8021 N.2       1 ATP        -0.8215
     28 N1         -4.0411    1.1673   -3.2764 N.pl3     1 ATP        -0.8455
     29 C2         -2.7403    0.7865   -3.5638 C.ar      1 ATP         0.6477
     30 N3         -1.9921   -0.0108   -2.8519 N.2       1 ATP        -0.5707
     31 C4         -2.6302   -0.4747   -1.7239 C.ar      1 ATP         0.2637
     32 HOG3       -7.1439   -4.4666    4.6532 H         1 ATP         0.4378
     33 H5'1       -1.8598   -3.6968    2.1850 H         1 ATP         0.0340
     34 H5'2       -0.3933   -3.5903    3.1931 H         1 ATP         0.0340
     35 H4'         0.8874   -3.6466    0.8805 H         1 ATP         0.0910
     36 H3'        -0.7376   -1.2333    1.9867 H         1 ATP         0.0656
     37 HO3'        1.1626   -1.9325    3.0084 H         1 ATP         0.4386
     38 H2'        -0.0384   -0.0310    0.0096 H         1 ATP         0.0788
     39 HO2'        2.1463   -0.7958    0.0370 H         1 ATP         0.4363
     40 H1'        -0.4769   -2.1002   -1.8093 H         1 ATP         0.1225
     41 H8         -2.9569   -2.1323    1.0098 H         1 ATP         0.3824
     42 HN62       -6.3169    1.6552   -2.5012 H         1 ATP         0.4018
     43 H2         -2.3612    1.2343   -4.4957 H         1 ATP         0.0652
     44 H44        -4.5223    1.7976   -3.9117 H         1 ATP         0.4503
     45 H45        -5.0218   -0.8132    0.3804 H         1 ATP         0.5209
@<TRIPOS>BOND
     1    1    2 2
     2    1    3 1
     3    1    4 1
     4    1    8 1
     5    4   32 1
     6    5    6 2
     7    5    7 1
     8    5    8 1
     9    5   12 1
    10    9   10 2
    11    9   11 1
    12    9   12 1
    13    9   13 1
    14   13   14 1
    15   14   15 1
    16   14   33 1
    17   14   34 1
    18   15   16 1
    19   15   17 1
    20   15   35 1
    21   16   21 1
    22   17   18 1
    23   17   19 1
    24   17   36 1
    25   18   37 1
    26   19   20 1
    27   19   21 1
    28   19   38 1
    29   20   39 1
    30   21   22 1
    31   21   40 1
    32   22   23 ar
    33   22   31 ar
    34   23   24 ar
    35   23   41 1
    36   24   25 ar
    37   24   45 1
    38   25   26 ar
    39   25   31 ar
    40   26   27 2
    41   26   28 ar
    42   27   42 1
    43   28   29 ar
    44   28   44 1
    45   29   30 ar
    46   29   43 1
    47   30   31 ar
@<TRIPOS>SUBSTRUCTURE
     1 ATP         1 GROUP 0 A     ****
@<TRIPOS>MOLECULE
[[[3,4-dihydroxy-5-(6-imino-7,8-dihydro-1~{H}-purin-8-ylium-9-yl)tetrahydrofuran-2-yl]methoxy-oxido-phosphoryl]oxy-oxido-phosphoryl] hydrogen phosphate
   45    47     1     0     0
SMALL
USER_CHARGES

@<TRIPOS>ATOM
      1 PG          8.3616    0.2046    0.7003 P.3       1 ATP         1.5631
      2 O1G         8.9517   -1.1879    0.7011 O.co2     1 ATP        -0.8806
      3 O2G         7.9954    0.8943    1.9957 O.co2     1 ATP        -0.8806
      4 O3G         9.3519    1.1871   -0.1482 O.3       1 ATP        -0.8165
      5 PB          6.9461   -0.2229   -1.8604 P.3       1 ATP         1.6877
      6 O1B         7.7755    0.7161   -2.7076 O.co2     1 ATP        -0.8727
      7 O2B         7.1297   -1.7218   -1.9435 O.co2     1 ATP        -0.8727
      8 O3B         7.0706    0.2339   -0.2979 O.3       1 ATP        -0.8330
      9 PA          4.4374   -0.0466   -3.4193 P.3       1 ATP         1.6036
     10 O1A         4.3033   -1.5210   -3.7328 O.co2     1 ATP        -0.9062
     11 O2A         4.9277    0.9261   -4.4696 O.co2     1 ATP        -0.9062
     12 O3A         5.3672    0.1247   -2.0867 O.3       1 ATP        -0.8166
     13 O5'         3.0213    0.5153   -2.8245 O.3       1 ATP        -0.5510
     14 C5'         2.2816   -0.2918   -1.9206 C.3       1 ATP         0.2099
     15 C4'         2.7248    0.0226   -0.4980 C.3       1 ATP         0.0598
     16 O4'         2.4697    1.4219   -0.2462 O.3       1 ATP        -0.3455
     17 C3'         1.9404   -0.7419    0.5596 C.3       1 ATP         0.0742
     18 O3'         2.7418   -0.8086    1.7389 O.3       1 ATP        -0.6025
     19 C2'         0.7477    0.1630    0.7858 C.3       1 ATP         0.1145
     20 O2'         0.1373   -0.0577    2.0407 O.3       1 ATP        -0.5835
     21 C1'         1.3733    1.5427    0.6747 C.3       1 ATP         0.3776
     22 N9          0.4520    2.5240    0.1767 N.pl3     1 ATP        -0.4429
     23 C8         -0.8620    2.5492    0.3743 C.ar      1 ATP         0.2964
     24 N7         -1.4419    3.5886   -0.2183 N.pl3     1 ATP        -0.4957
     25 C5         -0.4215    4.2614   -0.8294 C.ar      1 ATP        -0.1346
     26 C6         -0.4310    5.4918   -1.6405 C.ar      1 ATP         0.7213
     27 N6         -1.5302    6.1308   -1.8826 N.2       1 ATP        -0.8215
     28 N1          0.8382    5.8461   -2.0817 N.pl3     1 ATP        -0.8455
     29 C2          1.9625    5.0982   -1.7709 C.ar      1 ATP         0.6477
     30 N3          1.9930    4.0077   -1.0554 N.2       1 ATP        -0.5707
     31 C4          0.7483    3.6314   -0.6038 C.ar      1 ATP         0.2637
     32 HOG3        9.1047    2.1319   -0.2411 H         1 ATP         0.4378
     33 H5'1        1.2163   -0.0770   -2.0471 H         1 ATP         0.0340
     34 H5'2        2.4655   -1.3443   -2.1563 H         1 ATP         0.0340
     35 H4'         3.8044   -0.1397   -0.4040 H         1 ATP         0.0910
     36 H3'         1.6764   -1.7639    0.2728 H         1 ATP         0.0656
     37 HO3'        3.5554   -1.2733    1.4914 H         1 ATP         0.4386
     38 H2'        -0.0011    0.0027    0.0003 H         1 ATP         0.0788
     39 HO2'       -0.1563   -0.9855    2.0596 H         1 ATP         0.4363
     40 H1'         1.7826    1.9024    1.6451 H         1 ATP         0.1225
     41 H8         -1.4030    1.8165    0.9473 H         1 ATP         0.3824
     42 HN62       -1.3197    6.9504   -2.4583 H         1 ATP         0.4018
     43 H2          2.8857    5.5186   -2.1994 H         1 ATP         0.0652
     44 H44         0.9433    6.6815   -2.6502 H         1 ATP         0.4503
     45 H45        -2.4254    3.8199   -0.2108 H         1 ATP         0.5209
@<TRIPOS>BOND
     1    1    2 2
     2    1    3 1
     3    1    4 1
     4    1    8 1
     5    4   32 1
     6    5    6 2
     7    5    7 1
     8    5    8 1
     9    5   12 1
    10    9   10 2
    11    9   11 1
    12    9   12 1
    13    9   13 1
    14   13   14 1
    15   14   15 1
    16   14   33 1
    17   14   34 1
    18   15   16 1
    19   15   17 1
    20   15   35 1
    21   16   21 1
    22   17   18 1
    23   17   19 1
    24   17   36 1
    25   18   37 1
    26   19   20 1
    27   19   21 1
    28   19   38 1
    29   20   39 1
    30   21   22 1
    31   21   40 1
    32   22   23 ar
    33   22   31 ar
    34   23   24 ar
    35   23   41 1
    36   24   25 ar
    37   24   45 1
    38   25   26 ar
    39   25   31 ar
    40   26   27 2
    41   26   28 ar
    42   27   42 1
    43   28   29 ar
    44   28   44 1
    45   29   30 ar
    46   29   43 1
    47   30   31 ar
@<TRIPOS>SUBSTRUCTURE
     1 ATP         1 GROUP 0 A     ****
@<TRIPOS>MOLECULE
[[[3,4-dihydroxy-5-(6-imino-7,8-dihydro-1~{H}-purin-8-ylium-9-yl)tetrahydrofuran-2-yl]methoxy-oxido-phosphoryl]oxy-oxido-phosphoryl] hydrogen phosphate
   45    47     1     0     0
SMALL
USER_CHARGES

@<TRIPOS>ATOM
      1 PG          1.9577   -2.5624   -7.4925 P.3       1 ATP         1.5631
      2 O1G         2.7832   -2.1919   -8.7044 O.co2     1 ATP        -0.8806
      3 O2G         0.6931   -1.8054   -7.1524 O.co2     1 ATP        -0.8806
      4 O3G         1.6031   -4.1542   -7.5734 O.3       1 ATP        -0.8165
      5 PB          3.7082   -1.3710   -5.4286 P.3       1 ATP         1.6877
      6 O1B         4.3342   -1.9039   -4.1591 O.co2     1 ATP        -0.8727
      7 O2B         4.5305   -0.6203   -6.4522 O.co2     1 ATP        -0.8727
      8 O3B         2.9260   -2.5919   -6.1790 O.3       1 ATP        -0.8330
      9 PA          2.3336    0.9636   -4.2390 P.3       1 ATP         1.6036
     10 O1A         0.8796    1.3120   -4.0049 O.co2     1 ATP        -0.9062
     11 O2A         3.2620    1.9405   -4.9270 O.co2     1 ATP        -0.9062
     12 O3A         2.4109   -0.4633   -5.0313 O.3       1 ATP        -0.8166
     13 O5'         3.0213    0.5153   -2.8245 O.3       1 ATP        -0.5510
     14 C5'         2.2816   -0.2918   -1.9206 C.3       1 ATP         0.2099
     15 C4'         2.7248    0.0226   -0.4980 C.3       1 ATP         0.0598
     16 O4'         2.4697    1.4219   -0.2462 O.3       1 ATP        -0.3455
     17 C3'         1.9404   -0.7419    0.5596 C.3       1 ATP         0.0742
     18 O3'         2.7418   -0.8086    1.7389 O.3       1 ATP        -0.6025
     19 C2'         0.7477    0.1630    0.7858 C.3       1 ATP         0.1145
     20 O2'         0.1373   -0.0577    2.0407 O.3       1 ATP        -0.5835
     21 C1'         1.3733    1.5427    0.6747 C.3       1 ATP         0.3776
     22 N9          0.4520    2.5240    0.1767 N.pl3     1 ATP        -0.4429
     23 C8         -0.6821    2.9098    0.7521 C.ar      1 ATP         0.2964
     24 N7         -1.3175    3.8384    0.0437 N.pl3     1 ATP        -0.4957
     25 C5         -0.5274    4.0494   -1.0512 C.ar      1 ATP        -0.1346
     26 C6         -0.6966    4.9597   -2.1977 C.ar      1 ATP         0.7213
     27 N6         -1.7259    5.7385   -2.2937 N.2       1 ATP        -0.8215
     28 N1          0.3493    4.8663   -3.1079 N.pl3     1 ATP        -0.8455
     29 C2          1.4148    4.0005   -2.9208 C.ar      1 ATP         0.6477
     30 N3          1.5838    3.1876   -1.9144 N.2       1 ATP        -0.5707
     31 C4          0.5619    3.2578   -0.9949 C.ar      1 ATP         0.2637
     32 HOG3        1.0679   -4.5505   -6.8532 H         1 ATP         0.4378
     33 H5'1        1.2163   -0.0770   -2.0471 H         1 ATP         0.0340
     34 H5'2        2.4655   -1.3443   -2.1563 H         1 ATP         0.0340
     35 H4'         3.8044   -0.1397   -0.4040 H         1 ATP         0.0910
     36 H3'         1.6764   -1.7639    0.2728 H         1 ATP         0.0656
     37 HO3'        3.5554   -1.2733    1.4914 H         1 ATP         0.4386
     38 H2'        -0.0011    0.0027    0.0003 H         1 ATP         0.0788
     39 HO2'        0.8082    0.1199    2.7232 H         1 ATP         0.4363
     40 H1'         1.7826    1.9024    1.6451 H         1 ATP         0.1225
     41 H8         -1.0516    2.5207    1.6849 H         1 ATP         0.3824
     42 HN62       -1.6520    6.2842   -3.1564 H         1 ATP         0.4018
     43 H2          2.1542    4.0525   -3.7351 H         1 ATP         0.0652
     44 H44         0.3306    5.4533   -3.9370 H         1 ATP         0.4503
     45 H45        -2.1941    4.2838    0.2756 H         1 ATP         0.5209
@<TRIPOS>BOND
     1    1    2 2
     2    1    3 1
     3    1    4 1
     4    1    8 1
     5    4   32 1
     6    5    6 2
     7    5    7 1
     8    5    8 1
     9    5   12 1
    10    9   10 2
    11    9   11 1
    12    9   12 1
    13    9   13 1
    14   13   14 1
    15   14   15 1
    16   14   33 1
    17   14   34 1
    18   15   16 1
    19   15   17 1
    20   15   35 1
    21   16   21 1
    22   17   18 1
    23   17   19 1
    24   17   36 1
    25   18   37 1
    26   19   20 1
    27   19   21 1
    28   19   38 1
    29   20   39 1
    30   21   22 1
    31   21   40 1
    32   22   23 ar
    33   22   31 ar
    34   23   24 ar
    35   23   41 1
    36   24   25 ar
    37   24   45 1
    38   25   26 ar
    39   25   31 ar
    40   26   27 2
    41   26   28 ar
    42   27   42 1
    43   28   29 ar
    44   28   44 1
    45   29   30 ar
    46   29   43 1
    47   30   31 ar
@<TRIPOS>SUBSTRUCTURE
     1 ATP         1 GROUP 0 A     ****
@<TRIPOS>MOLECULE
[[[3,4-dihydroxy-5-(6-imino-7,8-dihydro-1~{H}-purin-8-ylium-9-yl)tetrahydrofuran-2-yl]methoxy-oxido-phosphoryl]oxy-oxido-phosphoryl] hydrogen phosphate
   45    47     1     0     0
SMALL
USER_CHARGES

@<TRIPOS>ATOM
      1 PG         -5.4596   -9.0117    1.6760 P.3       1 ATP         1.5631
      2 O1G        -5.8885   -9.1339    0.2308 O.co2     1 ATP        -0.8806
      3 O2G        -6.4823   -8.8643    2.7805 O.co2     1 ATP        -0.8806
      4 O3G        -4.4854  -10.2715    2.0362 O.3       1 ATP        -0.8165
      5 PB         -4.5479   -6.2000    1.5929 P.3       1 ATP         1.6877
      6 O1B        -4.8482   -5.9345    0.1345 O.co2     1 ATP        -0.8727
      7 O2B        -5.4449   -5.6657    2.6872 O.co2     1 ATP        -0.8727
      8 O3B        -4.3645   -7.8084    1.8051 O.3       1 ATP        -0.8330
      9 PA         -1.6226   -6.1545    1.1504 P.3       1 ATP         1.6036
     10 O1A        -1.6513   -5.6066   -0.2600 O.co2     1 ATP        -0.9062
     11 O2A        -1.3635   -7.6235    1.4045 O.co2     1 ATP        -0.9062
     12 O3A        -3.0125   -5.7405    1.9031 O.3       1 ATP        -0.8166
     13 O5'        -0.5687   -5.2869    2.0510 O.3       1 ATP        -0.5510
     14 C5'        -0.7840   -3.8935    2.2172 C.3       1 ATP         0.2099
     15 C4'        -0.0724   -3.1466    1.1027 C.3       1 ATP         0.0598
     16 O4'        -0.8674   -3.1929   -0.0945 O.3       1 ATP        -0.3455
     17 C3'         0.1338   -1.6715    1.4027 C.3       1 ATP         0.0742
     18 O3'         1.2893   -1.4445    2.1808 O.3       1 ATP        -0.6025
     19 C2'         0.2158   -1.0724    0.0128 C.3       1 ATP         0.1145
     20 O2'         1.5141   -1.2448   -0.5513 O.3       1 ATP        -0.5835
     21 C1'        -0.7897   -1.9176   -0.7583 C.3       1 ATP         0.3776
     22 N9         -2.1040   -1.3333   -0.7704 N.pl3     1 ATP        -0.4429
     23 C8         -3.0590   -1.5123    0.1363 C.ar      1 ATP         0.2964
     24 N7         -4.1655   -0.8354   -0.1554 N.pl3     1 ATP        -0.4957
     25 C5         -3.8852   -0.1874   -1.3253 C.ar      1 ATP        -0.1346
     26 C6         -4.7113    0.7160   -2.1458 C.ar      1 ATP         0.7213
     27 N6         -5.9213    1.0209   -1.8021 N.2       1 ATP        -0.8215
     28 N1         -4.0411    1.1673   -3.2764 N.pl3     1 ATP        -0.8455
     29 C2         -2.7403    0.7865   -3.5638 C.ar      1 ATP         0.6477
     30 N3         -1.9921   -0.0108   -2.8519 N.2       1 ATP        -0.5707
     31 C4         -2.6302   -0.4747   -1.7239 C.ar      1 ATP         0.2637
     32 HOG3       -4.1212  -10.3352    2.9448 H         1 ATP         0.4378
     33 H5'1       -1.8598   -3.6968    2.1850 H         1 ATP         0.0340
     34 H5'2       -0.3933   -3.5903    3.1931 H         1 ATP         0.0340
     35 H4'         0.8874   -3.6466    0.8805 H         1 ATP         0.0910
     36 H3'        -0.7376   -1.2333    1.9867 H         1 ATP         0.0656
     37 HO3'        1.3408   -0.4870    2.3219 H         1 ATP         0.4386
     38 H2'        -0.0384   -0.0310    0.0096 H         1 ATP         0.0788
     39 HO2'        2.1463   -0.7958    0.0370 H         1 ATP         0.4363
     40 H1'        -0.4769   -2.1002   -1.8093 H         1 ATP         0.1225
     41 H8         -2.9569   -2.1323    1.0098 H         1 ATP         0.3824
     42 HN62       -6.3169    1.6552   -2.5012 H         1 ATP         0.4018
     43 H2         -2.3612    1.2343   -4.4957 H         1 ATP         0.0652
     44 H44        -4.5223    1.7976   -3.9117 H         1 ATP         0.4503
     45 H45        -5.0218   -0.8132    0.3804 H         1 ATP         0.5209
@<TRIPOS>BOND
     1    1    2 2
     2    1    3 1
     3    1    4 1
     4    1    8 1
     5    4   32 1
     6    5    6 2
     7    5    7 1
     8    5    8 1
     9    5   12 1
    10    9   10 2
    11    9   11 1
    12    9   12 1
    13    9   13 1
    14   13   14 1
    15   14   15 1
    16   14   33 1
    17   14   34 1
    18   15   16 1
    19   15   17 1
    20   15   35 1
    21   16   21 1
    22   17   18 1
    23   17   19 1
    24   17   36 1
    25   18   37 1
    26   19   20 1
    27   19   21 1
    28   19   38 1
    29   20   39 1
    30   21   22 1
    31   21   40 1
    32   22   23 ar
    33   22   31 ar
    34   23   24 ar
    35   23   41 1
    36   24   25 ar
    37   24   45 1
    38   25   26 ar
    39   25   31 ar
    40   26   27 2
    41   26   28 ar
    42   27   42 1
    43   28   29 ar
    44   28   44 1
    45   29   30 ar
    46   29   43 1
    47   30   31 ar
@<TRIPOS>SUBSTRUCTURE
     1 ATP         1 GROUP 0 A     ****
@<TRIPOS>MOLECULE
[[[3,4-dihydroxy-5-(6-imino-7,8-dihydro-1~{H}-purin-8-ylium-9-yl)tetrahydrofuran-2-yl]methoxy-oxido-phosphoryl]oxy-oxido-phosphoryl] hydrogen phosphate
   45    47     1     0     0
SMALL
USER_CHARGES

@<TRIPOS>ATOM
      1 PG          5.5880    5.8422   -3.1056 P.3       1 ATP         1.5631
      2 O1G         6.5927    5.6322   -4.2164 O.co2     1 ATP        -0.8806
      3 O2G         5.9945    6.4946   -1.8030 O.co2     1 ATP        -0.8806
      4 O3G         4.3055    6.6504   -3.7122 O.3       1 ATP        -0.8165
      5 PB          3.5940    4.0992   -1.7907 P.3       1 ATP         1.6877
      6 O1B         4.0244    4.3440   -0.3616 O.co2     1 ATP        -0.8727
      7 O2B         2.3526    4.7512   -2.3575 O.co2     1 ATP        -0.8727
      8 O3B         4.8527    4.4222   -2.7791 O.3       1 ATP        -0.8330
      9 PA          3.2344    1.6562   -3.4210 P.3       1 ATP         1.6036
     10 O1A         4.4053    1.8754   -4.3543 O.co2     1 ATP        -0.9062
     11 O2A         1.8186    1.9327   -3.8780 O.co2     1 ATP        -0.9062
     12 O3A         3.5002    2.4887   -2.0403 O.3       1 ATP        -0.8166
     13 O5'         3.2903    0.1346   -2.8241 O.3       1 ATP        -0.5510
     14 C5'         2.2816   -0.2918   -1.9206 C.3       1 ATP         0.2099
     15 C4'         2.7248    0.0226   -0.4980 C.3       1 ATP         0.0598
     16 O4'         2.4697    1.4219   -0.2462 O.3       1 ATP        -0.3455
     17 C3'         1.9404   -0.7419    0.5596 C.3       1 ATP         0.0742
     18 O3'         2.7418   -0.8086    1.7389 O.3       1 ATP        -0.6025
     19 C2'         0.7477    0.1630    0.7858 C.3       1 ATP         0.1145
     20 O2'         0.1373   -0.0577    2.0407 O.3       1 ATP        -0.5835
     21 C1'         1.3733    1.5427    0.6747 C.3       1 ATP         0.3776
     22 N9          0.4520    2.5240    0.1767 N.pl3     1 ATP        -0.4429
     23 C8         -0.2004    2.4829   -0.9804 C.ar      1 ATP         0.2964
     24 N7         -0.9830    3.5431   -1.1568 N.pl3     1 ATP        -0.4957
     25 C5         -0.8095    4.3012   -0.0331 C.ar      1 ATP        -0.1346
     26 C6         -1.4065    5.5904    0.3585 C.ar      1 ATP         0.7213
     27 N6         -2.2501    6.2030   -0.4084 N.2       1 ATP        -0.8215
     28 N1         -0.9585    6.0272    1.5994 N.pl3     1 ATP        -0.8455
     29 C2         -0.0508    5.3009    2.3532 C.ar      1 ATP         0.6477
     30 N3          0.4890    4.1592    2.0257 N.2       1 ATP        -0.5707
     31 C4          0.0637    3.7006    0.7995 C.ar      1 ATP         0.2637
     32 HOG3        3.5614    6.8648   -3.1100 H         1 ATP         0.4378
     33 H5'1        1.3514    0.2330   -2.1577 H         1 ATP         0.0340
     34 H5'2        2.1280   -1.3678   -2.0460 H         1 ATP         0.0340
     35 H4'         3.8044   -0.1397   -0.4040 H         1 ATP         0.0910
     36 H3'         1.6764   -1.7639    0.2728 H         1 ATP         0.0656
     37 HO3'        2.2232   -1.2979    2.3953 H         1 ATP         0.4386
     38 H2'        -0.0011    0.0027    0.0003 H         1 ATP         0.0788
     39 HO2'       -0.6141    0.5574    2.1082 H         1 ATP         0.4363
     40 H1'         1.7826    1.9024    1.6451 H         1 ATP         0.1225
     41 H8         -0.1116    1.6863   -1.6984 H         1 ATP         0.3824
     42 HN62       -2.5420    7.0730    0.0447 H         1 ATP         0.4018
     43 H2          0.1969    5.7893    3.3086 H         1 ATP         0.0652
     44 H44        -1.3097    6.9080    1.9642 H         1 ATP         0.4503
     45 H45        -1.5735    3.7351   -1.9538 H         1 ATP         0.5209
@<TRIPOS>BOND
     1    1    2 2
     2    1    3 1
     3    1    4 1
     4    1    8 1
     5    4   32 1
     6    5    6 2
     7    5    7 1
     8    5    8 1
     9    5   12 1
    10    9   10 2
    11    9   11 1
    12    9   12 1
    13    9   13 1
    14   13   14 1
    15   14   15 1
    16   14   33 1
    17   14   34 1
    18   15   16 1
    19   15   17 1
    20   15   35 1
    21   16   21 1
    22   17   18 1
    23   17   19 1
    24   17   36 1
    25   18   37 1
    26   19   20 1
    27   19   21 1
    28   19   38 1
    29   20   39 1
    30   21   22 1
    31   21   40 1
    32   22   23 ar
    33   22   31 ar
    34   23   24 ar
    35   23   41 1
    36   24   25 ar
    37   24   45 1
    38   25   26 ar
    39   25   31 ar
    40   26   27 2
    41   26   28 ar
    42   27   42 1
    43   28   29 ar
    44   28   44 1
    45   29   30 ar
    46   29   43 1
    47   30   31 ar
@<TRIPOS>SUBSTRUCTURE
     1 ATP         1 GROUP 0 A     ****
@<TRIPOS>MOLECULE
[[[3,4-dihydroxy-5-(6-imino-7,8-dihydro-1~{H}-purin-8-ylium-9-yl)tetrahydrofuran-2-yl]methoxy-oxido-phosphoryl]oxy-oxido-phosphoryl] hydrogen phosphate
   45    47     1     0     0
SMALL
USER_CHARGES

@<TRIPOS>ATOM
      1 PG          5.8831   -5.6637    3.7593 P.3       1 ATP         1.5631
      2 O1G         6.8615   -4.9122    2.8844 O.co2     1 ATP        -0.8806
      3 O2G         5.9330   -7.1718    3.8632 O.co2     1 ATP        -0.8806
      4 O3G         5.9480   -5.0379    5.2660 O.3       1 ATP        -0.8165
      5 PB          3.5194   -5.4590    1.9945 P.3       1 ATP         1.6877
      6 O1B         4.1707   -4.6760    0.8765 O.co2     1 ATP        -0.8727
      7 O2B         3.2432   -6.9397    1.8564 O.co2     1 ATP        -0.8727
      8 O3B         4.3646   -5.2103    3.3691 O.3       1 ATP        -0.8330
      9 PA          1.1153   -5.0160    3.6616 P.3       1 ATP         1.6036
     10 O1A         1.8343   -4.7438    4.9651 O.co2     1 ATP        -0.9062
     11 O2A         0.4525   -6.3525    3.4081 O.co2     1 ATP        -0.9062
     12 O3A         2.1361   -4.7061    2.4240 O.3       1 ATP        -0.8166
     13 O5'         0.0118   -3.8395    3.3916 O.3       1 ATP        -0.5510
     14 C5'        -0.7840   -3.8935    2.2172 C.3       1 ATP         0.2099
     15 C4'        -0.0724   -3.1466    1.1027 C.3       1 ATP         0.0598
     16 O4'        -0.8674   -3.1929   -0.0945 O.3       1 ATP        -0.3455
     17 C3'         0.1338   -1.6715    1.4027 C.3       1 ATP         0.0742
     18 O3'         1.2893   -1.4445    2.1808 O.3       1 ATP        -0.6025
     19 C2'         0.2158   -1.0724    0.0128 C.3       1 ATP         0.1145
     20 O2'         1.5141   -1.2448   -0.5513 O.3       1 ATP        -0.5835
     21 C1'        -0.7897   -1.9176   -0.7583 C.3       1 ATP         0.3776
     22 N9         -2.1040   -1.3333   -0.7704 N.pl3     1 ATP        -0.4429
     23 C8         -3.2114   -1.8635   -0.2619 C.ar      1 ATP         0.2964
     24 N7         -4.2711   -1.0786   -0.4314 N.pl3     1 ATP        -0.4957
     25 C5         -3.7955    0.0193   -1.0917 C.ar      1 ATP        -0.1346
     26 C6         -4.4862    1.2344   -1.5586 C.ar      1 ATP         0.7213
     27 N6         -5.7554    1.4030   -1.3689 N.2       1 ATP        -0.8215
     28 N1         -3.6267    2.1218   -2.1949 N.pl3     1 ATP        -0.8455
     29 C2         -2.2761    1.8558   -2.3521 C.ar      1 ATP         0.6477
     30 N3         -1.6453    0.7881   -1.9466 N.2       1 ATP        -0.5707
     31 C4         -2.4722   -0.1108   -1.3117 C.ar      1 ATP         0.2637
     32 HOG3        5.3665   -5.4218    5.9564 H         1 ATP         0.4378
     33 H5'1       -0.9348   -4.9415    1.9415 H         1 ATP         0.0340
     34 H5'2       -1.7548   -3.4350    2.4278 H         1 ATP         0.0340
     35 H4'         0.8874   -3.6466    0.8805 H         1 ATP         0.0910
     36 H3'        -0.7376   -1.2333    1.9867 H         1 ATP         0.0656
     37 HO3'        1.1626   -1.9325    3.0084 H         1 ATP         0.4386
     38 H2'        -0.0384   -0.0310    0.0096 H         1 ATP         0.0788
     39 HO2'        2.1463   -0.7958    0.0370 H         1 ATP         0.4363
     40 H1'        -0.4769   -2.1002   -1.8093 H         1 ATP         0.1225
     41 H8         -3.2547   -2.8183    0.2325 H         1 ATP         0.3824
     42 HN62       -6.0352    2.3041   -1.7656 H         1 ATP         0.4018
     43 H2         -1.7412    2.6624   -2.8773 H         1 ATP         0.0652
     44 H44        -4.0029    2.9939   -2.5557 H         1 ATP         0.4503
     45 H45        -5.2179   -1.2649   -0.1322 H         1 ATP         0.5209
@<TRIPOS>BOND
     1    1    2 2
     2    1    3 1
     3    1    4 1
     4    1    8 1
     5    4   32 1
     6    5    6 2
     7    5    7 1
     8    5    8 1
     9    5   12 1
    10    9   10 2
    11    9   11 1
    12    9   12 1
    13    9   13 1
    14   13   14 1
    15   14   15 1
    16   14   33 1
    17   14   34 1
    18   15   16 1
    19   15   17 1
    20   15   35 1
    21   16   21 1
    22   17   18 1
    23   17   19 1
    24   17   36 1
    25   18   37 1
    26   19   20 1
    27   19   21 1
    28   19   38 1
    29   20   39 1
    30   21   22 1
    31   21   40 1
    32   22   23 ar
    33   22   31 ar
    34   23   24 ar
    35   23   41 1
    36   24   25 ar
    37   24   45 1
    38   25   26 ar
    39   25   31 ar
    40   26   27 2
    41   26   28 ar
    42   27   42 1
    43   28   29 ar
    44   28   44 1
    45   29   30 ar
    46   29   43 1
    47   30   31 ar
@<TRIPOS>SUBSTRUCTURE
     1 ATP         1 GROUP 0 A     ****
@<TRIPOS>MOLECULE
[[[3,4-dihydroxy-5-(6-imino-7,8-dihydro-1~{H}-purin-8-ylium-9-yl)tetrahydrofuran-2-yl]methoxy-oxido-phosphoryl]oxy-oxido-phosphoryl] hydrogen phosphate
   45    47     1     0     0
SMALL
USER_CHARGES

@<TRIPOS>ATOM
      1 PG          8.0222   -1.0972    1.0513 P.3       1 ATP         1.5631
      2 O1G         7.5989   -0.6679    2.4384 O.co2     1 ATP        -0.8806
      3 O2G         9.0496   -0.3061    0.2725 O.co2     1 ATP        -0.8806
      4 O3G         8.5074   -2.6548    1.1159 O.3       1 ATP        -0.8165
      5 PB          6.5485   -1.8827   -1.3889 P.3       1 ATP         1.6877
      6 O1B         7.2244   -0.9281   -2.3478 O.co2     1 ATP        -0.8727
      7 O2B         6.8994   -3.3538   -1.3704 O.co2     1 ATP        -0.8727
      8 O3B         6.6917   -1.2914    0.1262 O.3       1 ATP        -0.8330
      9 PA          3.9668   -2.1116   -2.8163 P.3       1 ATP         1.6036
     10 O1A         3.9890   -3.6121   -3.0117 O.co2     1 ATP        -0.9062
     11 O2A         4.2929   -1.1775   -3.9613 O.co2     1 ATP        -0.9062
     12 O3A         4.9314   -1.7320   -1.5533 O.3       1 ATP        -0.8166
     13 O5'         2.5245   -1.6648   -2.1878 O.3       1 ATP        -0.5510
     14 C5'         2.2816   -0.2918   -1.9206 C.3       1 ATP         0.2099
     15 C4'         2.7248    0.0226   -0.4980 C.3       1 ATP         0.0598
     16 O4'         2.4697    1.4219   -0.2462 O.3       1 ATP        -0.3455
     17 C3'         1.9404   -0.7419    0.5596 C.3       1 ATP         0.0742
     18 O3'         2.7418   -0.8086    1.7389 O.3       1 ATP        -0.6025
     19 C2'         0.7477    0.1630    0.7858 C.3       1 ATP         0.1145
     20 O2'         0.1373   -0.0577    2.0407 O.3       1 ATP        -0.5835
     21 C1'         1.3733    1.5427    0.6747 C.3       1 ATP         0.3776
     22 N9          0.4520    2.5240    0.1767 N.pl3     1 ATP        -0.4429
     23 C8         -0.8620    2.5492    0.3743 C.ar      1 ATP         0.2964
     24 N7         -1.4419    3.5886   -0.2183 N.pl3     1 ATP        -0.4957
     25 C5         -0.4215    4.2614   -0.8294 C.ar      1 ATP        -0.1346
     26 C6         -0.4310    5.4918   -1.6405 C.ar      1 ATP         0.7213
     27 N6         -1.5302    6.1308   -1.8826 N.2       1 ATP        -0.8215
     28 N1          0.8382    5.8461   -2.0817 N.pl3     1 ATP        -0.8455
     29 C2          1.9625    5.0982   -1.7709 C.ar      1 ATP         0.6477
     30 N3          1.9930    4.0077   -1.0554 N.2       1 ATP        -0.5707
     31 C4          0.7483    3.6314   -0.6038 C.ar      1 ATP         0.2637
     32 HOG3        8.8149   -3.0828    0.2885 H         1 ATP         0.4378
     33 H5'1        2.8432    0.3119   -2.6398 H         1 ATP         0.0340
     34 H5'2        1.2128   -0.0927   -2.0428 H         1 ATP         0.0340
     35 H4'         3.8044   -0.1397   -0.4040 H         1 ATP         0.0910
     36 H3'         1.6764   -1.7639    0.2728 H         1 ATP         0.0656
     37 HO3'        2.2232   -1.2979    2.3953 H         1 ATP         0.4386
     38 H2'        -0.0011    0.0027    0.0003 H         1 ATP         0.0788
     39 HO2'       -0.1563   -0.9855    2.0596 H         1 ATP         0.4363
     40 H1'         1.7826    1.9024    1.6451 H         1 ATP         0.1225
     41 H8         -1.4030    1.8165    0.9473 H         1 ATP         0.3824
     42 HN62       -1.3197    6.9504   -2.4583 H         1 ATP         0.4018
     43 H2          2.8857    5.5186   -2.1994 H         1 ATP         0.0652
     44 H44         0.9433    6.6815   -2.6502 H         1 ATP         0.4503
     45 H45        -2.4254    3.8199   -0.2108 H         1 ATP         0.5209
@<TRIPOS>BOND
     1    1    2 2
     2    1    3 1
     3    1    4 1
     4    1    8 1
     5    4   32 1
     6    5    6 2
     7    5    7 1
     8    5    8 1
     9    5   12 1
    10    9   10 2
    11    9   11 1
    12    9   12 1
    13    9   13 1
    14   13   14 1
    15   14   15 1
    16   14   33 1
    17   14   34 1
    18   15   16 1
    19   15   17 1
    20   15   35 1
    21   16   21 1
    22   17   18 1
    23   17   19 1
    24   17   36 1
    25   18   37 1
    26   19   20 1
    27   19   21 1
    28   19   38 1
    29   20   39 1
    30   21   22 1
    31   21   40 1
    32   22   23 ar
    33   22   31 ar
    34   23   24 ar
    35   23   41 1
    36   24   25 ar
    37   24   45 1
    38   25   26 ar
    39   25   31 ar
    40   26   27 2
    41   26   28 ar
    42   27   42 1
    43   28   29 ar
    44   28   44 1
    45   29   30 ar
    46   29   43 1
    47   30   31 ar
@<TRIPOS>SUBSTRUCTURE
     1 ATP         1 GROUP 0 A     ****
@<TRIPOS>MOLECULE
[[[3,4-dihydroxy-5-(6-imino-7,8-dihydro-1~{H}-purin-8-ylium-9-yl)tetrahydrofuran-2-yl]methoxy-oxido-phosphoryl]oxy-oxido-phosphoryl] hydrogen phosphate
   45    47     1     0     0
SMALL
USER_CHARGES

@<TRIPOS>ATOM
      1 PG         -5.2818   -5.0120    4.0599 P.3       1 ATP         1.5631
      2 O1G        -5.3108   -4.4317    2.6635 O.co2     1 ATP        -0.8806
      3 O2G        -4.7417   -4.2107    5.2235 O.co2     1 ATP        -0.8806
      4 O3G        -6.7840   -5.5277    4.4385 O.3       1 ATP        -0.8165
      5 PB         -2.9659   -6.8155    3.7026 P.3       1 ATP         1.6877
      6 O1B        -2.0860   -5.9882    4.6130 O.co2     1 ATP        -0.8727
      7 O2B        -2.8182   -8.3187    3.6245 O.co2     1 ATP        -0.8727
      8 O3B        -4.5276   -6.4587    4.0184 O.3       1 ATP        -0.8330
      9 PA         -1.6226   -6.1545    1.1504 P.3       1 ATP         1.6036
     10 O1A        -2.0283   -5.3503   -0.0657 O.co2     1 ATP        -0.9062
     11 O2A        -1.0747   -7.5572    1.0027 O.co2     1 ATP        -0.9062
     12 O3A        -2.8803   -6.2015    2.1925 O.3       1 ATP        -0.8166
     13 O5'        -0.5687   -5.2869    2.0510 O.3       1 ATP        -0.5510
     14 C5'        -0.7840   -3.8935    2.2172 C.3       1 ATP         0.2099
     15 C4'        -0.0724   -3.1466    1.1027 C.3       1 ATP         0.0598
     16 O4'        -0.8674   -3.1929   -0.0945 O.3       1 ATP        -0.3455
     17 C3'         0.1338   -1.6715    1.4027 C.3       1 ATP         0.0742
     18 O3'         1.2893   -1.4445    2.1808 O.3       1 ATP        -0.6025
     19 C2'         0.2158   -1.0724    0.0128 C.3       1 ATP         0.1145
     20 O2'         1.5141   -1.2448   -0.5513 O.3       1 ATP        -0.5835
     21 C1'        -0.7897   -1.9176   -0.7583 C.3       1 ATP         0.3776
     22 N9         -2.1040   -1.3333   -0.7704 N.pl3     1 ATP        -0.4429
     23 C8         -3.0590   -1.5123    0.1363 C.ar      1 ATP         0.2964
     24 N7         -4.1655   -0.8354   -0.1554 N.pl3     1 ATP        -0.4957
     25 C5         -3.8852   -0.1874   -1.3253 C.ar      1 ATP        -0.1346
     26 C6         -4.7113    0.7160   -2.1458 C.ar      1 ATP         0.7213
     27 N6         -5.9213    1.0209   -1.8021 N.2       1 ATP        -0.8215
     28 N1         -4.0411    1.1673   -3.2764 N.pl3     1 ATP        -0.8455
     29 C2         -2.7403    0.7865   -3.5638 C.ar      1 ATP         0.6477
     30 N3         -1.9921   -0.0108   -2.8519 N.2       1 ATP        -0.5707
     31 C4         -2.6302   -0.4747   -1.7239 C.ar      1 ATP         0.2637
     32 HOG3       -6.9303   -5.9329    5.3198 H         1 ATP         0.4378
     33 H5'1       -1.8598   -3.6968    2.1850 H         1 ATP         0.0340
     34 H5'2       -0.3933   -3.5903    3.1931 H         1 ATP         0.0340
     35 H4'         0.8874   -3.6466    0.8805 H         1 ATP         0.0910
     36 H3'        -0.7376   -1.2333    1.9867 H         1 ATP         0.0656
     37 HO3'        1.1626   -1.9325    3.0084 H         1 ATP         0.4386
     38 H2'        -0.0384   -0.0310    0.0096 H         1 ATP         0.0788
     39 HO2'        2.1463   -0.7958    0.0370 H         1 ATP         0.4363
     40 H1'        -0.4769   -2.1002   -1.8093 H         1 ATP         0.1225
     41 H8         -2.9569   -2.1323    1.0098 H         1 ATP         0.3824
     42 HN62       -6.3169    1.6552   -2.5012 H         1 ATP         0.4018
     43 H2         -2.3612    1.2343   -4.4957 H         1 ATP         0.0652
     44 H44        -4.5223    1.7976   -3.9117 H         1 ATP         0.4503
     45 H45        -5.0218   -0.8132    0.3804 H         1 ATP         0.5209
@<TRIPOS>BOND
     1    1    2 2
     2    1    3 1
     3    1    4 1
     4    1    8 1
     5    4   32 1
     6    5    6 2
     7    5    7 1
     8    5    8 1
     9    5   12 1
    10    9   10 2
    11    9   11 1
    12    9   12 1
    13    9   13 1
    14   13   14 1
    15   14   15 1
    16   14   33 1
    17   14   34 1
    18   15   16 1
    19   15   17 1
    20   15   35 1
    21   16   21 1
    22   17   18 1
    23   17   19 1
    24   17   36 1
    25   18   37 1
    26   19   20 1
    27   19   21 1
    28   19   38 1
    29   20   39 1
    30   21   22 1
    31   21   40 1
    32   22   23 ar
    33   22   31 ar
    34   23   24 ar
    35   23   41 1
    36   24   25 ar
    37   24   45 1
    38   25   26 ar
    39   25   31 ar
    40   26   27 2
    41   26   28 ar
    42   27   42 1
    43   28   29 ar
    44   28   44 1
    45   29   30 ar
    46   29   43 1
    47   30   31 ar
@<TRIPOS>SUBSTRUCTURE
     1 ATP         1 GROUP 0 A     ****
@<TRIPOS>MOLECULE
[[[3,4-dihydroxy-5-(6-imino-7,8-dihydro-1~{H}-purin-8-ylium-9-yl)tetrahydrofuran-2-yl]methoxy-oxido-phosphoryl]oxy-oxido-phosphoryl] hydrogen phosphate
   45    47     1     0     0
SMALL
USER_CHARGES

@<TRIPOS>ATOM
      1 PG         -1.2437   -4.4166   -4.2598 P.3       1 ATP         1.5631
      2 O1G        -1.0610   -5.7079   -5.0257 O.co2     1 ATP        -0.8806
      3 O2G        -0.3905   -3.2052   -4.5636 O.co2     1 ATP        -0.8806
      4 O3G        -2.8144   -3.9795   -4.3472 O.3       1 ATP        -0.8165
      5 PB         -1.9952   -5.8152   -1.7653 P.3       1 ATP         1.6877
      6 O1B        -3.4506   -5.4048   -1.7355 O.co2     1 ATP        -0.8727
      7 O2B        -1.5827   -7.2087   -2.1843 O.co2     1 ATP        -0.8727
      8 O3B        -1.1641   -4.7319   -2.6604 O.3       1 ATP        -0.8330
      9 PA         -1.6226   -6.1545    1.1504 P.3       1 ATP         1.6036
     10 O1A        -1.1867   -7.6034    1.1200 O.co2     1 ATP        -0.9062
     11 O2A        -3.0262   -5.7777    1.5721 O.co2     1 ATP        -0.9062
     12 O3A        -1.3290   -5.4867   -0.3116 O.3       1 ATP        -0.8166
     13 O5'        -0.5687   -5.2869    2.0510 O.3       1 ATP        -0.5510
     14 C5'        -0.7840   -3.8935    2.2172 C.3       1 ATP         0.2099
     15 C4'        -0.0724   -3.1466    1.1027 C.3       1 ATP         0.0598
     16 O4'        -0.8674   -3.1929   -0.0945 O.3       1 ATP        -0.3455
     17 C3'         0.1338   -1.6715    1.4027 C.3       1 ATP         0.0742
     18 O3'         1.2893   -1.4445    2.1808 O.3       1 ATP        -0.6025
     19 C2'         0.2158   -1.0724    0.0128 C.3       1 ATP         0.1145
     20 O2'         1.5141   -1.2448   -0.5513 O.3       1 ATP        -0.5835
     21 C1'        -0.7897   -1.9176   -0.7583 C.3       1 ATP         0.3776
     22 N9         -2.1040   -1.3333   -0.7704 N.pl3     1 ATP        -0.4429
     23 C8         -3.0590   -1.5123    0.1363 C.ar      1 ATP         0.2964
     24 N7         -4.1655   -0.8354   -0.1554 N.pl3     1 ATP        -0.4957
     25 C5         -3.8852   -0.1874   -1.3253 C.ar      1 ATP        -0.1346
     26 C6         -4.7113    0.7160   -2.1458 C.ar      1 ATP         0.7213
     27 N6         -5.9213    1.0209   -1.8021 N.2       1 ATP        -0.8215
     28 N1         -4.0411    1.1673   -3.2764 N.pl3     1 ATP        -0.8455
     29 C2         -2.7403    0.7865   -3.5638 C.ar      1 ATP         0.6477
     30 N3         -1.9921   -0.0108   -2.8519 N.2       1 ATP        -0.5707
     31 C4         -2.6302   -0.4747   -1.7239 C.ar      1 ATP         0.2637
     32 HOG3       -3.0955   -3.1551   -3.8959 H         1 ATP         0.4378
     33 H5'1       -1.8598   -3.6968    2.1850 H         1 ATP         0.0340
     34 H5'2       -0.3933   -3.5903    3.1931 H         1 ATP         0.0340
     35 H4'         0.8874   -3.6466    0.8805 H         1 ATP         0.0910
     36 H3'        -0.7376   -1.2333    1.9867 H         1 ATP         0.0656
     37 HO3'        1.3408   -0.4870    2.3219 H         1 ATP         0.4386
     38 H2'        -0.0384   -0.0310    0.0096 H         1 ATP         0.0788
     39 HO2'        2.1463   -0.7958    0.0370 H         1 ATP         0.4363
     40 H1'        -0.4769   -2.1002   -1.8093 H         1 ATP         0.1225
     41 H8         -2.9569   -2.1323    1.0098 H         1 ATP         0.3824
     42 HN62       -6.3169    1.6552   -2.5012 H         1 ATP         0.4018
     43 H2         -2.3612    1.2343   -4.4957 H         1 ATP         0.0652
     44 H44        -4.5223    1.7976   -3.9117 H         1 ATP         0.4503
     45 H45        -5.0218   -0.8132    0.3804 H         1 ATP         0.5209
@<TRIPOS>BOND
     1    1    2 2
     2    1    3 1
     3    1    4 1
     4    1    8 1
     5    4   32 1
     6    5    6 2
     7    5    7 1
     8    5    8 1
     9    5   12 1
    10    9   10 2
    11    9   11 1
    12    9   12 1
    13    9   13 1
    14   13   14 1
    15   14   15 1
    16   14   33 1
    17   14   34 1
    18   15   16 1
    19   15   17 1
    20   15   35 1
    21   16   21 1
    22   17   18 1
    23   17   19 1
    24   17   36 1
    25   18   37 1
    26   19   20 1
    27   19   21 1
    28   19   38 1
    29   20   39 1
    30   21   22 1
    31   21   40 1
    32   22   23 ar
    33   22   31 ar
    34   23   24 ar
    35   23   41 1
    36   24   25 ar
    37   24   45 1
    38   25   26 ar
    39   25   31 ar
    40   26   27 2
    41   26   28 ar
    42   27   42 1
    43   28   29 ar
    44   28   44 1
    45   29   30 ar
    46   29   43 1
    47   30   31 ar
@<TRIPOS>SUBSTRUCTURE
     1 ATP         1 GROUP 0 A     ****
@<TRIPOS>MOLECULE
[[[3,4-dihydroxy-5-(6-imino-7,8-dihydro-1~{H}-purin-8-ylium-9-yl)tetrahydrofuran-2-yl]methoxy-oxido-phosphoryl]oxy-oxido-phosphoryl] hydrogen phosphate
   45    47     1     0     0
SMALL
USER_CHARGES

@<TRIPOS>ATOM
      1 PG         -3.2466   -8.1515    1.3913 P.3       1 ATP         1.5631
      2 O1G        -2.5106   -8.1071    2.7119 O.co2     1 ATP        -0.8806
      3 O2G        -2.4981   -8.0527    0.0807 O.co2     1 ATP        -0.8806
      4 O3G        -4.1733   -9.4954    1.3590 O.3       1 ATP        -0.8165
      5 PB         -4.3370   -5.4034    1.4412 P.3       1 ATP         1.6877
      6 O1B        -3.4431   -4.9479    0.3093 O.co2     1 ATP        -0.8727
      7 O2B        -5.7286   -4.8376    1.6167 O.co2     1 ATP        -0.8727
      8 O3B        -4.4348   -7.0328    1.4076 O.3       1 ATP        -0.8330
      9 PA         -3.0195   -3.8900    3.6158 P.3       1 ATP         1.6036
     10 O1A        -2.1890   -4.2938    4.8148 O.co2     1 ATP        -0.9062
     11 O2A        -4.2037   -2.9613    3.7725 O.co2     1 ATP        -0.9062
     12 O3A        -3.5243   -5.2409    2.8476 O.3       1 ATP        -0.8166
     13 O5'        -2.0415   -3.2792    2.4560 O.3       1 ATP        -0.5510
     14 C5'        -0.7840   -3.8935    2.2172 C.3       1 ATP         0.2099
     15 C4'        -0.0724   -3.1466    1.1027 C.3       1 ATP         0.0598
     16 O4'        -0.8674   -3.1929   -0.0945 O.3       1 ATP        -0.3455
     17 C3'         0.1338   -1.6715    1.4027 C.3       1 ATP         0.0742
     18 O3'         1.2893   -1.4445    2.1808 O.3       1 ATP        -0.6025
     19 C2'         0.2158   -1.0724    0.0128 C.3       1 ATP         0.1145
     20 O2'         1.5141   -1.2448   -0.5513 O.3       1 ATP        -0.5835
     21 C1'        -0.7897   -1.9176   -0.7583 C.3       1 ATP         0.3776
     22 N9         -2.1040   -1.3333   -0.7704 N.pl3     1 ATP        -0.4429
     23 C8         -3.2114   -1.8635   -0.2619 C.ar      1 ATP         0.2964
     24 N7         -4.2711   -1.0786   -0.4314 N.pl3     1 ATP        -0.4957
     25 C5         -3.7955    0.0193   -1.0917 C.ar      1 ATP        -0.1346
     26 C6         -4.4862    1.2344   -1.5586 C.ar      1 ATP         0.7213
     27 N6         -5.7554    1.4030   -1.3689 N.2       1 ATP        -0.8215
     28 N1         -3.6267    2.1218   -2.1949 N.pl3     1 ATP        -0.8455
     29 C2         -2.2761    1.8558   -2.3521 C.ar      1 ATP         0.6477
     30 N3         -1.6453    0.7881   -1.9466 N.2       1 ATP        -0.5707
     31 C4         -2.4722   -0.1108   -1.3117 C.ar      1 ATP         0.2637
     32 HOG3       -4.7170   -9.6685    0.5611 H         1 ATP         0.4378
     33 H5'1       -0.1949   -3.8603    3.1385 H         1 ATP         0.0340
     34 H5'2       -0.9496   -4.9375    1.9351 H         1 ATP         0.0340
     35 H4'         0.8874   -3.6466    0.8805 H         1 ATP         0.0910
     36 H3'        -0.7376   -1.2333    1.9867 H         1 ATP         0.0656
     37 HO3'        1.3408   -0.4870    2.3219 H         1 ATP         0.4386
     38 H2'        -0.0384   -0.0310    0.0096 H         1 ATP         0.0788
     39 HO2'        2.1463   -0.7958    0.0370 H         1 ATP         0.4363
     40 H1'        -0.4769   -2.1002   -1.8093 H         1 ATP         0.1225
     41 H8         -3.2547   -2.8183    0.2325 H         1 ATP         0.3824
     42 HN62       -6.0352    2.3041   -1.7656 H         1 ATP         0.4018
     43 H2         -1.7412    2.6624   -2.8773 H         1 ATP         0.0652
     44 H44        -4.0029    2.9939   -2.5557 H         1 ATP         0.4503
     45 H45        -5.2179   -1.2649   -0.1322 H         1 ATP         0.5209
@<TRIPOS>BOND
     1    1    2 2
     2    1    3 1
     3    1    4 1
     4    1    8 1
     5    4   32 1
     6    5    6 2
     7    5    7 1
     8    5    8 1
     9    5   12 1
    10    9   10 2
    11    9   11 1
    12    9   12 1
    13    9   13 1
    14   13   14 1
    15   14   15 1
    16   14   33 1
    17   14   34 1
    18   15   16 1
    19   15   17 1
    20   15   35 1
    21   16   21 1
    22   17   18 1
    23   17   19 1
    24   17   36 1
    25   18   37 1
    26   19   20 1
    27   19   21 1
    28   19   38 1
    29   20   39 1
    30   21   22 1
    31   21   40 1
    32   22   23 ar
    33   22   31 ar
    34   23   24 ar
    35   23   41 1
    36   24   25 ar
    37   24   45 1
    38   25   26 ar
    39   25   31 ar
    40   26   27 2
    41   26   28 ar
    42   27   42 1
    43   28   29 ar
    44   28   44 1
    45   29   30 ar
    46   29   43 1
    47   30   31 ar
@<TRIPOS>SUBSTRUCTURE
     1 ATP         1 GROUP 0 A     ****
@<TRIPOS>MOLECULE
[[[3,4-dihydroxy-5-(6-imino-7,8-dihydro-1~{H}-purin-8-ylium-9-yl)tetrahydrofuran-2-yl]methoxy-oxido-phosphoryl]oxy-oxido-phosphoryl] hydrogen phosphate
   45    47     1     0     0
SMALL
USER_CHARGES

@<TRIPOS>ATOM
      1 PG          1.4611    2.3732   -8.4858 P.3       1 ATP         1.5631
      2 O1G         2.7633    3.0171   -8.9066 O.co2     1 ATP        -0.8806
      3 O2G         0.1699    3.1608   -8.4826 O.co2     1 ATP        -0.8806
      4 O3G         1.2410    1.0203   -9.3730 O.3       1 ATP        -0.8165
      5 PB          0.6448    0.7271   -6.1690 P.3       1 ATP         1.6877
      6 O1B        -0.5532    1.5498   -5.7501 O.co2     1 ATP        -0.8727
      7 O2B         0.4764   -0.5842   -6.9037 O.co2     1 ATP        -0.8727
      8 O3B         1.6607    1.6786   -7.0224 O.3       1 ATP        -0.8330
      9 PA          2.2220    1.5517   -3.8052 P.3       1 ATP         1.6036
     10 O1A         1.0908    2.2013   -3.0379 O.co2     1 ATP        -0.9062
     11 O2A         3.2446    2.3939   -4.5364 O.co2     1 ATP        -0.9062
     12 O3A         1.5909    0.4774   -4.8623 O.3       1 ATP        -0.8166
     13 O5'         3.0213    0.5153   -2.8245 O.3       1 ATP        -0.5510
     14 C5'         2.2816   -0.2918   -1.9206 C.3       1 ATP         0.2099
     15 C4'         2.7248    0.0226   -0.4980 C.3       1 ATP         0.0598
     16 O4'         2.4697    1.4219   -0.2462 O.3       1 ATP        -0.3455
     17 C3'         1.9404   -0.7419    0.5596 C.3       1 ATP         0.0742
     18 O3'         2.7418   -0.8086    1.7389 O.3       1 ATP        -0.6025
     19 C2'         0.7477    0.1630    0.7858 C.3       1 ATP         0.1145
     20 O2'         0.1373   -0.0577    2.0407 O.3       1 ATP        -0.5835
     21 C1'         1.3733    1.5427    0.6747 C.3       1 ATP         0.3776
     22 N9          0.4520    2.5240    0.1767 N.pl3     1 ATP        -0.4429
     23 C8         -0.8620    2.5492    0.3743 C.ar      1 ATP         0.2964
     24 N7         -1.4419    3.5886   -0.2183 N.pl3     1 ATP        -0.4957
     25 C5         -0.4215    4.2614   -0.8294 C.ar      1 ATP        -0.1346
     26 C6         -0.4310    5.4918   -1.6405 C.ar      1 ATP         0.7213
     27 N6         -1.5302    6.1308   -1.8826 N.2       1 ATP        -0.8215
     28 N1          0.8382    5.8461   -2.0817 N.pl3     1 ATP        -0.8455
     29 C2          1.9625    5.0982   -1.7709 C.ar      1 ATP         0.6477
     30 N3          1.9930    4.0077   -1.0554 N.2       1 ATP        -0.5707
     31 C4          0.7483    3.6314   -0.6038 C.ar      1 ATP         0.2637
     32 HOG3        0.4337    0.4855   -9.2165 H         1 ATP         0.4378
     33 H5'1        1.2163   -0.0770   -2.0471 H         1 ATP         0.0340
     34 H5'2        2.4655   -1.3443   -2.1563 H         1 ATP         0.0340
     35 H4'         3.8044   -0.1397   -0.4040 H         1 ATP         0.0910
     36 H3'         1.6764   -1.7639    0.2728 H         1 ATP         0.0656
     37 HO3'        3.5554   -1.2733    1.4914 H         1 ATP         0.4386
     38 H2'        -0.0011    0.0027    0.0003 H         1 ATP         0.0788
     39 HO2'        0.8082    0.1199    2.7232 H         1 ATP         0.4363
     40 H1'         1.7826    1.9024    1.6451 H         1 ATP         0.1225
     41 H8         -1.4030    1.8165    0.9473 H         1 ATP         0.3824
     42 HN62       -1.3197    6.9504   -2.4583 H         1 ATP         0.4018
     43 H2          2.8857    5.5186   -2.1994 H         1 ATP         0.0652
     44 H44         0.9433    6.6815   -2.6502 H         1 ATP         0.4503
     45 H45        -2.4254    3.8199   -0.2108 H         1 ATP         0.5209
@<TRIPOS>BOND
     1    1    2 2
     2    1    3 1
     3    1    4 1
     4    1    8 1
     5    4   32 1
     6    5    6 2
     7    5    7 1
     8    5    8 1
     9    5   12 1
    10    9   10 2
    11    9   11 1
    12    9   12 1
    13    9   13 1
    14   13   14 1
    15   14   15 1
    16   14   33 1
    17   14   34 1
    18   15   16 1
    19   15   17 1
    20   15   35 1
    21   16   21 1
    22   17   18 1
    23   17   19 1
    24   17   36 1
    25   18   37 1
    26   19   20 1
    27   19   21 1
    28   19   38 1
    29   20   39 1
    30   21   22 1
    31   21   40 1
    32   22   23 ar
    33   22   31 ar
    34   23   24 ar
    35   23   41 1
    36   24   25 ar
    37   24   45 1
    38   25   26 ar
    39   25   31 ar
    40   26   27 2
    41   26   28 ar
    42   27   42 1
    43   28   29 ar
    44   28   44 1
    45   29   30 ar
    46   29   43 1
    47   30   31 ar
@<TRIPOS>SUBSTRUCTURE
     1 ATP         1 GROUP 0 A     ****
@<TRIPOS>MOLECULE
[[[3,4-dihydroxy-5-(6-imino-7,8-dihydro-1~{H}-purin-8-ylium-9-yl)tetrahydrofuran-2-yl]methoxy-oxido-phosphoryl]oxy-oxido-phosphoryl] hydrogen phosphate
   45    47     1     0     0
SMALL
USER_CHARGES

@<TRIPOS>ATOM
      1 PG          8.5020   -0.5367   -3.1540 P.3       1 ATP         1.5631
      2 O1G         9.3090   -0.0035   -1.9914 O.co2     1 ATP        -0.8806
      3 O2G         8.3815    0.2480   -4.4414 O.co2     1 ATP        -0.8806
      4 O3G         9.0351   -2.0383   -3.5101 O.3       1 ATP        -0.8165
      5 PB          6.5485   -1.8827   -1.3889 P.3       1 ATP         1.6877
      6 O1B         6.9376   -3.3087   -1.7091 O.co2     1 ATP        -0.8727
      7 O2B         6.9673   -1.2292   -0.0908 O.co2     1 ATP        -0.8727
      8 O3B         7.0060   -0.9243   -2.6289 O.3       1 ATP        -0.8330
      9 PA          3.9668   -2.1116   -2.8163 P.3       1 ATP         1.6036
     10 O1A         3.9890   -3.6121   -3.0117 O.co2     1 ATP        -0.9062
     11 O2A         4.2929   -1.1775   -3.9613 O.co2     1 ATP        -0.9062
     12 O3A         4.9314   -1.7320   -1.5533 O.3       1 ATP        -0.8166
     13 O5'         2.5245   -1.6648   -2.1878 O.3       1 ATP        -0.5510
     14 C5'         2.2816   -0.2918   -1.9206 C.3       1 ATP         0.2099
     15 C4'         2.7248    0.0226   -0.4980 C.3       1 ATP         0.0598
     16 O4'         2.4697    1.4219   -0.2462 O.3       1 ATP        -0.3455
     17 C3'         1.9404   -0.7419    0.5596 C.3       1 ATP         0.0742
     18 O3'         2.7418   -0.8086    1.7389 O.3       1 ATP        -0.6025
     19 C2'         0.7477    0.1630    0.7858 C.3       1 ATP         0.1145
     20 O2'         0.1373   -0.0577    2.0407 O.3       1 ATP        -0.5835
     21 C1'         1.3733    1.5427    0.6747 C.3       1 ATP         0.3776
     22 N9          0.4520    2.5240    0.1767 N.pl3     1 ATP        -0.4429
     23 C8         -0.8620    2.5492    0.3743 C.ar      1 ATP         0.2964
     24 N7         -1.4419    3.5886   -0.2183 N.pl3     1 ATP        -0.4957
     25 C5         -0.4215    4.2614   -0.8294 C.ar      1 ATP        -0.1346
     26 C6         -0.4310    5.4918   -1.6405 C.ar      1 ATP         0.7213
     27 N6         -1.5302    6.1308   -1.8826 N.2       1 ATP        -0.8215
     28 N1          0.8382    5.8461   -2.0817 N.pl3     1 ATP        -0.8455
     29 C2          1.9625    5.0982   -1.7709 C.ar      1 ATP         0.6477
     30 N3          1.9930    4.0077   -1.0554 N.2       1 ATP        -0.5707
     31 C4          0.7483    3.6314   -0.6038 C.ar      1 ATP         0.2637
     32 HOG3        8.6077   -2.5227   -4.2484 H         1 ATP         0.4378
     33 H5'1        2.8432    0.3119   -2.6398 H         1 ATP         0.0340
     34 H5'2        1.2128   -0.0927   -2.0428 H         1 ATP         0.0340
     35 H4'         3.8044   -0.1397   -0.4040 H         1 ATP         0.0910
     36 H3'         1.6764   -1.7639    0.2728 H         1 ATP         0.0656
     37 HO3'        2.2232   -1.2979    2.3953 H         1 ATP         0.4386
     38 H2'        -0.0011    0.0027    0.0003 H         1 ATP         0.0788
     39 HO2'       -0.1563   -0.9855    2.0596 H         1 ATP         0.4363
     40 H1'         1.7826    1.9024    1.6451 H         1 ATP         0.1225
     41 H8         -1.4030    1.8165    0.9473 H         1 ATP         0.3824
     42 HN62       -1.3197    6.9504   -2.4583 H         1 ATP         0.4018
     43 H2          2.8857    5.5186   -2.1994 H         1 ATP         0.0652
     44 H44         0.9433    6.6815   -2.6502 H         1 ATP         0.4503
     45 H45        -2.4254    3.8199   -0.2108 H         1 ATP         0.5209
@<TRIPOS>BOND
     1    1    2 2
     2    1    3 1
     3    1    4 1
     4    1    8 1
     5    4   32 1
     6    5    6 2
     7    5    7 1
     8    5    8 1
     9    5   12 1
    10    9   10 2
    11    9   11 1
    12    9   12 1
    13    9   13 1
    14   13   14 1
    15   14   15 1
    16   14   33 1
    17   14   34 1
    18   15   16 1
    19   15   17 1
    20   15   35 1
    21   16   21 1
    22   17   18 1
    23   17   19 1
    24   17   36 1
    25   18   37 1
    26   19   20 1
    27   19   21 1
    28   19   38 1
    29   20   39 1
    30   21   22 1
    31   21   40 1
    32   22   23 ar
    33   22   31 ar
    34   23   24 ar
    35   23   41 1
    36   24   25 ar
    37   24   45 1
    38   25   26 ar
    39   25   31 ar
    40   26   27 2
    41   26   28 ar
    42   27   42 1
    43   28   29 ar
    44   28   44 1
    45   29   30 ar
    46   29   43 1
    47   30   31 ar
@<TRIPOS>SUBSTRUCTURE
     1 ATP         1 GROUP 0 A     ****
@<TRIPOS>MOLECULE
[[[3,4-dihydroxy-5-(6-imino-7,8-dihydro-1~{H}-purin-8-ylium-9-yl)tetrahydrofuran-2-yl]methoxy-oxido-phosphoryl]oxy-oxido-phosphoryl] hydrogen phosphate
   45    47     1     0     0
SMALL
USER_CHARGES

@<TRIPOS>ATOM
      1 PG         -6.8792   -5.2660    3.1537 P.3       1 ATP         1.5631
      2 O1G        -7.3378   -6.6123    3.6682 O.co2     1 ATP        -0.8806
      3 O2G        -7.6153   -4.5717    2.0296 O.co2     1 ATP        -0.8806
      4 O3G        -6.7725   -4.2370    4.4170 O.3       1 ATP        -0.8165
      5 PB         -4.5479   -6.2000    1.5929 P.3       1 ATP         1.6877
      6 O1B        -4.6826   -7.6760    1.8944 O.co2     1 ATP        -0.8727
      7 O2B        -4.9629   -5.6330    0.2535 O.co2     1 ATP        -0.8727
      8 O3B        -5.2945   -5.3545    2.7732 O.3       1 ATP        -0.8330
      9 PA         -1.6226   -6.1545    1.1504 P.3       1 ATP         1.6036
     10 O1A        -1.6513   -5.6066   -0.2600 O.co2     1 ATP        -0.9062
     11 O2A        -1.3635   -7.6235    1.4045 O.co2     1 ATP        -0.9062
     12 O3A        -3.0125   -5.7405    1.9031 O.3       1 ATP        -0.8166
     13 O5'        -0.5687   -5.2869    2.0510 O.3       1 ATP        -0.5510
     14 C5'        -0.7840   -3.8935    2.2172 C.3       1 ATP         0.2099
     15 C4'        -0.0724   -3.1466    1.1027 C.3       1 ATP         0.0598
     16 O4'        -0.8674   -3.1929   -0.0945 O.3       1 ATP        -0.3455
     17 C3'         0.1338   -1.6715    1.4027 C.3       1 ATP         0.0742
     18 O3'         1.2893   -1.4445    2.1808 O.3       1 ATP        -0.6025
     19 C2'         0.2158   -1.0724    0.0128 C.3       1 ATP         0.1145
     20 O2'         1.5141   -1.2448   -0.5513 O.3       1 ATP        -0.5835
     21 C1'        -0.7897   -1.9176   -0.7583 C.3       1 ATP         0.3776
     22 N9         -2.1040   -1.3333   -0.7704 N.pl3     1 ATP        -0.4429
     23 C8         -3.2114   -1.8635   -0.2619 C.ar      1 ATP         0.2964
     24 N7         -4.2711   -1.0786   -0.4314 N.pl3     1 ATP        -0.4957
     25 C5         -3.7955    0.0193   -1.0917 C.ar      1 ATP        -0.1346
     26 C6         -4.4862    1.2344   -1.5586 C.ar      1 ATP         0.7213
     27 N6         -5.7554    1.4030   -1.3689 N.2       1 ATP        -0.8215
     28 N1         -3.6267    2.1218   -2.1949 N.pl3     1 ATP        -0.8455
     29 C2         -2.2761    1.8558   -2.3521 C.ar      1 ATP         0.6477
     30 N3         -1.6453    0.7881   -1.9466 N.2       1 ATP        -0.5707
     31 C4         -2.4722   -0.1108   -1.3117 C.ar      1 ATP         0.2637
     32 HOG3       -6.4850   -3.3150    4.2451 H         1 ATP         0.4378
     33 H5'1       -1.8598   -3.6968    2.1850 H         1 ATP         0.0340
     34 H5'2       -0.3933   -3.5903    3.1931 H         1 ATP         0.0340
     35 H4'         0.8874   -3.6466    0.8805 H         1 ATP         0.0910
     36 H3'        -0.7376   -1.2333    1.9867 H         1 ATP         0.0656
     37 HO3'        1.3408   -0.4870    2.3219 H         1 ATP         0.4386
     38 H2'        -0.0384   -0.0310    0.0096 H         1 ATP         0.0788
     39 HO2'        2.1463   -0.7958    0.0370 H         1 ATP         0.4363
     40 H1'        -0.4769   -2.1002   -1.8093 H         1 ATP         0.1225
     41 H8         -3.2547   -2.8183    0.2325 H         1 ATP         0.3824
     42 HN62       -6.0352    2.3041   -1.7656 H         1 ATP         0.4018
     43 H2         -1.7412    2.6624   -2.8773 H         1 ATP         0.0652
     44 H44        -4.0029    2.9939   -2.5557 H         1 ATP         0.4503
     45 H45        -5.2179   -1.2649   -0.1322 H         1 ATP         0.5209
@<TRIPOS>BOND
     1    1    2 2
     2    1    3 1
     3    1    4 1
     4    1    8 1
     5    4   32 1
     6    5    6 2
     7    5    7 1
     8    5    8 1
     9    5   12 1
    10    9   10 2
    11    9   11 1
    12    9   12 1
    13    9   13 1
    14   13   14 1
    15   14   15 1
    16   14   33 1
    17   14   34 1
    18   15   16 1
    19   15   17 1
    20   15   35 1
    21   16   21 1
    22   17   18 1
    23   17   19 1
    24   17   36 1
    25   18   37 1
    26   19   20 1
    27   19   21 1
    28   19   38 1
    29   20   39 1
    30   21   22 1
    31   21   40 1
    32   22   23 ar
    33   22   31 ar
    34   23   24 ar
    35   23   41 1
    36   24   25 ar
    37   24   45 1
    38   25   26 ar
    39   25   31 ar
    40   26   27 2
    41   26   28 ar
    42   27   42 1
    43   28   29 ar
    44   28   44 1
    45   29   30 ar
    46   29   43 1
    47   30   31 ar
@<TRIPOS>SUBSTRUCTURE
     1 ATP         1 GROUP 0 A     ****
@<TRIPOS>MOLECULE
[[[3,4-dihydroxy-5-(6-imino-7,8-dihydro-1~{H}-purin-8-ylium-9-yl)tetrahydrofuran-2-yl]methoxy-oxido-phosphoryl]oxy-oxido-phosphoryl] hydrogen phosphate
   45    47     1     0     0
SMALL
USER_CHARGES

@<TRIPOS>ATOM
      1 PG         -0.1992    5.3997   -3.8925 P.3       1 ATP         1.5631
      2 O1G        -0.3145    6.0563   -2.5349 O.co2     1 ATP        -0.8806
      3 O2G        -1.4309    5.0951   -4.7157 O.co2     1 ATP        -0.8806
      4 O3G         0.8317    6.2758   -4.8066 O.3       1 ATP        -0.8165
      5 PB          1.2543    3.0325   -4.9061 P.3       1 ATP         1.6877
      6 O1B         0.0793    2.3399   -5.5595 O.co2     1 ATP        -0.8727
      7 O2B         2.2869    3.7688   -5.7303 O.co2     1 ATP        -0.8727
      8 O3B         0.6918    4.0396   -3.7507 O.3       1 ATP        -0.8330
      9 PA          2.8621    0.6170   -4.3270 P.3       1 ATP         1.6036
     10 O1A         4.0995    1.0217   -5.0986 O.co2     1 ATP        -0.9062
     11 O2A         1.8962   -0.4011   -4.8927 O.co2     1 ATP        -0.9062
     12 O3A         2.0209    1.9632   -3.9398 O.3       1 ATP        -0.8166
     13 O5'         3.2903    0.1346   -2.8241 O.3       1 ATP        -0.5510
     14 C5'         2.2816   -0.2918   -1.9206 C.3       1 ATP         0.2099
     15 C4'         2.7248    0.0226   -0.4980 C.3       1 ATP         0.0598
     16 O4'         2.4697    1.4219   -0.2462 O.3       1 ATP        -0.3455
     17 C3'         1.9404   -0.7419    0.5596 C.3       1 ATP         0.0742
     18 O3'         2.7418   -0.8086    1.7389 O.3       1 ATP        -0.6025
     19 C2'         0.7477    0.1630    0.7858 C.3       1 ATP         0.1145
     20 O2'         0.1373   -0.0577    2.0407 O.3       1 ATP        -0.5835
     21 C1'         1.3733    1.5427    0.6747 C.3       1 ATP         0.3776
     22 N9          0.4520    2.5240    0.1767 N.pl3     1 ATP        -0.4429
     23 C8          0.2216    2.8192   -1.0985 C.ar      1 ATP         0.2964
     24 N7         -0.6906    3.7763   -1.2384 N.pl3     1 ATP        -0.4957
     25 C5         -1.0575    4.1037    0.0366 C.ar      1 ATP        -0.1346
     26 C6         -2.0291    5.0943    0.5330 C.ar      1 ATP         0.7213
     27 N6         -2.7093    5.8371   -0.2800 N.2       1 ATP        -0.8215
     28 N1         -2.1051    5.1136    1.9204 N.pl3     1 ATP        -0.8455
     29 C2         -1.3354    4.2774    2.7129 C.ar      1 ATP         0.6477
     30 N3         -0.4707    3.3945    2.2944 N.2       1 ATP        -0.5707
     31 C4         -0.3734    3.3525    0.9220 C.ar      1 ATP         0.2637
     32 HOG3        1.7541    6.3885   -4.4923 H         1 ATP         0.4378
     33 H5'1        1.3514    0.2330   -2.1577 H         1 ATP         0.0340
     34 H5'2        2.1280   -1.3678   -2.0460 H         1 ATP         0.0340
     35 H4'         3.8044   -0.1397   -0.4040 H         1 ATP         0.0910
     36 H3'         1.6764   -1.7639    0.2728 H         1 ATP         0.0656
     37 HO3'        2.2232   -1.2979    2.3953 H         1 ATP         0.4386
     38 H2'        -0.0011    0.0027    0.0003 H         1 ATP         0.0788
     39 HO2'       -0.1563   -0.9855    2.0596 H         1 ATP         0.4363
     40 H1'         1.7826    1.9024    1.6451 H         1 ATP         0.1225
     41 H8          0.7125    2.3429   -1.9292 H         1 ATP         0.3824
     42 HN62       -3.3217    6.4517    0.2629 H         1 ATP         0.4018
     43 H2         -1.5188    4.4223    3.7890 H         1 ATP         0.0652
     44 H44        -2.7470    5.7626    2.3665 H         1 ATP         0.4503
     45 H45        -1.0305    4.1680   -2.1054 H         1 ATP         0.5209
@<TRIPOS>BOND
     1    1    2 2
     2    1    3 1
     3    1    4 1
     4    1    8 1
     5    4   32 1
     6    5    6 2
     7    5    7 1
     8    5    8 1
     9    5   12 1
    10    9   10 2
    11    9   11 1
    12    9   12 1
    13    9   13 1
    14   13   14 1
    15   14   15 1
    16   14   33 1
    17   14   34 1
    18   15   16 1
    19   15   17 1
    20   15   35 1
    21   16   21 1
    22   17   18 1
    23   17   19 1
    24   17   36 1
    25   18   37 1
    26   19   20 1
    27   19   21 1
    28   19   38 1
    29   20   39 1
    30   21   22 1
    31   21   40 1
    32   22   23 ar
    33   22   31 ar
    34   23   24 ar
    35   23   41 1
    36   24   25 ar
    37   24   45 1
    38   25   26 ar
    39   25   31 ar
    40   26   27 2
    41   26   28 ar
    42   27   42 1
    43   28   29 ar
    44   28   44 1
    45   29   30 ar
    46   29   43 1
    47   30   31 ar
@<TRIPOS>SUBSTRUCTURE
     1 ATP         1 GROUP 0 A     ****
@<TRIPOS>MOLECULE
[[[3,4-dihydroxy-5-(6-imino-7,8-dihydro-1~{H}-purin-8-ylium-9-yl)tetrahydrofuran-2-yl]methoxy-oxido-phosphoryl]oxy-oxido-phosphoryl] hydrogen phosphate
   45    47     1     0     0
SMALL
USER_CHARGES

@<TRIPOS>ATOM
      1 PG          7.9748   -4.4666   -1.5705 P.3       1 ATP         1.5631
      2 O1G         8.9995   -3.9262   -2.5428 O.co2     1 ATP        -0.8806
      3 O2G         7.5229   -5.9084   -1.6389 O.co2     1 ATP        -0.8806
      4 O3G         8.4863   -4.1551   -0.0515 O.3       1 ATP        -0.8165
      5 PB          6.5485   -1.8827   -1.3889 P.3       1 ATP         1.6877
      6 O1B         6.9244   -1.5456    0.0368 O.co2     1 ATP        -0.8727
      7 O2B         7.2209   -1.1996   -2.5588 O.co2     1 ATP        -0.8727
      8 O3B         6.6606   -3.4989   -1.5914 O.3       1 ATP        -0.8330
      9 PA          3.9668   -2.1116   -2.8163 P.3       1 ATP         1.6036
     10 O1A         3.9890   -3.6121   -3.0117 O.co2     1 ATP        -0.9062
     11 O2A         4.2929   -1.1775   -3.9613 O.co2     1 ATP        -0.9062
     12 O3A         4.9314   -1.7320   -1.5533 O.3       1 ATP        -0.8166
     13 O5'         2.5245   -1.6648   -2.1878 O.3       1 ATP        -0.5510
     14 C5'         2.2816   -0.2918   -1.9206 C.3       1 ATP         0.2099
     15 C4'         2.7248    0.0226   -0.4980 C.3       1 ATP         0.0598
     16 O4'         2.4697    1.4219   -0.2462 O.3       1 ATP        -0.3455
     17 C3'         1.9404   -0.7419    0.5596 C.3       1 ATP         0.0742
     18 O3'         2.7418   -0.8086    1.7389 O.3       1 ATP        -0.6025
     19 C2'         0.7477    0.1630    0.7858 C.3       1 ATP         0.1145
     20 O2'         0.1373   -0.0577    2.0407 O.3       1 ATP        -0.5835
     21 C1'         1.3733    1.5427    0.6747 C.3       1 ATP         0.3776
     22 N9          0.4520    2.5240    0.1767 N.pl3     1 ATP        -0.4429
     23 C8         -0.8620    2.5492    0.3743 C.ar      1 ATP         0.2964
     24 N7         -1.4419    3.5886   -0.2183 N.pl3     1 ATP        -0.4957
     25 C5         -0.4215    4.2614   -0.8294 C.ar      1 ATP        -0.1346
     26 C6         -0.4310    5.4918   -1.6405 C.ar      1 ATP         0.7213
     27 N6         -1.5302    6.1308   -1.8826 N.2       1 ATP        -0.8215
     28 N1          0.8382    5.8461   -2.0817 N.pl3     1 ATP        -0.8455
     29 C2          1.9625    5.0982   -1.7709 C.ar      1 ATP         0.6477
     30 N3          1.9930    4.0077   -1.0554 N.2       1 ATP        -0.5707
     31 C4          0.7483    3.6314   -0.6038 C.ar      1 ATP         0.2637
     32 HOG3        7.9255   -4.4463    0.6989 H         1 ATP         0.4378
     33 H5'1        2.8432    0.3119   -2.6398 H         1 ATP         0.0340
     34 H5'2        1.2128   -0.0927   -2.0428 H         1 ATP         0.0340
     35 H4'         3.8044   -0.1397   -0.4040 H         1 ATP         0.0910
     36 H3'         1.6764   -1.7639    0.2728 H         1 ATP         0.0656
     37 HO3'        2.2232   -1.2979    2.3953 H         1 ATP         0.4386
     38 H2'        -0.0011    0.0027    0.0003 H         1 ATP         0.0788
     39 HO2'       -0.1563   -0.9855    2.0596 H         1 ATP         0.4363
     40 H1'         1.7826    1.9024    1.6451 H         1 ATP         0.1225
     41 H8         -1.4030    1.8165    0.9473 H         1 ATP         0.3824
     42 HN62       -1.3197    6.9504   -2.4583 H         1 ATP         0.4018
     43 H2          2.8857    5.5186   -2.1994 H         1 ATP         0.0652
     44 H44         0.9433    6.6815   -2.6502 H         1 ATP         0.4503
     45 H45        -2.4254    3.8199   -0.2108 H         1 ATP         0.5209
@<TRIPOS>BOND
     1    1    2 2
     2    1    3 1
     3    1    4 1
     4    1    8 1
     5    4   32 1
     6    5    6 2
     7    5    7 1
     8    5    8 1
     9    5   12 1
    10    9   10 2
    11    9   11 1
    12    9   12 1
    13    9   13 1
    14   13   14 1
    15   14   15 1
    16   14   33 1
    17   14   34 1
    18   15   16 1
    19   15   17 1
    20   15   35 1
    21   16   21 1
    22   17   18 1
    23   17   19 1
    24   17   36 1
    25   18   37 1
    26   19   20 1
    27   19   21 1
    28   19   38 1
    29   20   39 1
    30   21   22 1
    31   21   40 1
    32   22   23 ar
    33   22   31 ar
    34   23   24 ar
    35   23   41 1
    36   24   25 ar
    37   24   45 1
    38   25   26 ar
    39   25   31 ar
    40   26   27 2
    41   26   28 ar
    42   27   42 1
    43   28   29 ar
    44   28   44 1
    45   29   30 ar
    46   29   43 1
    47   30   31 ar
@<TRIPOS>SUBSTRUCTURE
     1 ATP         1 GROUP 0 A     ****
@<TRIPOS>MOLECULE
[[[3,4-dihydroxy-5-(6-imino-7,8-dihydro-1~{H}-purin-8-ylium-9-yl)tetrahydrofuran-2-yl]methoxy-oxido-phosphoryl]oxy-oxido-phosphoryl] hydrogen phosphate
   45    47     1     0     0
SMALL
USER_CHARGES

@<TRIPOS>ATOM
      1 PG          1.3834    5.9739   -2.3756 P.3       1 ATP         1.5631
      2 O1G         2.0935    6.8155   -3.4124 O.co2     1 ATP        -0.8806
      3 O2G         1.1718    6.4884   -0.9691 O.co2     1 ATP        -0.8806
      4 O3G        -0.0609    5.5134   -2.9820 O.3       1 ATP        -0.8165
      5 PB          3.5940    4.0992   -1.7907 P.3       1 ATP         1.6877
      6 O1B         4.6091    4.6801   -2.7496 O.co2     1 ATP        -0.8727
      7 O2B         3.6858    4.3551   -0.3029 O.co2     1 ATP        -0.8727
      8 O3B         2.0980    4.5085   -2.3008 O.3       1 ATP        -0.8330
      9 PA          3.2344    1.6562   -3.4210 P.3       1 ATP         1.6036
     10 O1A         4.4053    1.8754   -4.3543 O.co2     1 ATP        -0.9062
     11 O2A         1.8186    1.9327   -3.8780 O.co2     1 ATP        -0.9062
     12 O3A         3.5002    2.4887   -2.0403 O.3       1 ATP        -0.8166
     13 O5'         3.2903    0.1346   -2.8241 O.3       1 ATP        -0.5510
     14 C5'         2.2816   -0.2918   -1.9206 C.3       1 ATP         0.2099
     15 C4'         2.7248    0.0226   -0.4980 C.3       1 ATP         0.0598
     16 O4'         2.4697    1.4219   -0.2462 O.3       1 ATP        -0.3455
     17 C3'         1.9404   -0.7419    0.5596 C.3       1 ATP         0.0742
     18 O3'         2.7418   -0.8086    1.7389 O.3       1 ATP        -0.6025
     19 C2'         0.7477    0.1630    0.7858 C.3       1 ATP         0.1145
     20 O2'         0.1373   -0.0577    2.0407 O.3       1 ATP        -0.5835
     21 C1'         1.3733    1.5427    0.6747 C.3       1 ATP         0.3776
     22 N9          0.4520    2.5240    0.1767 N.pl3     1 ATP        -0.4429
     23 C8         -0.2004    2.4829   -0.9804 C.ar      1 ATP         0.2964
     24 N7         -0.9830    3.5431   -1.1568 N.pl3     1 ATP        -0.4957
     25 C5         -0.8095    4.3012   -0.0331 C.ar      1 ATP        -0.1346
     26 C6         -1.4065    5.5904    0.3585 C.ar      1 ATP         0.7213
     27 N6         -2.2501    6.2030   -0.4084 N.2       1 ATP        -0.8215
     28 N1         -0.9585    6.0272    1.5994 N.pl3     1 ATP        -0.8455
     29 C2         -0.0508    5.3009    2.3532 C.ar      1 ATP         0.6477
     30 N3          0.4890    4.1592    2.0257 N.2       1 ATP        -0.5707
     31 C4          0.0637    3.7006    0.7995 C.ar      1 ATP         0.2637
     32 HOG3       -0.0730    4.9789   -3.8044 H         1 ATP         0.4378
     33 H5'1        1.3514    0.2330   -2.1577 H         1 ATP         0.0340
     34 H5'2        2.1280   -1.3678   -2.0460 H         1 ATP         0.0340
     35 H4'         3.8044   -0.1397   -0.4040 H         1 ATP         0.0910
     36 H3'         1.6764   -1.7639    0.2728 H         1 ATP         0.0656
     37 HO3'        3.5554   -1.2733    1.4914 H         1 ATP         0.4386
     38 H2'        -0.0011    0.0027    0.0003 H         1 ATP         0.0788
     39 HO2'        0.8082    0.1199    2.7232 H         1 ATP         0.4363
     40 H1'         1.7826    1.9024    1.6451 H         1 ATP         0.1225
     41 H8         -0.1116    1.6863   -1.6984 H         1 ATP         0.3824
     42 HN62       -2.5420    7.0730    0.0447 H         1 ATP         0.4018
     43 H2          0.1969    5.7893    3.3086 H         1 ATP         0.0652
     44 H44        -1.3097    6.9080    1.9642 H         1 ATP         0.4503
     45 H45        -1.5735    3.7351   -1.9538 H         1 ATP         0.5209
@<TRIPOS>BOND
     1    1    2 2
     2    1    3 1
     3    1    4 1
     4    1    8 1
     5    4   32 1
     6    5    6 2
     7    5    7 1
     8    5    8 1
     9    5   12 1
    10    9   10 2
    11    9   11 1
    12    9   12 1
    13    9   13 1
    14   13   14 1
    15   14   15 1
    16   14   33 1
    17   14   34 1
    18   15   16 1
    19   15   17 1
    20   15   35 1
    21   16   21 1
    22   17   18 1
    23   17   19 1
    24   17   36 1
    25   18   37 1
    26   19   20 1
    27   19   21 1
    28   19   38 1
    29   20   39 1
    30   21   22 1
    31   21   40 1
    32   22   23 ar
    33   22   31 ar
    34   23   24 ar
    35   23   41 1
    36   24   25 ar
    37   24   45 1
    38   25   26 ar
    39   25   31 ar
    40   26   27 2
    41   26   28 ar
    42   27   42 1
    43   28   29 ar
    44   28   44 1
    45   29   30 ar
    46   29   43 1
    47   30   31 ar
@<TRIPOS>SUBSTRUCTURE
     1 ATP         1 GROUP 0 A     ****
@<TRIPOS>MOLECULE
[[[3,4-dihydroxy-5-(6-imino-7,8-dihydro-1~{H}-purin-8-ylium-9-yl)tetrahydrofuran-2-yl]methoxy-oxido-phosphoryl]oxy-oxido-phosphoryl] hydrogen phosphate
   45    47     1     0     0
SMALL
USER_CHARGES

@<TRIPOS>ATOM
      1 PG         -6.4365   -6.8092    4.1223 P.3       1 ATP         1.5631
      2 O1G        -6.5813   -6.0584    5.4273 O.co2     1 ATP        -0.8806
      3 O2G        -6.6840   -8.2997    4.0515 O.co2     1 ATP        -0.8806
      4 O3G        -7.3638   -6.0757    2.9963 O.3       1 ATP        -0.8165
      5 PB         -4.3474   -6.8990    2.0316 P.3       1 ATP         1.6877
      6 O1B        -4.1686   -8.4003    1.9907 O.co2     1 ATP        -0.8727
      7 O2B        -5.1145   -6.1717    0.9499 O.co2     1 ATP        -0.8727
      8 O3B        -4.9701   -6.4855    3.4831 O.3       1 ATP        -0.8330
      9 PA         -1.6226   -6.1545    1.1504 P.3       1 ATP         1.6036
     10 O1A        -2.0283   -5.3503   -0.0657 O.co2     1 ATP        -0.9062
     11 O2A        -1.0747   -7.5572    1.0027 O.co2     1 ATP        -0.9062
     12 O3A        -2.8803   -6.2015    2.1925 O.3       1 ATP        -0.8166
     13 O5'        -0.5687   -5.2869    2.0510 O.3       1 ATP        -0.5510
     14 C5'        -0.7840   -3.8935    2.2172 C.3       1 ATP         0.2099
     15 C4'        -0.0724   -3.1466    1.1027 C.3       1 ATP         0.0598
     16 O4'        -0.8674   -3.1929   -0.0945 O.3       1 ATP        -0.3455
     17 C3'         0.1338   -1.6715    1.4027 C.3       1 ATP         0.0742
     18 O3'         1.2893   -1.4445    2.1808 O.3       1 ATP        -0.6025
     19 C2'         0.2158   -1.0724    0.0128 C.3       1 ATP         0.1145
     20 O2'         1.5141   -1.2448   -0.5513 O.3       1 ATP        -0.5835
     21 C1'        -0.7897   -1.9176   -0.7583 C.3       1 ATP         0.3776
     22 N9         -2.1040   -1.3333   -0.7704 N.pl3     1 ATP        -0.4429
     23 C8         -3.0590   -1.5123    0.1363 C.ar      1 ATP         0.2964
     24 N7         -4.1655   -0.8354   -0.1554 N.pl3     1 ATP        -0.4957
     25 C5         -3.8852   -0.1874   -1.3253 C.ar      1 ATP        -0.1346
     26 C6         -4.7113    0.7160   -2.1458 C.ar      1 ATP         0.7213
     27 N6         -5.9213    1.0209   -1.8021 N.2       1 ATP        -0.8215
     28 N1         -4.0411    1.1673   -3.2764 N.pl3     1 ATP        -0.8455
     29 C2         -2.7403    0.7865   -3.5638 C.ar      1 ATP         0.6477
     30 N3         -1.9921   -0.0108   -2.8519 N.2       1 ATP        -0.5707
     31 C4         -2.6302   -0.4747   -1.7239 C.ar      1 ATP         0.2637
     32 HOG3       -7.3777   -6.4474    2.0886 H         1 ATP         0.4378
     33 H5'1       -1.8598   -3.6968    2.1850 H         1 ATP         0.0340
     34 H5'2       -0.3933   -3.5903    3.1931 H         1 ATP         0.0340
     35 H4'         0.8874   -3.6466    0.8805 H         1 ATP         0.0910
     36 H3'        -0.7376   -1.2333    1.9867 H         1 ATP         0.0656
     37 HO3'        1.3408   -0.4870    2.3219 H         1 ATP         0.4386
     38 H2'        -0.0384   -0.0310    0.0096 H         1 ATP         0.0788
     39 HO2'        1.4998   -0.8412   -1.4369 H         1 ATP         0.4363
     40 H1'        -0.4769   -2.1002   -1.8093 H         1 ATP         0.1225
     41 H8         -2.9569   -2.1323    1.0098 H         1 ATP         0.3824
     42 HN62       -6.3169    1.6552   -2.5012 H         1 ATP         0.4018
     43 H2         -2.3612    1.2343   -4.4957 H         1 ATP         0.0652
     44 H44        -4.5223    1.7976   -3.9117 H         1 ATP         0.4503
     45 H45        -5.0218   -0.8132    0.3804 H         1 ATP         0.5209
@<TRIPOS>BOND
     1    1    2 2
     2    1    3 1
     3    1    4 1
     4    1    8 1
     5    4   32 1
     6    5    6 2
     7    5    7 1
     8    5    8 1
     9    5   12 1
    10    9   10 2
    11    9   11 1
    12    9   12 1
    13    9   13 1
    14   13   14 1
    15   14   15 1
    16   14   33 1
    17   14   34 1
    18   15   16 1
    19   15   17 1
    20   15   35 1
    21   16   21 1
    22   17   18 1
    23   17   19 1
    24   17   36 1
    25   18   37 1
    26   19   20 1
    27   19   21 1
    28   19   38 1
    29   20   39 1
    30   21   22 1
    31   21   40 1
    32   22   23 ar
    33   22   31 ar
    34   23   24 ar
    35   23   41 1
    36   24   25 ar
    37   24   45 1
    38   25   26 ar
    39   25   31 ar
    40   26   27 2
    41   26   28 ar
    42   27   42 1
    43   28   29 ar
    44   28   44 1
    45   29   30 ar
    46   29   43 1
    47   30   31 ar
@<TRIPOS>SUBSTRUCTURE
     1 ATP         1 GROUP 0 A     ****
@<TRIPOS>MOLECULE
[[[3,4-dihydroxy-5-(6-imino-7,8-dihydro-1~{H}-purin-8-ylium-9-yl)tetrahydrofuran-2-yl]methoxy-oxido-phosphoryl]oxy-oxido-phosphoryl] hydrogen phosphate
   45    47     1     0     0
SMALL
USER_CHARGES

@<TRIPOS>ATOM
      1 PG          4.3087   -5.5658   -1.4847 P.3       1 ATP         1.5631
      2 O1G         5.6495   -6.0063   -0.9410 O.co2     1 ATP        -0.8806
      3 O2G         4.2003   -4.3839   -2.4222 O.co2     1 ATP        -0.8806
      4 O3G         3.5854   -6.8512   -2.1852 O.3       1 ATP        -0.8165
      5 PB          2.8693   -6.3673    0.9708 P.3       1 ATP         1.6877
      6 O1B         2.1111   -7.5381    0.3862 O.co2     1 ATP        -0.8727
      7 O2B         4.0796   -6.5795    1.8527 O.co2     1 ATP        -0.8727
      8 O3B         3.2756   -5.3499   -0.2397 O.3       1 ATP        -0.8330
      9 PA          0.9415   -5.6779    3.1070 P.3       1 ATP         1.6036
     10 O1A         1.8910   -5.8259    4.2762 O.co2     1 ATP        -0.9062
     11 O2A        -0.0815   -6.7500    2.8008 O.co2     1 ATP        -0.9062
     12 O3A         1.8139   -5.3990    1.7540 O.3       1 ATP        -0.8166
     13 O5'         0.1618   -4.2444    3.2161 O.3       1 ATP        -0.5510
     14 C5'        -0.7840   -3.8935    2.2172 C.3       1 ATP         0.2099
     15 C4'        -0.0724   -3.1466    1.1027 C.3       1 ATP         0.0598
     16 O4'        -0.8674   -3.1929   -0.0945 O.3       1 ATP        -0.3455
     17 C3'         0.1338   -1.6715    1.4027 C.3       1 ATP         0.0742
     18 O3'         1.2893   -1.4445    2.1808 O.3       1 ATP        -0.6025
     19 C2'         0.2158   -1.0724    0.0128 C.3       1 ATP         0.1145
     20 O2'         1.5141   -1.2448   -0.5513 O.3       1 ATP        -0.5835
     21 C1'        -0.7897   -1.9176   -0.7583 C.3       1 ATP         0.3776
     22 N9         -2.1040   -1.3333   -0.7704 N.pl3     1 ATP        -0.4429
     23 C8         -3.0590   -1.5123    0.1363 C.ar      1 ATP         0.2964
     24 N7         -4.1655   -0.8354   -0.1554 N.pl3     1 ATP        -0.4957
     25 C5         -3.8852   -0.1874   -1.3253 C.ar      1 ATP        -0.1346
     26 C6         -4.7113    0.7160   -2.1458 C.ar      1 ATP         0.7213
     27 N6         -5.9213    1.0209   -1.8021 N.2       1 ATP        -0.8215
     28 N1         -4.0411    1.1673   -3.2764 N.pl3     1 ATP        -0.8455
     29 C2         -2.7403    0.7865   -3.5638 C.ar      1 ATP         0.6477
     30 N3         -1.9921   -0.0108   -2.8519 N.2       1 ATP        -0.5707
     31 C4         -2.6302   -0.4747   -1.7239 C.ar      1 ATP         0.2637
     32 HOG3        2.7000   -6.7263   -2.5886 H         1 ATP         0.4378
     33 H5'1       -1.2460   -4.8076    1.8325 H         1 ATP         0.0340
     34 H5'2       -1.5566   -3.2641    2.6688 H         1 ATP         0.0340
     35 H4'         0.8874   -3.6466    0.8805 H         1 ATP         0.0910
     36 H3'        -0.7376   -1.2333    1.9867 H         1 ATP         0.0656
     37 HO3'        1.1626   -1.9325    3.0084 H         1 ATP         0.4386
     38 H2'        -0.0384   -0.0310    0.0096 H         1 ATP         0.0788
     39 HO2'        2.1463   -0.7958    0.0370 H         1 ATP         0.4363
     40 H1'        -0.4769   -2.1002   -1.8093 H         1 ATP         0.1225
     41 H8         -2.9569   -2.1323    1.0098 H         1 ATP         0.3824
     42 HN62       -6.3169    1.6552   -2.5012 H         1 ATP         0.4018
     43 H2         -2.3612    1.2343   -4.4957 H         1 ATP         0.0652
     44 H44        -4.5223    1.7976   -3.9117 H         1 ATP         0.4503
     45 H45        -5.0218   -0.8132    0.3804 H         1 ATP         0.5209
@<TRIPOS>BOND
     1    1    2 2
     2    1    3 1
     3    1    4 1
     4    1    8 1
     5    4   32 1
     6    5    6 2
     7    5    7 1
     8    5    8 1
     9    5   12 1
    10    9   10 2
    11    9   11 1
    12    9   12 1
    13    9   13 1
    14   13   14 1
    15   14   15 1
    16   14   33 1
    17   14   34 1
    18   15   16 1
    19   15   17 1
    20   15   35 1
    21   16   21 1
    22   17   18 1
    23   17   19 1
    24   17   36 1
    25   18   37 1
    26   19   20 1
    27   19   21 1
    28   19   38 1
    29   20   39 1
    30   21   22 1
    31   21   40 1
    32   22   23 ar
    33   22   31 ar
    34   23   24 ar
    35   23   41 1
    36   24   25 ar
    37   24   45 1
    38   25   26 ar
    39   25   31 ar
    40   26   27 2
    41   26   28 ar
    42   27   42 1
    43   28   29 ar
    44   28   44 1
    45   29   30 ar
    46   29   43 1
    47   30   31 ar
@<TRIPOS>SUBSTRUCTURE
     1 ATP         1 GROUP 0 A     ****
@<TRIPOS>MOLECULE
[[[3,4-dihydroxy-5-(6-imino-7,8-dihydro-1~{H}-purin-8-ylium-9-yl)tetrahydrofuran-2-yl]methoxy-oxido-phosphoryl]oxy-oxido-phosphoryl] hydrogen phosphate
   45    47     1     0     0
SMALL
USER_CHARGES

@<TRIPOS>ATOM
      1 PG         -4.8840   -5.5464   -2.3360 P.3       1 ATP         1.5631
      2 O1G        -6.0528   -4.9633   -1.5736 O.co2     1 ATP        -0.8806
      3 O2G        -4.9705   -6.9223   -2.9582 O.co2     1 ATP        -0.8806
      4 O3G        -4.4354   -4.4826   -3.4906 O.3       1 ATP        -0.8165
      5 PB         -1.9952   -5.8152   -1.7653 P.3       1 ATP         1.6877
      6 O1B        -1.8756   -7.2997   -2.0290 O.co2     1 ATP        -0.8727
      7 O2B        -1.4969   -4.7988   -2.7683 O.co2     1 ATP        -0.8727
      8 O3B        -3.5490   -5.4721   -1.4001 O.3       1 ATP        -0.8330
      9 PA         -1.6226   -6.1545    1.1504 P.3       1 ATP         1.6036
     10 O1A        -1.1867   -7.6034    1.1200 O.co2     1 ATP        -0.9062
     11 O2A        -3.0262   -5.7777    1.5721 O.co2     1 ATP        -0.9062
     12 O3A        -1.3290   -5.4867   -0.3116 O.3       1 ATP        -0.8166
     13 O5'        -0.5687   -5.2869    2.0510 O.3       1 ATP        -0.5510
     14 C5'        -0.7840   -3.8935    2.2172 C.3       1 ATP         0.2099
     15 C4'        -0.0724   -3.1466    1.1027 C.3       1 ATP         0.0598
     16 O4'        -0.8674   -3.1929   -0.0945 O.3       1 ATP        -0.3455
     17 C3'         0.1338   -1.6715    1.4027 C.3       1 ATP         0.0742
     18 O3'         1.2893   -1.4445    2.1808 O.3       1 ATP        -0.6025
     19 C2'         0.2158   -1.0724    0.0128 C.3       1 ATP         0.1145
     20 O2'         1.5141   -1.2448   -0.5513 O.3       1 ATP        -0.5835
     21 C1'        -0.7897   -1.9176   -0.7583 C.3       1 ATP         0.3776
     22 N9         -2.1040   -1.3333   -0.7704 N.pl3     1 ATP        -0.4429
     23 C8         -3.0590   -1.5123    0.1363 C.ar      1 ATP         0.2964
     24 N7         -4.1655   -0.8354   -0.1554 N.pl3     1 ATP        -0.4957
     25 C5         -3.8852   -0.1874   -1.3253 C.ar      1 ATP        -0.1346
     26 C6         -4.7113    0.7160   -2.1458 C.ar      1 ATP         0.7213
     27 N6         -5.9213    1.0209   -1.8021 N.2       1 ATP        -0.8215
     28 N1         -4.0411    1.1673   -3.2764 N.pl3     1 ATP        -0.8455
     29 C2         -2.7403    0.7865   -3.5638 C.ar      1 ATP         0.6477
     30 N3         -1.9921   -0.0108   -2.8519 N.2       1 ATP        -0.5707
     31 C4         -2.6302   -0.4747   -1.7239 C.ar      1 ATP         0.2637
     32 HOG3       -3.6834   -4.7175   -4.0750 H         1 ATP         0.4378
     33 H5'1       -1.8598   -3.6968    2.1850 H         1 ATP         0.0340
     34 H5'2       -0.3933   -3.5903    3.1931 H         1 ATP         0.0340
     35 H4'         0.8874   -3.6466    0.8805 H         1 ATP         0.0910
     36 H3'        -0.7376   -1.2333    1.9867 H         1 ATP         0.0656
     37 HO3'        1.3408   -0.4870    2.3219 H         1 ATP         0.4386
     38 H2'        -0.0384   -0.0310    0.0096 H         1 ATP         0.0788
     39 HO2'        2.1463   -0.7958    0.0370 H         1 ATP         0.4363
     40 H1'        -0.4769   -2.1002   -1.8093 H         1 ATP         0.1225
     41 H8         -2.9569   -2.1323    1.0098 H         1 ATP         0.3824
     42 HN62       -6.3169    1.6552   -2.5012 H         1 ATP         0.4018
     43 H2         -2.3612    1.2343   -4.4957 H         1 ATP         0.0652
     44 H44        -4.5223    1.7976   -3.9117 H         1 ATP         0.4503
     45 H45        -5.0218   -0.8132    0.3804 H         1 ATP         0.5209
@<TRIPOS>BOND
     1    1    2 2
     2    1    3 1
     3    1    4 1
     4    1    8 1
     5    4   32 1
     6    5    6 2
     7    5    7 1
     8    5    8 1
     9    5   12 1
    10    9   10 2
    11    9   11 1
    12    9   12 1
    13    9   13 1
    14   13   14 1
    15   14   15 1
    16   14   33 1
    17   14   34 1
    18   15   16 1
    19   15   17 1
    20   15   35 1
    21   16   21 1
    22   17   18 1
    23   17   19 1
    24   17   36 1
    25   18   37 1
    26   19   20 1
    27   19   21 1
    28   19   38 1
    29   20   39 1
    30   21   22 1
    31   21   40 1
    32   22   23 ar
    33   22   31 ar
    34   23   24 ar
    35   23   41 1
    36   24   25 ar
    37   24   45 1
    38   25   26 ar
    39   25   31 ar
    40   26   27 2
    41   26   28 ar
    42   27   42 1
    43   28   29 ar
    44   28   44 1
    45   29   30 ar
    46   29   43 1
    47   30   31 ar
@<TRIPOS>SUBSTRUCTURE
     1 ATP         1 GROUP 0 A     ****
@<TRIPOS>MOLECULE
[[[3,4-dihydroxy-5-(6-imino-7,8-dihydro-1~{H}-purin-8-ylium-9-yl)tetrahydrofuran-2-yl]methoxy-oxido-phosphoryl]oxy-oxido-phosphoryl] hydrogen phosphate
   45    47     1     0     0
SMALL
USER_CHARGES

@<TRIPOS>ATOM
      1 PG          8.1286    1.5958   -3.5091 P.3       1 ATP         1.5631
      2 O1G         8.8239    2.2568   -2.3399 O.co2     1 ATP        -0.8806
      3 O2G         7.6549    2.4095   -4.6928 O.co2     1 ATP        -0.8806
      4 O3G         9.0757    0.3845   -4.0583 O.3       1 ATP        -0.8165
      5 PB          6.8618   -0.4589   -1.8012 P.3       1 ATP         1.6877
      6 O1B         7.6520   -1.6487   -2.2986 O.co2     1 ATP        -0.8727
      7 O2B         7.1640    0.1782   -0.4631 O.co2     1 ATP        -0.8727
      8 O3B         6.8834    0.7011   -2.9499 O.3       1 ATP        -0.8330
      9 PA          4.3707   -1.3832   -3.1031 P.3       1 ATP         1.6036
     10 O1A         4.8486   -2.7728   -3.4650 O.co2     1 ATP        -0.9062
     11 O2A         4.2841   -0.2971   -4.1531 O.co2     1 ATP        -0.9062
     12 O3A         5.2720   -0.8249   -1.8599 O.3       1 ATP        -0.8166
     13 O5'         2.9216   -1.4836   -2.3516 O.3       1 ATP        -0.5510
     14 C5'         2.2816   -0.2918   -1.9206 C.3       1 ATP         0.2099
     15 C4'         2.7248    0.0226   -0.4980 C.3       1 ATP         0.0598
     16 O4'         2.4697    1.4219   -0.2462 O.3       1 ATP        -0.3455
     17 C3'         1.9404   -0.7419    0.5596 C.3       1 ATP         0.0742
     18 O3'         2.7418   -0.8086    1.7389 O.3       1 ATP        -0.6025
     19 C2'         0.7477    0.1630    0.7858 C.3       1 ATP         0.1145
     20 O2'         0.1373   -0.0577    2.0407 O.3       1 ATP        -0.5835
     21 C1'         1.3733    1.5427    0.6747 C.3       1 ATP         0.3776
     22 N9          0.4520    2.5240    0.1767 N.pl3     1 ATP        -0.4429
     23 C8         -0.2004    2.4829   -0.9804 C.ar      1 ATP         0.2964
     24 N7         -0.9830    3.5431   -1.1568 N.pl3     1 ATP        -0.4957
     25 C5         -0.8095    4.3012   -0.0331 C.ar      1 ATP        -0.1346
     26 C6         -1.4065    5.5904    0.3585 C.ar      1 ATP         0.7213
     27 N6         -2.2501    6.2030   -0.4084 N.2       1 ATP        -0.8215
     28 N1         -0.9585    6.0272    1.5994 N.pl3     1 ATP        -0.8455
     29 C2         -0.0508    5.3009    2.3532 C.ar      1 ATP         0.6477
     30 N3          0.4890    4.1592    2.0257 N.2       1 ATP        -0.5707
     31 C4          0.0637    3.7006    0.7995 C.ar      1 ATP         0.2637
     32 HOG3        9.3034   -0.3455   -3.4438 H         1 ATP         0.4378
     33 H5'1        2.5589    0.5217   -2.5976 H         1 ATP         0.0340
     34 H5'2        1.1982   -0.4388   -1.9617 H         1 ATP         0.0340
     35 H4'         3.8044   -0.1397   -0.4040 H         1 ATP         0.0910
     36 H3'         1.6764   -1.7639    0.2728 H         1 ATP         0.0656
     37 HO3'        3.5554   -1.2733    1.4914 H         1 ATP         0.4386
     38 H2'        -0.0011    0.0027    0.0003 H         1 ATP         0.0788
     39 HO2'       -0.1563   -0.9855    2.0596 H         1 ATP         0.4363
     40 H1'         1.7826    1.9024    1.6451 H         1 ATP         0.1225
     41 H8         -0.1116    1.6863   -1.6984 H         1 ATP         0.3824
     42 HN62       -2.5420    7.0730    0.0447 H         1 ATP         0.4018
     43 H2          0.1969    5.7893    3.3086 H         1 ATP         0.0652
     44 H44        -1.3097    6.9080    1.9642 H         1 ATP         0.4503
     45 H45        -1.5735    3.7351   -1.9538 H         1 ATP         0.5209
@<TRIPOS>BOND
     1    1    2 2
     2    1    3 1
     3    1    4 1
     4    1    8 1
     5    4   32 1
     6    5    6 2
     7    5    7 1
     8    5    8 1
     9    5   12 1
    10    9   10 2
    11    9   11 1
    12    9   12 1
    13    9   13 1
    14   13   14 1
    15   14   15 1
    16   14   33 1
    17   14   34 1
    18   15   16 1
    19   15   17 1
    20   15   35 1
    21   16   21 1
    22   17   18 1
    23   17   19 1
    24   17   36 1
    25   18   37 1
    26   19   20 1
    27   19   21 1
    28   19   38 1
    29   20   39 1
    30   21   22 1
    31   21   40 1
    32   22   23 ar
    33   22   31 ar
    34   23   24 ar
    35   23   41 1
    36   24   25 ar
    37   24   45 1
    38   25   26 ar
    39   25   31 ar
    40   26   27 2
    41   26   28 ar
    42   27   42 1
    43   28   29 ar
    44   28   44 1
    45   29   30 ar
    46   29   43 1
    47   30   31 ar
@<TRIPOS>SUBSTRUCTURE
     1 ATP         1 GROUP 0 A     ****
@<TRIPOS>MOLECULE
[[[3,4-dihydroxy-5-(6-imino-7,8-dihydro-1~{H}-purin-8-ylium-9-yl)tetrahydrofuran-2-yl]methoxy-oxido-phosphoryl]oxy-oxido-phosphoryl] hydrogen phosphate
   45    47     1     0     0
SMALL
USER_CHARGES

@<TRIPOS>ATOM
      1 PG         -1.5398    1.3532   -3.9456 P.3       1 ATP         1.5631
      2 O1G        -2.1857    2.4587   -3.1405 O.co2     1 ATP        -0.8806
      3 O2G        -0.8502    0.1941   -3.2609 O.co2     1 ATP        -0.8806
      4 O3G        -2.6461    0.7561   -4.9875 O.3       1 ATP        -0.8165
      5 PB          0.8834    2.8247   -4.7858 P.3       1 ATP         1.6877
      6 O1B         1.5354    3.0792   -6.1265 O.co2     1 ATP        -0.8727
      7 O2B         0.6264    3.9538   -3.8128 O.co2     1 ATP        -0.8727
      8 O3B        -0.5132    2.0147   -5.0283 O.3       1 ATP        -0.8330
      9 PA          3.2344    1.6562   -3.4210 P.3       1 ATP         1.6036
     10 O1A         3.3058    2.6484   -2.2804 O.co2     1 ATP        -0.9062
     11 O2A         4.1989    1.7434   -4.5836 O.co2     1 ATP        -0.9062
     12 O3A         1.7125    1.6481   -4.0156 O.3       1 ATP        -0.8166
     13 O5'         3.2903    0.1346   -2.8241 O.3       1 ATP        -0.5510
     14 C5'         2.2816   -0.2918   -1.9206 C.3       1 ATP         0.2099
     15 C4'         2.7248    0.0226   -0.4980 C.3       1 ATP         0.0598
     16 O4'         2.4697    1.4219   -0.2462 O.3       1 ATP        -0.3455
     17 C3'         1.9404   -0.7419    0.5596 C.3       1 ATP         0.0742
     18 O3'         2.7418   -0.8086    1.7389 O.3       1 ATP        -0.6025
     19 C2'         0.7477    0.1630    0.7858 C.3       1 ATP         0.1145
     20 O2'         0.1373   -0.0577    2.0407 O.3       1 ATP        -0.5835
     21 C1'         1.3733    1.5427    0.6747 C.3       1 ATP         0.3776
     22 N9          0.4520    2.5240    0.1767 N.pl3     1 ATP        -0.4429
     23 C8          0.2216    2.8192   -1.0985 C.ar      1 ATP         0.2964
     24 N7         -0.6906    3.7763   -1.2384 N.pl3     1 ATP        -0.4957
     25 C5         -1.0575    4.1037    0.0366 C.ar      1 ATP        -0.1346
     26 C6         -2.0291    5.0943    0.5330 C.ar      1 ATP         0.7213
     27 N6         -2.7093    5.8371   -0.2800 N.2       1 ATP        -0.8215
     28 N1         -2.1051    5.1136    1.9204 N.pl3     1 ATP        -0.8455
     29 C2         -1.3354    4.2774    2.7129 C.ar      1 ATP         0.6477
     30 N3         -0.4707    3.3945    2.2944 N.2       1 ATP        -0.5707
     31 C4         -0.3734    3.3525    0.9220 C.ar      1 ATP         0.2637
     32 HOG3       -2.3781    0.0259   -5.5853 H         1 ATP         0.4378
     33 H5'1        1.3514    0.2330   -2.1577 H         1 ATP         0.0340
     34 H5'2        2.1280   -1.3678   -2.0460 H         1 ATP         0.0340
     35 H4'         3.8044   -0.1397   -0.4040 H         1 ATP         0.0910
     36 H3'         1.6764   -1.7639    0.2728 H         1 ATP         0.0656
     37 HO3'        2.2232   -1.2979    2.3953 H         1 ATP         0.4386
     38 H2'        -0.0011    0.0027    0.0003 H         1 ATP         0.0788
     39 HO2'       -0.1563   -0.9855    2.0596 H         1 ATP         0.4363
     40 H1'         1.7826    1.9024    1.6451 H         1 ATP         0.1225
     41 H8          0.7125    2.3429   -1.9292 H         1 ATP         0.3824
     42 HN62       -3.3217    6.4517    0.2629 H         1 ATP         0.4018
     43 H2         -1.5188    4.4223    3.7890 H         1 ATP         0.0652
     44 H44        -2.7470    5.7626    2.3665 H         1 ATP         0.4503
     45 H45        -1.0305    4.1680   -2.1054 H         1 ATP         0.5209
@<TRIPOS>BOND
     1    1    2 2
     2    1    3 1
     3    1    4 1
     4    1    8 1
     5    4   32 1
     6    5    6 2
     7    5    7 1
     8    5    8 1
     9    5   12 1
    10    9   10 2
    11    9   11 1
    12    9   12 1
    13    9   13 1
    14   13   14 1
    15   14   15 1
    16   14   33 1
    17   14   34 1
    18   15   16 1
    19   15   17 1
    20   15   35 1
    21   16   21 1
    22   17   18 1
    23   17   19 1
    24   17   36 1
    25   18   37 1
    26   19   20 1
    27   19   21 1
    28   19   38 1
    29   20   39 1
    30   21   22 1
    31   21   40 1
    32   22   23 ar
    33   22   31 ar
    34   23   24 ar
    35   23   41 1
    36   24   25 ar
    37   24   45 1
    38   25   26 ar
    39   25   31 ar
    40   26   27 2
    41   26   28 ar
    42   27   42 1
    43   28   29 ar
    44   28   44 1
    45   29   30 ar
    46   29   43 1
    47   30   31 ar
@<TRIPOS>SUBSTRUCTURE
     1 ATP         1 GROUP 0 A     ****
@<TRIPOS>MOLECULE
[[[3,4-dihydroxy-5-(6-imino-7,8-dihydro-1~{H}-purin-8-ylium-9-yl)tetrahydrofuran-2-yl]methoxy-oxido-phosphoryl]oxy-oxido-phosphoryl] hydrogen phosphate
   45    47     1     0     0
SMALL
USER_CHARGES

@<TRIPOS>ATOM
      1 PG          5.0992    3.4027    0.6573 P.3       1 ATP         1.5631
      2 O1G         6.3814    4.1342    0.3281 O.co2     1 ATP        -0.8806
      3 O2G         5.0091    1.8979    0.5337 O.co2     1 ATP        -0.8806
      4 O3G         4.6312    3.8281    2.1626 O.3       1 ATP        -0.8165
      5 PB          3.5940    4.0992   -1.7907 P.3       1 ATP         1.6877
      6 O1B         2.2320    4.7083   -2.0384 O.co2     1 ATP        -0.8727
      7 O2B         4.8272    4.6274   -2.4890 O.co2     1 ATP        -0.8727
      8 O3B         3.8725    4.0767   -0.1821 O.3       1 ATP        -0.8330
      9 PA          3.2344    1.6562   -3.4210 P.3       1 ATP         1.6036
     10 O1A         4.4053    1.8754   -4.3543 O.co2     1 ATP        -0.9062
     11 O2A         1.8186    1.9327   -3.8780 O.co2     1 ATP        -0.9062
     12 O3A         3.5002    2.4887   -2.0403 O.3       1 ATP        -0.8166
     13 O5'         3.2903    0.1346   -2.8241 O.3       1 ATP        -0.5510
     14 C5'         2.2816   -0.2918   -1.9206 C.3       1 ATP         0.2099
     15 C4'         2.7248    0.0226   -0.4980 C.3       1 ATP         0.0598
     16 O4'         2.4697    1.4219   -0.2462 O.3       1 ATP        -0.3455
     17 C3'         1.9404   -0.7419    0.5596 C.3       1 ATP         0.0742
     18 O3'         2.7418   -0.8086    1.7389 O.3       1 ATP        -0.6025
     19 C2'         0.7477    0.1630    0.7858 C.3       1 ATP         0.1145
     20 O2'         0.1373   -0.0577    2.0407 O.3       1 ATP        -0.5835
     21 C1'         1.3733    1.5427    0.6747 C.3       1 ATP         0.3776
     22 N9          0.4520    2.5240    0.1767 N.pl3     1 ATP        -0.4429
     23 C8         -0.2004    2.4829   -0.9804 C.ar      1 ATP         0.2964
     24 N7         -0.9830    3.5431   -1.1568 N.pl3     1 ATP        -0.4957
     25 C5         -0.8095    4.3012   -0.0331 C.ar      1 ATP        -0.1346
     26 C6         -1.4065    5.5904    0.3585 C.ar      1 ATP         0.7213
     27 N6         -2.2501    6.2030   -0.4084 N.2       1 ATP        -0.8215
     28 N1         -0.9585    6.0272    1.5994 N.pl3     1 ATP        -0.8455
     29 C2         -0.0508    5.3009    2.3532 C.ar      1 ATP         0.6477
     30 N3          0.4890    4.1592    2.0257 N.2       1 ATP        -0.5707
     31 C4          0.0637    3.7006    0.7995 C.ar      1 ATP         0.2637
     32 HOG3        3.8089    3.4344    2.5246 H         1 ATP         0.4378
     33 H5'1        1.3514    0.2330   -2.1577 H         1 ATP         0.0340
     34 H5'2        2.1280   -1.3678   -2.0460 H         1 ATP         0.0340
     35 H4'         3.8044   -0.1397   -0.4040 H         1 ATP         0.0910
     36 H3'         1.6764   -1.7639    0.2728 H         1 ATP         0.0656
     37 HO3'        2.9083    0.1071    2.0092 H         1 ATP         0.4386
     38 H2'        -0.0011    0.0027    0.0003 H         1 ATP         0.0788
     39 HO2'       -0.1563   -0.9855    2.0596 H         1 ATP         0.4363
     40 H1'         1.7826    1.9024    1.6451 H         1 ATP         0.1225
     41 H8         -0.1116    1.6863   -1.6984 H         1 ATP         0.3824
     42 HN62       -2.5420    7.0730    0.0447 H         1 ATP         0.4018
     43 H2          0.1969    5.7893    3.3086 H         1 ATP         0.0652
     44 H44        -1.3097    6.9080    1.9642 H         1 ATP         0.4503
     45 H45        -1.5735    3.7351   -1.9538 H         1 ATP         0.5209
@<TRIPOS>BOND
     1    1    2 2
     2    1    3 1
     3    1    4 1
     4    1    8 1
     5    4   32 1
     6    5    6 2
     7    5    7 1
     8    5    8 1
     9    5   12 1
    10    9   10 2
    11    9   11 1
    12    9   12 1
    13    9   13 1
    14   13   14 1
    15   14   15 1
    16   14   33 1
    17   14   34 1
    18   15   16 1
    19   15   17 1
    20   15   35 1
    21   16   21 1
    22   17   18 1
    23   17   19 1
    24   17   36 1
    25   18   37 1
    26   19   20 1
    27   19   21 1
    28   19   38 1
    29   20   39 1
    30   21   22 1
    31   21   40 1
    32   22   23 ar
    33   22   31 ar
    34   23   24 ar
    35   23   41 1
    36   24   25 ar
    37   24   45 1
    38   25   26 ar
    39   25   31 ar
    40   26   27 2
    41   26   28 ar
    42   27   42 1
    43   28   29 ar
    44   28   44 1
    45   29   30 ar
    46   29   43 1
    47   30   31 ar
@<TRIPOS>SUBSTRUCTURE
     1 ATP         1 GROUP 0 A     ****
@<TRIPOS>MOLECULE
[[[3,4-dihydroxy-5-(6-imino-7,8-dihydro-1~{H}-purin-8-ylium-9-yl)tetrahydrofuran-2-yl]methoxy-oxido-phosphoryl]oxy-oxido-phosphoryl] hydrogen phosphate
   45    47     1     0     0
SMALL
USER_CHARGES

@<TRIPOS>ATOM
      1 PG         -1.2437   -4.4166   -4.2598 P.3       1 ATP         1.5631
      2 O1G        -2.5951   -3.8158   -4.5764 O.co2     1 ATP        -0.8806
      3 O2G        -0.7289   -5.6171   -5.0223 O.co2     1 ATP        -0.8806
      4 O3G        -0.1201   -3.2343   -4.3344 O.3       1 ATP        -0.8165
      5 PB         -1.9952   -5.8152   -1.7653 P.3       1 ATP         1.6877
      6 O1B        -3.4506   -5.4048   -1.7355 O.co2     1 ATP        -0.8727
      7 O2B        -1.5827   -7.2087   -2.1843 O.co2     1 ATP        -0.8727
      8 O3B        -1.1641   -4.7319   -2.6604 O.3       1 ATP        -0.8330
      9 PA         -1.6226   -6.1545    1.1504 P.3       1 ATP         1.6036
     10 O1A        -1.1867   -7.6034    1.1200 O.co2     1 ATP        -0.9062
     11 O2A        -3.0262   -5.7777    1.5721 O.co2     1 ATP        -0.9062
     12 O3A        -1.3290   -5.4867   -0.3116 O.3       1 ATP        -0.8166
     13 O5'        -0.5687   -5.2869    2.0510 O.3       1 ATP        -0.5510
     14 C5'        -0.7840   -3.8935    2.2172 C.3       1 ATP         0.2099
     15 C4'        -0.0724   -3.1466    1.1027 C.3       1 ATP         0.0598
     16 O4'        -0.8674   -3.1929   -0.0945 O.3       1 ATP        -0.3455
     17 C3'         0.1338   -1.6715    1.4027 C.3       1 ATP         0.0742
     18 O3'         1.2893   -1.4445    2.1808 O.3       1 ATP        -0.6025
     19 C2'         0.2158   -1.0724    0.0128 C.3       1 ATP         0.1145
     20 O2'         1.5141   -1.2448   -0.5513 O.3       1 ATP        -0.5835
     21 C1'        -0.7897   -1.9176   -0.7583 C.3       1 ATP         0.3776
     22 N9         -2.1040   -1.3333   -0.7704 N.pl3     1 ATP        -0.4429
     23 C8         -3.2114   -1.8635   -0.2619 C.ar      1 ATP         0.2964
     24 N7         -4.2711   -1.0786   -0.4314 N.pl3     1 ATP        -0.4957
     25 C5         -3.7955    0.0193   -1.0917 C.ar      1 ATP        -0.1346
     26 C6         -4.4862    1.2344   -1.5586 C.ar      1 ATP         0.7213
     27 N6         -5.7554    1.4030   -1.3689 N.2       1 ATP        -0.8215
     28 N1         -3.6267    2.1218   -2.1949 N.pl3     1 ATP        -0.8455
     29 C2         -2.2761    1.8558   -2.3521 C.ar      1 ATP         0.6477
     30 N3         -1.6453    0.7881   -1.9466 N.2       1 ATP        -0.5707
     31 C4         -2.4722   -0.1108   -1.3117 C.ar      1 ATP         0.2637
     32 HOG3        0.8153   -3.4670   -4.1520 H         1 ATP         0.4378
     33 H5'1       -1.8598   -3.6968    2.1850 H         1 ATP         0.0340
     34 H5'2       -0.3933   -3.5903    3.1931 H         1 ATP         0.0340
     35 H4'         0.8874   -3.6466    0.8805 H         1 ATP         0.0910
     36 H3'        -0.7376   -1.2333    1.9867 H         1 ATP         0.0656
     37 HO3'        1.3408   -0.4870    2.3219 H         1 ATP         0.4386
     38 H2'        -0.0384   -0.0310    0.0096 H         1 ATP         0.0788
     39 HO2'        1.4998   -0.8412   -1.4369 H         1 ATP         0.4363
     40 H1'        -0.4769   -2.1002   -1.8093 H         1 ATP         0.1225
     41 H8         -3.2547   -2.8183    0.2325 H         1 ATP         0.3824
     42 HN62       -6.0352    2.3041   -1.7656 H         1 ATP         0.4018
     43 H2         -1.7412    2.6624   -2.8773 H         1 ATP         0.0652
     44 H44        -4.0029    2.9939   -2.5557 H         1 ATP         0.4503
     45 H45        -5.2179   -1.2649   -0.1322 H         1 ATP         0.5209
@<TRIPOS>BOND
     1    1    2 2
     2    1    3 1
     3    1    4 1
     4    1    8 1
     5    4   32 1
     6    5    6 2
     7    5    7 1
     8    5    8 1
     9    5   12 1
    10    9   10 2
    11    9   11 1
    12    9   12 1
    13    9   13 1
    14   13   14 1
    15   14   15 1
    16   14   33 1
    17   14   34 1
    18   15   16 1
    19   15   17 1
    20   15   35 1
    21   16   21 1
    22   17   18 1
    23   17   19 1
    24   17   36 1
    25   18   37 1
    26   19   20 1
    27   19   21 1
    28   19   38 1
    29   20   39 1
    30   21   22 1
    31   21   40 1
    32   22   23 ar
    33   22   31 ar
    34   23   24 ar
    35   23   41 1
    36   24   25 ar
    37   24   45 1
    38   25   26 ar
    39   25   31 ar
    40   26   27 2
    41   26   28 ar
    42   27   42 1
    43   28   29 ar
    44   28   44 1
    45   29   30 ar
    46   29   43 1
    47   30   31 ar
@<TRIPOS>SUBSTRUCTURE
     1 ATP         1 GROUP 0 A     ****
@<TRIPOS>MOLECULE
[[[3,4-dihydroxy-5-(6-imino-7,8-dihydro-1~{H}-purin-8-ylium-9-yl)tetrahydrofuran-2-yl]methoxy-oxido-phosphoryl]oxy-oxido-phosphoryl] hydrogen phosphate
   45    47     1     0     0
SMALL
USER_CHARGES

@<TRIPOS>ATOM
      1 PG         -1.8573   -8.4687   -3.0628 P.3       1 ATP         1.5631
      2 O1G        -1.0993   -8.0540   -4.3041 O.co2     1 ATP        -0.8806
      3 O2G        -3.3426   -8.7494   -3.1165 O.co2     1 ATP        -0.8806
      4 O3G        -1.1087   -9.7626   -2.4059 O.3       1 ATP        -0.8165
      5 PB         -1.9952   -5.8152   -1.7653 P.3       1 ATP         1.6877
      6 O1B        -1.2530   -5.0339   -2.8265 O.co2     1 ATP        -0.8727
      7 O2B        -3.5001   -5.7312   -1.6395 O.co2     1 ATP        -0.8727
      8 O3B        -1.5661   -7.3866   -1.8762 O.3       1 ATP        -0.8330
      9 PA         -1.6226   -6.1545    1.1504 P.3       1 ATP         1.6036
     10 O1A        -1.1867   -7.6034    1.1200 O.co2     1 ATP        -0.9062
     11 O2A        -3.0262   -5.7777    1.5721 O.co2     1 ATP        -0.9062
     12 O3A        -1.3290   -5.4867   -0.3116 O.3       1 ATP        -0.8166
     13 O5'        -0.5687   -5.2869    2.0510 O.3       1 ATP        -0.5510
     14 C5'        -0.7840   -3.8935    2.2172 C.3       1 ATP         0.2099
     15 C4'        -0.0724   -3.1466    1.1027 C.3       1 ATP         0.0598
     16 O4'        -0.8674   -3.1929   -0.0945 O.3       1 ATP        -0.3455
     17 C3'         0.1338   -1.6715    1.4027 C.3       1 ATP         0.0742
     18 O3'         1.2893   -1.4445    2.1808 O.3       1 ATP        -0.6025
     19 C2'         0.2158   -1.0724    0.0128 C.3       1 ATP         0.1145
     20 O2'         1.5141   -1.2448   -0.5513 O.3       1 ATP        -0.5835
     21 C1'        -0.7897   -1.9176   -0.7583 C.3       1 ATP         0.3776
     22 N9         -2.1040   -1.3333   -0.7704 N.pl3     1 ATP        -0.4429
     23 C8         -3.0590   -1.5123    0.1363 C.ar      1 ATP         0.2964
     24 N7         -4.1655   -0.8354   -0.1554 N.pl3     1 ATP        -0.4957
     25 C5         -3.8852   -0.1874   -1.3253 C.ar      1 ATP        -0.1346
     26 C6         -4.7113    0.7160   -2.1458 C.ar      1 ATP         0.7213
     27 N6         -5.9213    1.0209   -1.8021 N.2       1 ATP        -0.8215
     28 N1         -4.0411    1.1673   -3.2764 N.pl3     1 ATP        -0.8455
     29 C2         -2.7403    0.7865   -3.5638 C.ar      1 ATP         0.6477
     30 N3         -1.9921   -0.0108   -2.8519 N.2       1 ATP        -0.5707
     31 C4         -2.6302   -0.4747   -1.7239 C.ar      1 ATP         0.2637
     32 HOG3       -1.4831  -10.1530   -1.5876 H         1 ATP         0.4378
     33 H5'1       -1.8598   -3.6968    2.1850 H         1 ATP         0.0340
     34 H5'2       -0.3933   -3.5903    3.1931 H         1 ATP         0.0340
     35 H4'         0.8874   -3.6466    0.8805 H         1 ATP         0.0910
     36 H3'        -0.7376   -1.2333    1.9867 H         1 ATP         0.0656
     37 HO3'        1.3408   -0.4870    2.3219 H         1 ATP         0.4386
     38 H2'        -0.0384   -0.0310    0.0096 H         1 ATP         0.0788
     39 HO2'        2.1463   -0.7958    0.0370 H         1 ATP         0.4363
     40 H1'        -0.4769   -2.1002   -1.8093 H         1 ATP         0.1225
     41 H8         -2.9569   -2.1323    1.0098 H         1 ATP         0.3824
     42 HN62       -6.3169    1.6552   -2.5012 H         1 ATP         0.4018
     43 H2         -2.3612    1.2343   -4.4957 H         1 ATP         0.0652
     44 H44        -4.5223    1.7976   -3.9117 H         1 ATP         0.4503
     45 H45        -5.0218   -0.8132    0.3804 H         1 ATP         0.5209
@<TRIPOS>BOND
     1    1    2 2
     2    1    3 1
     3    1    4 1
     4    1    8 1
     5    4   32 1
     6    5    6 2
     7    5    7 1
     8    5    8 1
     9    5   12 1
    10    9   10 2
    11    9   11 1
    12    9   12 1
    13    9   13 1
    14   13   14 1
    15   14   15 1
    16   14   33 1
    17   14   34 1
    18   15   16 1
    19   15   17 1
    20   15   35 1
    21   16   21 1
    22   17   18 1
    23   17   19 1
    24   17   36 1
    25   18   37 1
    26   19   20 1
    27   19   21 1
    28   19   38 1
    29   20   39 1
    30   21   22 1
    31   21   40 1
    32   22   23 ar
    33   22   31 ar
    34   23   24 ar
    35   23   41 1
    36   24   25 ar
    37   24   45 1
    38   25   26 ar
    39   25   31 ar
    40   26   27 2
    41   26   28 ar
    42   27   42 1
    43   28   29 ar
    44   28   44 1
    45   29   30 ar
    46   29   43 1
    47   30   31 ar
@<TRIPOS>SUBSTRUCTURE
     1 ATP         1 GROUP 0 A     ****
@<TRIPOS>MOLECULE
[[[3,4-dihydroxy-5-(6-imino-7,8-dihydro-1~{H}-purin-8-ylium-9-yl)tetrahydrofuran-2-yl]methoxy-oxido-phosphoryl]oxy-oxido-phosphoryl] hydrogen phosphate
   45    47     1     0     0
SMALL
USER_CHARGES

@<TRIPOS>ATOM
      1 PG         -0.0268   -1.8410   -6.1658 P.3       1 ATP         1.5631
      2 O1G         0.7837   -2.3762   -5.0064 O.co2     1 ATP        -0.8806
      3 O2G         0.4431   -2.0225   -7.5920 O.co2     1 ATP        -0.8806
      4 O3G        -1.5494   -2.4179   -6.0443 O.3       1 ATP        -0.8165
      5 PB          0.6774    1.0155   -5.8696 P.3       1 ATP         1.6877
      6 O1B         1.4950    1.0231   -7.1420 O.co2     1 ATP        -0.8727
      7 O2B        -0.0945    2.2386   -5.4272 O.co2     1 ATP        -0.8727
      8 O3B        -0.3408   -0.2601   -5.9094 O.3       1 ATP        -0.8330
      9 PA          2.9232    1.2546   -3.9579 P.3       1 ATP         1.6036
     10 O1A         2.4622    2.5266   -3.2798 O.co2     1 ATP        -0.9062
     11 O2A         4.0435    1.2824   -4.9747 O.co2     1 ATP        -0.9062
     12 O3A         1.6300    0.5237   -4.6385 O.3       1 ATP        -0.8166
     13 O5'         3.2903    0.1346   -2.8241 O.3       1 ATP        -0.5510
     14 C5'         2.2816   -0.2918   -1.9206 C.3       1 ATP         0.2099
     15 C4'         2.7248    0.0226   -0.4980 C.3       1 ATP         0.0598
     16 O4'         2.4697    1.4219   -0.2462 O.3       1 ATP        -0.3455
     17 C3'         1.9404   -0.7419    0.5596 C.3       1 ATP         0.0742
     18 O3'         2.7418   -0.8086    1.7389 O.3       1 ATP        -0.6025
     19 C2'         0.7477    0.1630    0.7858 C.3       1 ATP         0.1145
     20 O2'         0.1373   -0.0577    2.0407 O.3       1 ATP        -0.5835
     21 C1'         1.3733    1.5427    0.6747 C.3       1 ATP         0.3776
     22 N9          0.4520    2.5240    0.1767 N.pl3     1 ATP        -0.4429
     23 C8          0.5691    3.2215   -0.9485 C.ar      1 ATP         0.2964
     24 N7         -0.4499    4.0551   -1.1342 N.pl3     1 ATP        -0.4957
     25 C5         -1.2618    3.8674   -0.0512 C.ar      1 ATP        -0.1346
     26 C6         -2.5420    4.5007    0.3120 C.ar      1 ATP         0.7213
     27 N6         -3.0874    5.3993   -0.4432 N.2       1 ATP        -0.8215
     28 N1         -3.0494    4.0205    1.5133 N.pl3     1 ATP        -0.8455
     29 C2         -2.3933    3.0527    2.2567 C.ar      1 ATP         0.6477
     30 N3         -1.2611    2.4796    1.9536 N.2       1 ATP        -0.5707
     31 C4         -0.7334    2.9358    0.7669 C.ar      1 ATP         0.2637
     32 HOG3       -2.2029   -2.1588   -6.7285 H         1 ATP         0.4378
     33 H5'1        1.3514    0.2330   -2.1577 H         1 ATP         0.0340
     34 H5'2        2.1280   -1.3678   -2.0460 H         1 ATP         0.0340
     35 H4'         3.8044   -0.1397   -0.4040 H         1 ATP         0.0910
     36 H3'         1.6764   -1.7639    0.2728 H         1 ATP         0.0656
     37 HO3'        3.5554   -1.2733    1.4914 H         1 ATP         0.4386
     38 H2'        -0.0011    0.0027    0.0003 H         1 ATP         0.0788
     39 HO2'       -0.1563   -0.9855    2.0596 H         1 ATP         0.4363
     40 H1'         1.7826    1.9024    1.6451 H         1 ATP         0.1225
     41 H8          1.3912    3.1285   -1.6365 H         1 ATP         0.3824
     42 HN62       -3.9637    5.7083   -0.0142 H         1 ATP         0.4018
     43 H2         -2.9317    2.7866    3.1796 H         1 ATP         0.0652
     44 H44        -3.9307    4.3923    1.8558 H         1 ATP         0.4503
     45 H45        -0.5835    4.6857   -1.9122 H         1 ATP         0.5209
@<TRIPOS>BOND
     1    1    2 2
     2    1    3 1
     3    1    4 1
     4    1    8 1
     5    4   32 1
     6    5    6 2
     7    5    7 1
     8    5    8 1
     9    5   12 1
    10    9   10 2
    11    9   11 1
    12    9   12 1
    13    9   13 1
    14   13   14 1
    15   14   15 1
    16   14   33 1
    17   14   34 1
    18   15   16 1
    19   15   17 1
    20   15   35 1
    21   16   21 1
    22   17   18 1
    23   17   19 1
    24   17   36 1
    25   18   37 1
    26   19   20 1
    27   19   21 1
    28   19   38 1
    29   20   39 1
    30   21   22 1
    31   21   40 1
    32   22   23 ar
    33   22   31 ar
    34   23   24 ar
    35   23   41 1
    36   24   25 ar
    37   24   45 1
    38   25   26 ar
    39   25   31 ar
    40   26   27 2
    41   26   28 ar
    42   27   42 1
    43   28   29 ar
    44   28   44 1
    45   29   30 ar
    46   29   43 1
    47   30   31 ar
@<TRIPOS>SUBSTRUCTURE
     1 ATP         1 GROUP 0 A     ****
@<TRIPOS>MOLECULE
[[[3,4-dihydroxy-5-(6-imino-7,8-dihydro-1~{H}-purin-8-ylium-9-yl)tetrahydrofuran-2-yl]methoxy-oxido-phosphoryl]oxy-oxido-phosphoryl] hydrogen phosphate
   45    47     1     0     0
SMALL
USER_CHARGES

@<TRIPOS>ATOM
      1 PG          0.6099    4.8836   -6.4354 P.3       1 ATP         1.5631
      2 O1G         1.8803    5.3559   -7.1065 O.co2     1 ATP        -0.8806
      3 O2G        -0.3437    5.8682   -5.7958 O.co2     1 ATP        -0.8806
      4 O3G        -0.2266    3.9660   -7.4957 O.3       1 ATP        -0.8165
      5 PB          0.0011    2.7711   -4.4580 P.3       1 ATP         1.6877
      6 O1B        -0.7448    3.6342   -3.4650 O.co2     1 ATP        -0.8727
      7 O2B        -0.7347    1.8320   -5.3876 O.co2     1 ATP        -0.8727
      8 O3B         0.9827    3.7255   -5.3475 O.3       1 ATP        -0.8330
      9 PA          2.3336    0.9636   -4.2390 P.3       1 ATP         1.6036
     10 O1A         3.3077    1.8126   -5.0268 O.co2     1 ATP        -0.9062
     11 O2A         1.6934   -0.2581   -4.8612 O.co2     1 ATP        -0.9062
     12 O3A         1.1473    1.9262   -3.6595 O.3       1 ATP        -0.8166
     13 O5'         3.0213    0.5153   -2.8245 O.3       1 ATP        -0.5510
     14 C5'         2.2816   -0.2918   -1.9206 C.3       1 ATP         0.2099
     15 C4'         2.7248    0.0226   -0.4980 C.3       1 ATP         0.0598
     16 O4'         2.4697    1.4219   -0.2462 O.3       1 ATP        -0.3455
     17 C3'         1.9404   -0.7419    0.5596 C.3       1 ATP         0.0742
     18 O3'         2.7418   -0.8086    1.7389 O.3       1 ATP        -0.6025
     19 C2'         0.7477    0.1630    0.7858 C.3       1 ATP         0.1145
     20 O2'         0.1373   -0.0577    2.0407 O.3       1 ATP        -0.5835
     21 C1'         1.3733    1.5427    0.6747 C.3       1 ATP         0.3776
     22 N9          0.4520    2.5240    0.1767 N.pl3     1 ATP        -0.4429
     23 C8         -0.8620    2.5492    0.3743 C.ar      1 ATP         0.2964
     24 N7         -1.4419    3.5886   -0.2183 N.pl3     1 ATP        -0.4957
     25 C5         -0.4215    4.2614   -0.8294 C.ar      1 ATP        -0.1346
     26 C6         -0.4310    5.4918   -1.6405 C.ar      1 ATP         0.7213
     27 N6         -1.5302    6.1308   -1.8826 N.2       1 ATP        -0.8215
     28 N1          0.8382    5.8461   -2.0817 N.pl3     1 ATP        -0.8455
     29 C2          1.9625    5.0982   -1.7709 C.ar      1 ATP         0.6477
     30 N3          1.9930    4.0077   -1.0554 N.2       1 ATP        -0.5707
     31 C4          0.7483    3.6314   -0.6038 C.ar      1 ATP         0.2637
     32 HOG3       -1.0819    3.5819   -7.2075 H         1 ATP         0.4378
     33 H5'1        1.2163   -0.0770   -2.0471 H         1 ATP         0.0340
     34 H5'2        2.4655   -1.3443   -2.1563 H         1 ATP         0.0340
     35 H4'         3.8044   -0.1397   -0.4040 H         1 ATP         0.0910
     36 H3'         1.6764   -1.7639    0.2728 H         1 ATP         0.0656
     37 HO3'        2.2232   -1.2979    2.3953 H         1 ATP         0.4386
     38 H2'        -0.0011    0.0027    0.0003 H         1 ATP         0.0788
     39 HO2'        0.8082    0.1199    2.7232 H         1 ATP         0.4363
     40 H1'         1.7826    1.9024    1.6451 H         1 ATP         0.1225
     41 H8         -1.4030    1.8165    0.9473 H         1 ATP         0.3824
     42 HN62       -1.3197    6.9504   -2.4583 H         1 ATP         0.4018
     43 H2          2.8857    5.5186   -2.1994 H         1 ATP         0.0652
     44 H44         0.9433    6.6815   -2.6502 H         1 ATP         0.4503
     45 H45        -2.4254    3.8199   -0.2108 H         1 ATP         0.5209
@<TRIPOS>BOND
     1    1    2 2
     2    1    3 1
     3    1    4 1
     4    1    8 1
     5    4   32 1
     6    5    6 2
     7    5    7 1
     8    5    8 1
     9    5   12 1
    10    9   10 2
    11    9   11 1
    12    9   12 1
    13    9   13 1
    14   13   14 1
    15   14   15 1
    16   14   33 1
    17   14   34 1
    18   15   16 1
    19   15   17 1
    20   15   35 1
    21   16   21 1
    22   17   18 1
    23   17   19 1
    24   17   36 1
    25   18   37 1
    26   19   20 1
    27   19   21 1
    28   19   38 1
    29   20   39 1
    30   21   22 1
    31   21   40 1
    32   22   23 ar
    33   22   31 ar
    34   23   24 ar
    35   23   41 1
    36   24   25 ar
    37   24   45 1
    38   25   26 ar
    39   25   31 ar
    40   26   27 2
    41   26   28 ar
    42   27   42 1
    43   28   29 ar
    44   28   44 1
    45   29   30 ar
    46   29   43 1
    47   30   31 ar
@<TRIPOS>SUBSTRUCTURE
     1 ATP         1 GROUP 0 A     ****
@<TRIPOS>MOLECULE
[[[3,4-dihydroxy-5-(6-imino-7,8-dihydro-1~{H}-purin-8-ylium-9-yl)tetrahydrofuran-2-yl]methoxy-oxido-phosphoryl]oxy-oxido-phosphoryl] hydrogen phosphate
   45    47     1     0     0
SMALL
USER_CHARGES

@<TRIPOS>ATOM
      1 PG         -3.4559   -3.0801   -1.7782 P.3       1 ATP         1.5631
      2 O1G        -3.9709   -2.2413   -2.9265 O.co2     1 ATP        -0.8806
      3 O2G        -4.0978   -3.0037   -0.4107 O.co2     1 ATP        -0.8806
      4 O3G        -3.4256   -4.6428   -2.2501 O.3       1 ATP        -0.8165
      5 PB         -0.7669   -3.5905   -0.6591 P.3       1 ATP         1.6877
      6 O1B        -1.0806   -3.2501    0.7807 O.co2     1 ATP        -0.8727
      7 O2B        -0.6300   -5.0268   -1.1127 O.co2     1 ATP        -0.8727
      8 O3B        -1.8493   -2.8382   -1.6225 O.3       1 ATP        -0.8330
      9 PA          1.2681   -2.6345   -2.5827 P.3       1 ATP         1.6036
     10 O1A         0.3257   -1.8894   -3.5031 O.co2     1 ATP        -0.9062
     11 O2A         1.8204   -3.9883   -2.9722 O.co2     1 ATP        -0.9062
     12 O3A         0.5690   -2.7687   -1.1120 O.3       1 ATP        -0.8166
     13 O5'         2.5245   -1.6648   -2.1878 O.3       1 ATP        -0.5510
     14 C5'         2.2816   -0.2918   -1.9206 C.3       1 ATP         0.2099
     15 C4'         2.7248    0.0226   -0.4980 C.3       1 ATP         0.0598
     16 O4'         2.4697    1.4219   -0.2462 O.3       1 ATP        -0.3455
     17 C3'         1.9404   -0.7419    0.5596 C.3       1 ATP         0.0742
     18 O3'         2.7418   -0.8086    1.7389 O.3       1 ATP        -0.6025
     19 C2'         0.7477    0.1630    0.7858 C.3       1 ATP         0.1145
     20 O2'         0.1373   -0.0577    2.0407 O.3       1 ATP        -0.5835
     21 C1'         1.3733    1.5427    0.6747 C.3       1 ATP         0.3776
     22 N9          0.4520    2.5240    0.1767 N.pl3     1 ATP        -0.4429
     23 C8          0.5691    3.2215   -0.9485 C.ar      1 ATP         0.2964
     24 N7         -0.4499    4.0551   -1.1342 N.pl3     1 ATP        -0.4957
     25 C5         -1.2618    3.8674   -0.0512 C.ar      1 ATP        -0.1346
     26 C6         -2.5420    4.5007    0.3120 C.ar      1 ATP         0.7213
     27 N6         -3.0874    5.3993   -0.4432 N.2       1 ATP        -0.8215
     28 N1         -3.0494    4.0205    1.5133 N.pl3     1 ATP        -0.8455
     29 C2         -2.3933    3.0527    2.2567 C.ar      1 ATP         0.6477
     30 N3         -1.2611    2.4796    1.9536 N.2       1 ATP        -0.5707
     31 C4         -0.7334    2.9358    0.7669 C.ar      1 ATP         0.2637
     32 HOG3       -3.1124   -5.3177   -1.6107 H         1 ATP         0.4378
     33 H5'1        2.8432    0.3119   -2.6398 H         1 ATP         0.0340
     34 H5'2        1.2128   -0.0927   -2.0428 H         1 ATP         0.0340
     35 H4'         3.8044   -0.1397   -0.4040 H         1 ATP         0.0910
     36 H3'         1.6764   -1.7639    0.2728 H         1 ATP         0.0656
     37 HO3'        3.5554   -1.2733    1.4914 H         1 ATP         0.4386
     38 H2'        -0.0011    0.0027    0.0003 H         1 ATP         0.0788
     39 HO2'       -0.1563   -0.9855    2.0596 H         1 ATP         0.4363
     40 H1'         1.7826    1.9024    1.6451 H         1 ATP         0.1225
     41 H8          1.3912    3.1285   -1.6365 H         1 ATP         0.3824
     42 HN62       -3.9637    5.7083   -0.0142 H         1 ATP         0.4018
     43 H2         -2.9317    2.7866    3.1796 H         1 ATP         0.0652
     44 H44        -3.9307    4.3923    1.8558 H         1 ATP         0.4503
     45 H45        -0.5835    4.6857   -1.9122 H         1 ATP         0.5209
@<TRIPOS>BOND
     1    1    2 2
     2    1    3 1
     3    1    4 1
     4    1    8 1
     5    4   32 1
     6    5    6 2
     7    5    7 1
     8    5    8 1
     9    5   12 1
    10    9   10 2
    11    9   11 1
    12    9   12 1
    13    9   13 1
    14   13   14 1
    15   14   15 1
    16   14   33 1
    17   14   34 1
    18   15   16 1
    19   15   17 1
    20   15   35 1
    21   16   21 1
    22   17   18 1
    23   17   19 1
    24   17   36 1
    25   18   37 1
    26   19   20 1
    27   19   21 1
    28   19   38 1
    29   20   39 1
    30   21   22 1
    31   21   40 1
    32   22   23 ar
    33   22   31 ar
    34   23   24 ar
    35   23   41 1
    36   24   25 ar
    37   24   45 1
    38   25   26 ar
    39   25   31 ar
    40   26   27 2
    41   26   28 ar
    42   27   42 1
    43   28   29 ar
    44   28   44 1
    45   29   30 ar
    46   29   43 1
    47   30   31 ar
@<TRIPOS>SUBSTRUCTURE
     1 ATP         1 GROUP 0 A     ****
@<TRIPOS>MOLECULE
[[[3,4-dihydroxy-5-(6-imino-7,8-dihydro-1~{H}-purin-8-ylium-9-yl)tetrahydrofuran-2-yl]methoxy-oxido-phosphoryl]oxy-oxido-phosphoryl] hydrogen phosphate
   45    47     1     0     0
SMALL
USER_CHARGES

@<TRIPOS>ATOM
      1 PG         -4.8840   -5.5464   -2.3360 P.3       1 ATP         1.5631
      2 O1G        -4.6441   -4.7509   -3.5998 O.co2     1 ATP        -0.8806
      3 O2G        -6.1010   -5.2897   -1.4754 O.co2     1 ATP        -0.8806
      4 O3G        -4.8372   -7.1358   -2.7068 O.3       1 ATP        -0.8165
      5 PB         -1.9952   -5.8152   -1.7653 P.3       1 ATP         1.6877
      6 O1B        -1.8756   -7.2997   -2.0290 O.co2     1 ATP        -0.8727
      7 O2B        -1.4969   -4.7988   -2.7683 O.co2     1 ATP        -0.8727
      8 O3B        -3.5490   -5.4721   -1.4001 O.3       1 ATP        -0.8330
      9 PA         -1.6226   -6.1545    1.1504 P.3       1 ATP         1.6036
     10 O1A        -1.1867   -7.6034    1.1200 O.co2     1 ATP        -0.9062
     11 O2A        -3.0262   -5.7777    1.5721 O.co2     1 ATP        -0.9062
     12 O3A        -1.3290   -5.4867   -0.3116 O.3       1 ATP        -0.8166
     13 O5'        -0.5687   -5.2869    2.0510 O.3       1 ATP        -0.5510
     14 C5'        -0.7840   -3.8935    2.2172 C.3       1 ATP         0.2099
     15 C4'        -0.0724   -3.1466    1.1027 C.3       1 ATP         0.0598
     16 O4'        -0.8674   -3.1929   -0.0945 O.3       1 ATP        -0.3455
     17 C3'         0.1338   -1.6715    1.4027 C.3       1 ATP         0.0742
     18 O3'         1.2893   -1.4445    2.1808 O.3       1 ATP        -0.6025
     19 C2'         0.2158   -1.0724    0.0128 C.3       1 ATP         0.1145
     20 O2'         1.5141   -1.2448   -0.5513 O.3       1 ATP        -0.5835
     21 C1'        -0.7897   -1.9176   -0.7583 C.3       1 ATP         0.3776
     22 N9         -2.1040   -1.3333   -0.7704 N.pl3     1 ATP        -0.4429
     23 C8         -3.2114   -1.8635   -0.2619 C.ar      1 ATP         0.2964
     24 N7         -4.2711   -1.0786   -0.4314 N.pl3     1 ATP        -0.4957
     25 C5         -3.7955    0.0193   -1.0917 C.ar      1 ATP        -0.1346
     26 C6         -4.4862    1.2344   -1.5586 C.ar      1 ATP         0.7213
     27 N6         -5.7554    1.4030   -1.3689 N.2       1 ATP        -0.8215
     28 N1         -3.6267    2.1218   -2.1949 N.pl3     1 ATP        -0.8455
     29 C2         -2.2761    1.8558   -2.3521 C.ar      1 ATP         0.6477
     30 N3         -1.6453    0.7881   -1.9466 N.2       1 ATP        -0.5707
     31 C4         -2.4722   -0.1108   -1.3117 C.ar      1 ATP         0.2637
     32 HOG3       -4.9764   -7.7875   -1.9869 H         1 ATP         0.4378
     33 H5'1       -1.8598   -3.6968    2.1850 H         1 ATP         0.0340
     34 H5'2       -0.3933   -3.5903    3.1931 H         1 ATP         0.0340
     35 H4'         0.8874   -3.6466    0.8805 H         1 ATP         0.0910
     36 H3'        -0.7376   -1.2333    1.9867 H         1 ATP         0.0656
     37 HO3'        1.3408   -0.4870    2.3219 H         1 ATP         0.4386
     38 H2'        -0.0384   -0.0310    0.0096 H         1 ATP         0.0788
     39 HO2'        2.1463   -0.7958    0.0370 H         1 ATP         0.4363
     40 H1'        -0.4769   -2.1002   -1.8093 H         1 ATP         0.1225
     41 H8         -3.2547   -2.8183    0.2325 H         1 ATP         0.3824
     42 HN62       -6.0352    2.3041   -1.7656 H         1 ATP         0.4018
     43 H2         -1.7412    2.6624   -2.8773 H         1 ATP         0.0652
     44 H44        -4.0029    2.9939   -2.5557 H         1 ATP         0.4503
     45 H45        -5.2179   -1.2649   -0.1322 H         1 ATP         0.5209
@<TRIPOS>BOND
     1    1    2 2
     2    1    3 1
     3    1    4 1
     4    1    8 1
     5    4   32 1
     6    5    6 2
     7    5    7 1
     8    5    8 1
     9    5   12 1
    10    9   10 2
    11    9   11 1
    12    9   12 1
    13    9   13 1
    14   13   14 1
    15   14   15 1
    16   14   33 1
    17   14   34 1
    18   15   16 1
    19   15   17 1
    20   15   35 1
    21   16   21 1
    22   17   18 1
    23   17   19 1
    24   17   36 1
    25   18   37 1
    26   19   20 1
    27   19   21 1
    28   19   38 1
    29   20   39 1
    30   21   22 1
    31   21   40 1
    32   22   23 ar
    33   22   31 ar
    34   23   24 ar
    35   23   41 1
    36   24   25 ar
    37   24   45 1
    38   25   26 ar
    39   25   31 ar
    40   26   27 2
    41   26   28 ar
    42   27   42 1
    43   28   29 ar
    44   28   44 1
    45   29   30 ar
    46   29   43 1
    47   30   31 ar
@<TRIPOS>SUBSTRUCTURE
     1 ATP         1 GROUP 0 A     ****
@<TRIPOS>MOLECULE
[[[3,4-dihydroxy-5-(6-imino-7,8-dihydro-1~{H}-purin-8-ylium-9-yl)tetrahydrofuran-2-yl]methoxy-oxido-phosphoryl]oxy-oxido-phosphoryl] hydrogen phosphate
   45    47     1     0     0
SMALL
USER_CHARGES

@<TRIPOS>ATOM
      1 PG          5.5880    5.8422   -3.1056 P.3       1 ATP         1.5631
      2 O1G         4.5450    6.8489   -3.5368 O.co2     1 ATP        -0.8806
      3 O2G         6.8106    5.5770   -3.9557 O.co2     1 ATP        -0.8806
      4 O3G         6.0790    6.2189   -1.5947 O.3       1 ATP        -0.8165
      5 PB          3.5940    4.0992   -1.7907 P.3       1 ATP         1.6877
      6 O1B         4.0244    4.3440   -0.3616 O.co2     1 ATP        -0.8727
      7 O2B         2.3526    4.7512   -2.3575 O.co2     1 ATP        -0.8727
      8 O3B         4.8527    4.4222   -2.7791 O.3       1 ATP        -0.8330
      9 PA          3.2344    1.6562   -3.4210 P.3       1 ATP         1.6036
     10 O1A         4.4053    1.8754   -4.3543 O.co2     1 ATP        -0.9062
     11 O2A         1.8186    1.9327   -3.8780 O.co2     1 ATP        -0.9062
     12 O3A         3.5002    2.4887   -2.0403 O.3       1 ATP        -0.8166
     13 O5'         3.2903    0.1346   -2.8241 O.3       1 ATP        -0.5510
     14 C5'         2.2816   -0.2918   -1.9206 C.3       1 ATP         0.2099
     15 C4'         2.7248    0.0226   -0.4980 C.3       1 ATP         0.0598
     16 O4'         2.4697    1.4219   -0.2462 O.3       1 ATP        -0.3455
     17 C3'         1.9404   -0.7419    0.5596 C.3       1 ATP         0.0742
     18 O3'         2.7418   -0.8086    1.7389 O.3       1 ATP        -0.6025
     19 C2'         0.7477    0.1630    0.7858 C.3       1 ATP         0.1145
     20 O2'         0.1373   -0.0577    2.0407 O.3       1 ATP        -0.5835
     21 C1'         1.3733    1.5427    0.6747 C.3       1 ATP         0.3776
     22 N9          0.4520    2.5240    0.1767 N.pl3     1 ATP        -0.4429
     23 C8          0.2216    2.8192   -1.0985 C.ar      1 ATP         0.2964
     24 N7         -0.6906    3.7763   -1.2384 N.pl3     1 ATP        -0.4957
     25 C5         -1.0575    4.1037    0.0366 C.ar      1 ATP        -0.1346
     26 C6         -2.0291    5.0943    0.5330 C.ar      1 ATP         0.7213
     27 N6         -2.7093    5.8371   -0.2800 N.2       1 ATP        -0.8215
     28 N1         -2.1051    5.1136    1.9204 N.pl3     1 ATP        -0.8455
     29 C2         -1.3354    4.2774    2.7129 C.ar      1 ATP         0.6477
     30 N3         -0.4707    3.3945    2.2944 N.2       1 ATP        -0.5707
     31 C4         -0.3734    3.3525    0.9220 C.ar      1 ATP         0.2637
     32 HOG3        6.7600    5.6543   -1.1706 H         1 ATP         0.4378
     33 H5'1        1.3514    0.2330   -2.1577 H         1 ATP         0.0340
     34 H5'2        2.1280   -1.3678   -2.0460 H         1 ATP         0.0340
     35 H4'         3.8044   -0.1397   -0.4040 H         1 ATP         0.0910
     36 H3'         1.6764   -1.7639    0.2728 H         1 ATP         0.0656
     37 HO3'        2.2232   -1.2979    2.3953 H         1 ATP         0.4386
     38 H2'        -0.0011    0.0027    0.0003 H         1 ATP         0.0788
     39 HO2'       -0.1563   -0.9855    2.0596 H         1 ATP         0.4363
     40 H1'         1.7826    1.9024    1.6451 H         1 ATP         0.1225
     41 H8          0.7125    2.3429   -1.9292 H         1 ATP         0.3824
     42 HN62       -3.3217    6.4517    0.2629 H         1 ATP         0.4018
     43 H2         -1.5188    4.4223    3.7890 H         1 ATP         0.0652
     44 H44        -2.7470    5.7626    2.3665 H         1 ATP         0.4503
     45 H45        -1.0305    4.1680   -2.1054 H         1 ATP         0.5209
@<TRIPOS>BOND
     1    1    2 2
     2    1    3 1
     3    1    4 1
     4    1    8 1
     5    4   32 1
     6    5    6 2
     7    5    7 1
     8    5    8 1
     9    5   12 1
    10    9   10 2
    11    9   11 1
    12    9   12 1
    13    9   13 1
    14   13   14 1
    15   14   15 1
    16   14   33 1
    17   14   34 1
    18   15   16 1
    19   15   17 1
    20   15   35 1
    21   16   21 1
    22   17   18 1
    23   17   19 1
    24   17   36 1
    25   18   37 1
    26   19   20 1
    27   19   21 1
    28   19   38 1
    29   20   39 1
    30   21   22 1
    31   21   40 1
    32   22   23 ar
    33   22   31 ar
    34   23   24 ar
    35   23   41 1
    36   24   25 ar
    37   24   45 1
    38   25   26 ar
    39   25   31 ar
    40   26   27 2
    41   26   28 ar
    42   27   42 1
    43   28   29 ar
    44   28   44 1
    45   29   30 ar
    46   29   43 1
    47   30   31 ar
@<TRIPOS>SUBSTRUCTURE
     1 ATP         1 GROUP 0 A     ****
@<TRIPOS>MOLECULE
[[[3,4-dihydroxy-5-(6-imino-7,8-dihydro-1~{H}-purin-8-ylium-9-yl)tetrahydrofuran-2-yl]methoxy-oxido-phosphoryl]oxy-oxido-phosphoryl] hydrogen phosphate
   45    47     1     0     0
SMALL
USER_CHARGES

@<TRIPOS>ATOM
      1 PG          4.0920    5.3149    0.8584 P.3       1 ATP         1.5631
      2 O1G         4.4834    4.7591    2.2094 O.co2     1 ATP        -0.8806
      3 O2G         2.9369    6.2816    0.7206 O.co2     1 ATP        -0.8806
      4 O3G         5.4129    5.9841    0.1704 O.3       1 ATP        -0.8165
      5 PB          3.5940    4.0992   -1.7907 P.3       1 ATP         1.6877
      6 O1B         2.2320    4.7083   -2.0384 O.co2     1 ATP        -0.8727
      7 O2B         4.8272    4.6274   -2.4890 O.co2     1 ATP        -0.8727
      8 O3B         3.8725    4.0767   -0.1821 O.3       1 ATP        -0.8330
      9 PA          3.2344    1.6562   -3.4210 P.3       1 ATP         1.6036
     10 O1A         4.4053    1.8754   -4.3543 O.co2     1 ATP        -0.9062
     11 O2A         1.8186    1.9327   -3.8780 O.co2     1 ATP        -0.9062
     12 O3A         3.5002    2.4887   -2.0403 O.3       1 ATP        -0.8166
     13 O5'         3.2903    0.1346   -2.8241 O.3       1 ATP        -0.5510
     14 C5'         2.2816   -0.2918   -1.9206 C.3       1 ATP         0.2099
     15 C4'         2.7248    0.0226   -0.4980 C.3       1 ATP         0.0598
     16 O4'         2.4697    1.4219   -0.2462 O.3       1 ATP        -0.3455
     17 C3'         1.9404   -0.7419    0.5596 C.3       1 ATP         0.0742
     18 O3'         2.7418   -0.8086    1.7389 O.3       1 ATP        -0.6025
     19 C2'         0.7477    0.1630    0.7858 C.3       1 ATP         0.1145
     20 O2'         0.1373   -0.0577    2.0407 O.3       1 ATP        -0.5835
     21 C1'         1.3733    1.5427    0.6747 C.3       1 ATP         0.3776
     22 N9          0.4520    2.5240    0.1767 N.pl3     1 ATP        -0.4429
     23 C8          0.2216    2.8192   -1.0985 C.ar      1 ATP         0.2964
     24 N7         -0.6906    3.7763   -1.2384 N.pl3     1 ATP        -0.4957
     25 C5         -1.0575    4.1037    0.0366 C.ar      1 ATP        -0.1346
     26 C6         -2.0291    5.0943    0.5330 C.ar      1 ATP         0.7213
     27 N6         -2.7093    5.8371   -0.2800 N.2       1 ATP        -0.8215
     28 N1         -2.1051    5.1136    1.9204 N.pl3     1 ATP        -0.8455
     29 C2         -1.3354    4.2774    2.7129 C.ar      1 ATP         0.6477
     30 N3         -0.4707    3.3945    2.2944 N.2       1 ATP        -0.5707
     31 C4         -0.3734    3.3525    0.9220 C.ar      1 ATP         0.2637
     32 HOG3        5.3213    6.3914   -0.7173 H         1 ATP         0.4378
     33 H5'1        1.3514    0.2330   -2.1577 H         1 ATP         0.0340
     34 H5'2        2.1280   -1.3678   -2.0460 H         1 ATP         0.0340
     35 H4'         3.8044   -0.1397   -0.4040 H         1 ATP         0.0910
     36 H3'         1.6764   -1.7639    0.2728 H         1 ATP         0.0656
     37 HO3'        2.2232   -1.2979    2.3953 H         1 ATP         0.4386
     38 H2'        -0.0011    0.0027    0.0003 H         1 ATP         0.0788
     39 HO2'        0.8082    0.1199    2.7232 H         1 ATP         0.4363
     40 H1'         1.7826    1.9024    1.6451 H         1 ATP         0.1225
     41 H8          0.7125    2.3429   -1.9292 H         1 ATP         0.3824
     42 HN62       -3.3217    6.4517    0.2629 H         1 ATP         0.4018
     43 H2         -1.5188    4.4223    3.7890 H         1 ATP         0.0652
     44 H44        -2.7470    5.7626    2.3665 H         1 ATP         0.4503
     45 H45        -1.0305    4.1680   -2.1054 H         1 ATP         0.5209
@<TRIPOS>BOND
     1    1    2 2
     2    1    3 1
     3    1    4 1
     4    1    8 1
     5    4   32 1
     6    5    6 2
     7    5    7 1
     8    5    8 1
     9    5   12 1
    10    9   10 2
    11    9   11 1
    12    9   12 1
    13    9   13 1
    14   13   14 1
    15   14   15 1
    16   14   33 1
    17   14   34 1
    18   15   16 1
    19   15   17 1
    20   15   35 1
    21   16   21 1
    22   17   18 1
    23   17   19 1
    24   17   36 1
    25   18   37 1
    26   19   20 1
    27   19   21 1
    28   19   38 1
    29   20   39 1
    30   21   22 1
    31   21   40 1
    32   22   23 ar
    33   22   31 ar
    34   23   24 ar
    35   23   41 1
    36   24   25 ar
    37   24   45 1
    38   25   26 ar
    39   25   31 ar
    40   26   27 2
    41   26   28 ar
    42   27   42 1
    43   28   29 ar
    44   28   44 1
    45   29   30 ar
    46   29   43 1
    47   30   31 ar
@<TRIPOS>SUBSTRUCTURE
     1 ATP         1 GROUP 0 A     ****
@<TRIPOS>MOLECULE
[[[3,4-dihydroxy-5-(6-imino-7,8-dihydro-1~{H}-purin-8-ylium-9-yl)tetrahydrofuran-2-yl]methoxy-oxido-phosphoryl]oxy-oxido-phosphoryl] hydrogen phosphate
   45    47     1     0     0
SMALL
USER_CHARGES

@<TRIPOS>ATOM
      1 PG         -1.0618   -6.5179   -0.9540 P.3       1 ATP         1.5631
      2 O1G        -0.1133   -7.6337   -1.3317 O.co2     1 ATP        -0.8806
      3 O2G        -2.4186   -6.3952   -1.6112 O.co2     1 ATP        -0.8806
      4 O3G        -1.2702   -6.5400    0.6652 O.3       1 ATP        -0.8165
      5 PB         -0.7669   -3.5905   -0.6591 P.3       1 ATP         1.6877
      6 O1B        -1.9146   -3.1817   -1.5553 O.co2     1 ATP        -0.8727
      7 O2B        -0.8881   -3.5272    0.8471 O.co2     1 ATP        -0.8727
      8 O3B        -0.2808   -5.0905   -1.0826 O.3       1 ATP        -0.8330
      9 PA          1.2681   -2.6345   -2.5827 P.3       1 ATP         1.6036
     10 O1A         0.3257   -1.8894   -3.5031 O.co2     1 ATP        -0.9062
     11 O2A         1.8204   -3.9883   -2.9722 O.co2     1 ATP        -0.9062
     12 O3A         0.5690   -2.7687   -1.1120 O.3       1 ATP        -0.8166
     13 O5'         2.5245   -1.6648   -2.1878 O.3       1 ATP        -0.5510
     14 C5'         2.2816   -0.2918   -1.9206 C.3       1 ATP         0.2099
     15 C4'         2.7248    0.0226   -0.4980 C.3       1 ATP         0.0598
     16 O4'         2.4697    1.4219   -0.2462 O.3       1 ATP        -0.3455
     17 C3'         1.9404   -0.7419    0.5596 C.3       1 ATP         0.0742
     18 O3'         2.7418   -0.8086    1.7389 O.3       1 ATP        -0.6025
     19 C2'         0.7477    0.1630    0.7858 C.3       1 ATP         0.1145
     20 O2'         0.1373   -0.0577    2.0407 O.3       1 ATP        -0.5835
     21 C1'         1.3733    1.5427    0.6747 C.3       1 ATP         0.3776
     22 N9          0.4520    2.5240    0.1767 N.pl3     1 ATP        -0.4429
     23 C8          0.5691    3.2215   -0.9485 C.ar      1 ATP         0.2964
     24 N7         -0.4499    4.0551   -1.1342 N.pl3     1 ATP        -0.4957
     25 C5         -1.2618    3.8674   -0.0512 C.ar      1 ATP        -0.1346
     26 C6         -2.5420    4.5007    0.3120 C.ar      1 ATP         0.7213
     27 N6         -3.0874    5.3993   -0.4432 N.2       1 ATP        -0.8215
     28 N1         -3.0494    4.0205    1.5133 N.pl3     1 ATP        -0.8455
     29 C2         -2.3933    3.0527    2.2567 C.ar      1 ATP         0.6477
     30 N3         -1.2611    2.4796    1.9536 N.2       1 ATP        -0.5707
     31 C4         -0.7334    2.9358    0.7669 C.ar      1 ATP         0.2637
     32 HOG3       -1.8635   -5.8712    1.0688 H         1 ATP         0.4378
     33 H5'1        2.8432    0.3119   -2.6398 H         1 ATP         0.0340
     34 H5'2        1.2128   -0.0927   -2.0428 H         1 ATP         0.0340
     35 H4'         3.8044   -0.1397   -0.4040 H         1 ATP         0.0910
     36 H3'         1.6764   -1.7639    0.2728 H         1 ATP         0.0656
     37 HO3'        3.5554   -1.2733    1.4914 H         1 ATP         0.4386
     38 H2'        -0.0011    0.0027    0.0003 H         1 ATP         0.0788
     39 HO2'       -0.1563   -0.9855    2.0596 H         1 ATP         0.4363
     40 H1'         1.7826    1.9024    1.6451 H         1 ATP         0.1225
     41 H8          1.3912    3.1285   -1.6365 H         1 ATP         0.3824
     42 HN62       -3.9637    5.7083   -0.0142 H         1 ATP         0.4018
     43 H2         -2.9317    2.7866    3.1796 H         1 ATP         0.0652
     44 H44        -3.9307    4.3923    1.8558 H         1 ATP         0.4503
     45 H45        -0.5835    4.6857   -1.9122 H         1 ATP         0.5209
@<TRIPOS>BOND
     1    1    2 2
     2    1    3 1
     3    1    4 1
     4    1    8 1
     5    4   32 1
     6    5    6 2
     7    5    7 1
     8    5    8 1
     9    5   12 1
    10    9   10 2
    11    9   11 1
    12    9   12 1
    13    9   13 1
    14   13   14 1
    15   14   15 1
    16   14   33 1
    17   14   34 1
    18   15   16 1
    19   15   17 1
    20   15   35 1
    21   16   21 1
    22   17   18 1
    23   17   19 1
    24   17   36 1
    25   18   37 1
    26   19   20 1
    27   19   21 1
    28   19   38 1
    29   20   39 1
    30   21   22 1
    31   21   40 1
    32   22   23 ar
    33   22   31 ar
    34   23   24 ar
    35   23   41 1
    36   24   25 ar
    37   24   45 1
    38   25   26 ar
    39   25   31 ar
    40   26   27 2
    41   26   28 ar
    42   27   42 1
    43   28   29 ar
    44   28   44 1
    45   29   30 ar
    46   29   43 1
    47   30   31 ar
@<TRIPOS>SUBSTRUCTURE
     1 ATP         1 GROUP 0 A     ****
@<TRIPOS>MOLECULE
[[[3,4-dihydroxy-5-(6-imino-7,8-dihydro-1~{H}-purin-8-ylium-9-yl)tetrahydrofuran-2-yl]methoxy-oxido-phosphoryl]oxy-oxido-phosphoryl] hydrogen phosphate
   45    47     1     0     0
SMALL
USER_CHARGES

@<TRIPOS>ATOM
      1 PG          2.6193    4.6110   -7.0011 P.3       1 ATP         1.5631
      2 O1G         1.5967    4.2495   -8.0552 O.co2     1 ATP        -0.8806
      3 O2G         4.0703    4.8289   -7.3682 O.co2     1 ATP        -0.8806
      4 O3G         2.0867    5.9246   -6.1907 O.3       1 ATP        -0.8165
      5 PB          1.2543    3.0325   -4.9061 P.3       1 ATP         1.6877
      6 O1B         0.7746    4.1919   -4.0616 O.co2     1 ATP        -0.8727
      7 O2B         0.3061    2.2767   -5.8101 O.co2     1 ATP        -0.8727
      8 O3B         2.5384    3.5229   -5.7873 O.3       1 ATP        -0.8330
      9 PA          2.8621    0.6170   -4.3270 P.3       1 ATP         1.6036
     10 O1A         4.0995    1.0217   -5.0986 O.co2     1 ATP        -0.9062
     11 O2A         1.8962   -0.4011   -4.8927 O.co2     1 ATP        -0.9062
     12 O3A         2.0209    1.9632   -3.9398 O.3       1 ATP        -0.8166
     13 O5'         3.2903    0.1346   -2.8241 O.3       1 ATP        -0.5510
     14 C5'         2.2816   -0.2918   -1.9206 C.3       1 ATP         0.2099
     15 C4'         2.7248    0.0226   -0.4980 C.3       1 ATP         0.0598
     16 O4'         2.4697    1.4219   -0.2462 O.3       1 ATP        -0.3455
     17 C3'         1.9404   -0.7419    0.5596 C.3       1 ATP         0.0742
     18 O3'         2.7418   -0.8086    1.7389 O.3       1 ATP        -0.6025
     19 C2'         0.7477    0.1630    0.7858 C.3       1 ATP         0.1145
     20 O2'         0.1373   -0.0577    2.0407 O.3       1 ATP        -0.5835
     21 C1'         1.3733    1.5427    0.6747 C.3       1 ATP         0.3776
     22 N9          0.4520    2.5240    0.1767 N.pl3     1 ATP        -0.4429
     23 C8         -0.8620    2.5492    0.3743 C.ar      1 ATP         0.2964
     24 N7         -1.4419    3.5886   -0.2183 N.pl3     1 ATP        -0.4957
     25 C5         -0.4215    4.2614   -0.8294 C.ar      1 ATP        -0.1346
     26 C6         -0.4310    5.4918   -1.6405 C.ar      1 ATP         0.7213
     27 N6         -1.5302    6.1308   -1.8826 N.2       1 ATP        -0.8215
     28 N1          0.8382    5.8461   -2.0817 N.pl3     1 ATP        -0.8455
     29 C2          1.9625    5.0982   -1.7709 C.ar      1 ATP         0.6477
     30 N3          1.9930    4.0077   -1.0554 N.2       1 ATP        -0.5707
     31 C4          0.7483    3.6314   -0.6038 C.ar      1 ATP         0.2637
     32 HOG3        2.6438    6.2852   -5.4683 H         1 ATP         0.4378
     33 H5'1        1.3514    0.2330   -2.1577 H         1 ATP         0.0340
     34 H5'2        2.1280   -1.3678   -2.0460 H         1 ATP         0.0340
     35 H4'         3.8044   -0.1397   -0.4040 H         1 ATP         0.0910
     36 H3'         1.6764   -1.7639    0.2728 H         1 ATP         0.0656
     37 HO3'        3.5554   -1.2733    1.4914 H         1 ATP         0.4386
     38 H2'        -0.0011    0.0027    0.0003 H         1 ATP         0.0788
     39 HO2'        0.8082    0.1199    2.7232 H         1 ATP         0.4363
     40 H1'         1.7826    1.9024    1.6451 H         1 ATP         0.1225
     41 H8         -1.4030    1.8165    0.9473 H         1 ATP         0.3824
     42 HN62       -1.3197    6.9504   -2.4583 H         1 ATP         0.4018
     43 H2          2.8857    5.5186   -2.1994 H         1 ATP         0.0652
     44 H44         0.9433    6.6815   -2.6502 H         1 ATP         0.4503
     45 H45        -2.4254    3.8199   -0.2108 H         1 ATP         0.5209
@<TRIPOS>BOND
     1    1    2 2
     2    1    3 1
     3    1    4 1
     4    1    8 1
     5    4   32 1
     6    5    6 2
     7    5    7 1
     8    5    8 1
     9    5   12 1
    10    9   10 2
    11    9   11 1
    12    9   12 1
    13    9   13 1
    14   13   14 1
    15   14   15 1
    16   14   33 1
    17   14   34 1
    18   15   16 1
    19   15   17 1
    20   15   35 1
    21   16   21 1
    22   17   18 1
    23   17   19 1
    24   17   36 1
    25   18   37 1
    26   19   20 1
    27   19   21 1
    28   19   38 1
    29   20   39 1
    30   21   22 1
    31   21   40 1
    32   22   23 ar
    33   22   31 ar
    34   23   24 ar
    35   23   41 1
    36   24   25 ar
    37   24   45 1
    38   25   26 ar
    39   25   31 ar
    40   26   27 2
    41   26   28 ar
    42   27   42 1
    43   28   29 ar
    44   28   44 1
    45   29   30 ar
    46   29   43 1
    47   30   31 ar
@<TRIPOS>SUBSTRUCTURE
     1 ATP         1 GROUP 0 A     ****
@<TRIPOS>MOLECULE
[[[3,4-dihydroxy-5-(6-imino-7,8-dihydro-1~{H}-purin-8-ylium-9-yl)tetrahydrofuran-2-yl]methoxy-oxido-phosphoryl]oxy-oxido-phosphoryl] hydrogen phosphate
   45    47     1     0     0
SMALL
USER_CHARGES

@<TRIPOS>ATOM
      1 PG          0.6099    4.8836   -6.4354 P.3       1 ATP         1.5631
      2 O1G         1.8803    5.3559   -7.1065 O.co2     1 ATP        -0.8806
      3 O2G        -0.3437    5.8682   -5.7958 O.co2     1 ATP        -0.8806
      4 O3G        -0.2266    3.9660   -7.4957 O.3       1 ATP        -0.8165
      5 PB          0.0011    2.7711   -4.4580 P.3       1 ATP         1.6877
      6 O1B        -0.7448    3.6342   -3.4650 O.co2     1 ATP        -0.8727
      7 O2B        -0.7347    1.8320   -5.3876 O.co2     1 ATP        -0.8727
      8 O3B         0.9827    3.7255   -5.3475 O.3       1 ATP        -0.8330
      9 PA          2.3336    0.9636   -4.2390 P.3       1 ATP         1.6036
     10 O1A         3.3077    1.8126   -5.0268 O.co2     1 ATP        -0.9062
     11 O2A         1.6934   -0.2581   -4.8612 O.co2     1 ATP        -0.9062
     12 O3A         1.1473    1.9262   -3.6595 O.3       1 ATP        -0.8166
     13 O5'         3.0213    0.5153   -2.8245 O.3       1 ATP        -0.5510
     14 C5'         2.2816   -0.2918   -1.9206 C.3       1 ATP         0.2099
     15 C4'         2.7248    0.0226   -0.4980 C.3       1 ATP         0.0598
     16 O4'         2.4697    1.4219   -0.2462 O.3       1 ATP        -0.3455
     17 C3'         1.9404   -0.7419    0.5596 C.3       1 ATP         0.0742
     18 O3'         2.7418   -0.8086    1.7389 O.3       1 ATP        -0.6025
     19 C2'         0.7477    0.1630    0.7858 C.3       1 ATP         0.1145
     20 O2'         0.1373   -0.0577    2.0407 O.3       1 ATP        -0.5835
     21 C1'         1.3733    1.5427    0.6747 C.3       1 ATP         0.3776
     22 N9          0.4520    2.5240    0.1767 N.pl3     1 ATP        -0.4429
     23 C8          0.5691    3.2215   -0.9485 C.ar      1 ATP         0.2964
     24 N7         -0.4499    4.0551   -1.1342 N.pl3     1 ATP        -0.4957
     25 C5         -1.2618    3.8674   -0.0512 C.ar      1 ATP        -0.1346
     26 C6         -2.5420    4.5007    0.3120 C.ar      1 ATP         0.7213
     27 N6         -3.0874    5.3993   -0.4432 N.2       1 ATP        -0.8215
     28 N1         -3.0494    4.0205    1.5133 N.pl3     1 ATP        -0.8455
     29 C2         -2.3933    3.0527    2.2567 C.ar      1 ATP         0.6477
     30 N3         -1.2611    2.4796    1.9536 N.2       1 ATP        -0.5707
     31 C4         -0.7334    2.9358    0.7669 C.ar      1 ATP         0.2637
     32 HOG3       -1.0819    3.5819   -7.2075 H         1 ATP         0.4378
     33 H5'1        1.2163   -0.0770   -2.0471 H         1 ATP         0.0340
     34 H5'2        2.4655   -1.3443   -2.1563 H         1 ATP         0.0340
     35 H4'         3.8044   -0.1397   -0.4040 H         1 ATP         0.0910
     36 H3'         1.6764   -1.7639    0.2728 H         1 ATP         0.0656
     37 HO3'        2.2232   -1.2979    2.3953 H         1 ATP         0.4386
     38 H2'        -0.0011    0.0027    0.0003 H         1 ATP         0.0788
     39 HO2'       -0.1563   -0.9855    2.0596 H         1 ATP         0.4363
     40 H1'         1.7826    1.9024    1.6451 H         1 ATP         0.1225
     41 H8          1.3912    3.1285   -1.6365 H         1 ATP         0.3824
     42 HN62       -3.9637    5.7083   -0.0142 H         1 ATP         0.4018
     43 H2         -2.9317    2.7866    3.1796 H         1 ATP         0.0652
     44 H44        -3.9307    4.3923    1.8558 H         1 ATP         0.4503
     45 H45        -0.5835    4.6857   -1.9122 H         1 ATP         0.5209
@<TRIPOS>BOND
     1    1    2 2
     2    1    3 1
     3    1    4 1
     4    1    8 1
     5    4   32 1
     6    5    6 2
     7    5    7 1
     8    5    8 1
     9    5   12 1
    10    9   10 2
    11    9   11 1
    12    9   12 1
    13    9   13 1
    14   13   14 1
    15   14   15 1
    16   14   33 1
    17   14   34 1
    18   15   16 1
    19   15   17 1
    20   15   35 1
    21   16   21 1
    22   17   18 1
    23   17   19 1
    24   17   36 1
    25   18   37 1
    26   19   20 1
    27   19   21 1
    28   19   38 1
    29   20   39 1
    30   21   22 1
    31   21   40 1
    32   22   23 ar
    33   22   31 ar
    34   23   24 ar
    35   23   41 1
    36   24   25 ar
    37   24   45 1
    38   25   26 ar
    39   25   31 ar
    40   26   27 2
    41   26   28 ar
    42   27   42 1
    43   28   29 ar
    44   28   44 1
    45   29   30 ar
    46   29   43 1
    47   30   31 ar
@<TRIPOS>SUBSTRUCTURE
     1 ATP         1 GROUP 0 A     ****
@<TRIPOS>MOLECULE
[[[3,4-dihydroxy-5-(6-imino-7,8-dihydro-1~{H}-purin-8-ylium-9-yl)tetrahydrofuran-2-yl]methoxy-oxido-phosphoryl]oxy-oxido-phosphoryl] hydrogen phosphate
   45    47     1     0     0
SMALL
USER_CHARGES

@<TRIPOS>ATOM
      1 PG         -0.4454   -1.5874   -5.8908 P.3       1 ATP         1.5631
      2 O1G        -0.9253   -0.3355   -5.1908 O.co2     1 ATP        -0.8806
      3 O2G        -0.4234   -2.9189   -5.1737 O.co2     1 ATP        -0.8806
      4 O3G        -1.2867   -1.7601   -7.2794 O.3       1 ATP        -0.8165
      5 PB          2.4557   -1.0249   -5.7856 P.3       1 ATP         1.6877
      6 O1B         2.7110   -2.1355   -4.7911 O.co2     1 ATP        -0.8727
      7 O2B         3.4846   -0.6584   -6.8318 O.co2     1 ATP        -0.8727
      8 O3B         1.0299   -1.3063   -6.5297 O.3       1 ATP        -0.8330
      9 PA          2.9232    1.2546   -3.9579 P.3       1 ATP         1.6036
     10 O1A         2.0227    2.3093   -3.3521 O.co2     1 ATP        -0.9062
     11 O2A         4.2011    1.6439   -4.6686 O.co2     1 ATP        -0.9062
     12 O3A         2.0371    0.3242   -4.9674 O.3       1 ATP        -0.8166
     13 O5'         3.2903    0.1346   -2.8241 O.3       1 ATP        -0.5510
     14 C5'         2.2816   -0.2918   -1.9206 C.3       1 ATP         0.2099
     15 C4'         2.7248    0.0226   -0.4980 C.3       1 ATP         0.0598
     16 O4'         2.4697    1.4219   -0.2462 O.3       1 ATP        -0.3455
     17 C3'         1.9404   -0.7419    0.5596 C.3       1 ATP         0.0742
     18 O3'         2.7418   -0.8086    1.7389 O.3       1 ATP        -0.6025
     19 C2'         0.7477    0.1630    0.7858 C.3       1 ATP         0.1145
     20 O2'         0.1373   -0.0577    2.0407 O.3       1 ATP        -0.5835
     21 C1'         1.3733    1.5427    0.6747 C.3       1 ATP         0.3776
     22 N9          0.4520    2.5240    0.1767 N.pl3     1 ATP        -0.4429
     23 C8          0.5691    3.2215   -0.9485 C.ar      1 ATP         0.2964
     24 N7         -0.4499    4.0551   -1.1342 N.pl3     1 ATP        -0.4957
     25 C5         -1.2618    3.8674   -0.0512 C.ar      1 ATP        -0.1346
     26 C6         -2.5420    4.5007    0.3120 C.ar      1 ATP         0.7213
     27 N6         -3.0874    5.3993   -0.4432 N.2       1 ATP        -0.8215
     28 N1         -3.0494    4.0205    1.5133 N.pl3     1 ATP        -0.8455
     29 C2         -2.3933    3.0527    2.2567 C.ar      1 ATP         0.6477
     30 N3         -1.2611    2.4796    1.9536 N.2       1 ATP        -0.5707
     31 C4         -0.7334    2.9358    0.7669 C.ar      1 ATP         0.2637
     32 HOG3       -1.0897   -2.5320   -7.8517 H         1 ATP         0.4378
     33 H5'1        1.3514    0.2330   -2.1577 H         1 ATP         0.0340
     34 H5'2        2.1280   -1.3678   -2.0460 H         1 ATP         0.0340
     35 H4'         3.8044   -0.1397   -0.4040 H         1 ATP         0.0910
     36 H3'         1.6764   -1.7639    0.2728 H         1 ATP         0.0656
     37 HO3'        3.5554   -1.2733    1.4914 H         1 ATP         0.4386
     38 H2'        -0.0011    0.0027    0.0003 H         1 ATP         0.0788
     39 HO2'        0.8082    0.1199    2.7232 H         1 ATP         0.4363
     40 H1'         1.7826    1.9024    1.6451 H         1 ATP         0.1225
     41 H8          1.3912    3.1285   -1.6365 H         1 ATP         0.3824
     42 HN62       -3.9637    5.7083   -0.0142 H         1 ATP         0.4018
     43 H2         -2.9317    2.7866    3.1796 H         1 ATP         0.0652
     44 H44        -3.9307    4.3923    1.8558 H         1 ATP         0.4503
     45 H45        -0.5835    4.6857   -1.9122 H         1 ATP         0.5209
@<TRIPOS>BOND
     1    1    2 2
     2    1    3 1
     3    1    4 1
     4    1    8 1
     5    4   32 1
     6    5    6 2
     7    5    7 1
     8    5    8 1
     9    5   12 1
    10    9   10 2
    11    9   11 1
    12    9   12 1
    13    9   13 1
    14   13   14 1
    15   14   15 1
    16   14   33 1
    17   14   34 1
    18   15   16 1
    19   15   17 1
    20   15   35 1
    21   16   21 1
    22   17   18 1
    23   17   19 1
    24   17   36 1
    25   18   37 1
    26   19   20 1
    27   19   21 1
    28   19   38 1
    29   20   39 1
    30   21   22 1
    31   21   40 1
    32   22   23 ar
    33   22   31 ar
    34   23   24 ar
    35   23   41 1
    36   24   25 ar
    37   24   45 1
    38   25   26 ar
    39   25   31 ar
    40   26   27 2
    41   26   28 ar
    42   27   42 1
    43   28   29 ar
    44   28   44 1
    45   29   30 ar
    46   29   43 1
    47   30   31 ar
@<TRIPOS>SUBSTRUCTURE
     1 ATP         1 GROUP 0 A     ****
@<TRIPOS>MOLECULE
[[[3,4-dihydroxy-5-(6-imino-7,8-dihydro-1~{H}-purin-8-ylium-9-yl)tetrahydrofuran-2-yl]methoxy-oxido-phosphoryl]oxy-oxido-phosphoryl] hydrogen phosphate
   45    47     1     0     0
SMALL
USER_CHARGES

@<TRIPOS>ATOM
      1 PG         -0.2032    2.3966   -6.7065 P.3       1 ATP         1.5631
      2 O1G         0.4531    2.7692   -8.0172 O.co2     1 ATP        -0.8806
      3 O2G        -0.1696    3.3398   -5.5246 O.co2     1 ATP        -0.8806
      4 O3G        -1.7568    1.9902   -7.0015 O.3       1 ATP        -0.8165
      5 PB          1.8436    0.4860   -5.7558 P.3       1 ATP         1.6877
      6 O1B         1.7860   -0.9419   -5.2605 O.co2     1 ATP        -0.8727
      7 O2B         2.8377    0.9083   -6.8146 O.co2     1 ATP        -0.8727
      8 O3B         0.3482    0.9353   -6.2329 O.3       1 ATP        -0.8330
      9 PA          3.2344    1.6562   -3.4210 P.3       1 ATP         1.6036
     10 O1A         2.8137    2.6124   -2.3260 O.co2     1 ATP        -0.9062
     11 O2A         4.4988    1.8986   -4.2160 O.co2     1 ATP        -0.9062
     12 O3A         1.9940    1.4803   -4.4699 O.3       1 ATP        -0.8166
     13 O5'         3.2903    0.1346   -2.8241 O.3       1 ATP        -0.5510
     14 C5'         2.2816   -0.2918   -1.9206 C.3       1 ATP         0.2099
     15 C4'         2.7248    0.0226   -0.4980 C.3       1 ATP         0.0598
     16 O4'         2.4697    1.4219   -0.2462 O.3       1 ATP        -0.3455
     17 C3'         1.9404   -0.7419    0.5596 C.3       1 ATP         0.0742
     18 O3'         2.7418   -0.8086    1.7389 O.3       1 ATP        -0.6025
     19 C2'         0.7477    0.1630    0.7858 C.3       1 ATP         0.1145
     20 O2'         0.1373   -0.0577    2.0407 O.3       1 ATP        -0.5835
     21 C1'         1.3733    1.5427    0.6747 C.3       1 ATP         0.3776
     22 N9          0.4520    2.5240    0.1767 N.pl3     1 ATP        -0.4429
     23 C8          0.2216    2.8192   -1.0985 C.ar      1 ATP         0.2964
     24 N7         -0.6906    3.7763   -1.2384 N.pl3     1 ATP        -0.4957
     25 C5         -1.0575    4.1037    0.0366 C.ar      1 ATP        -0.1346
     26 C6         -2.0291    5.0943    0.5330 C.ar      1 ATP         0.7213
     27 N6         -2.7093    5.8371   -0.2800 N.2       1 ATP        -0.8215
     28 N1         -2.1051    5.1136    1.9204 N.pl3     1 ATP        -0.8455
     29 C2         -1.3354    4.2774    2.7129 C.ar      1 ATP         0.6477
     30 N3         -0.4707    3.3945    2.2944 N.2       1 ATP        -0.5707
     31 C4         -0.3734    3.3525    0.9220 C.ar      1 ATP         0.2637
     32 HOG3       -2.3209    1.7217   -6.2452 H         1 ATP         0.4378
     33 H5'1        1.3514    0.2330   -2.1577 H         1 ATP         0.0340
     34 H5'2        2.1280   -1.3678   -2.0460 H         1 ATP         0.0340
     35 H4'         3.8044   -0.1397   -0.4040 H         1 ATP         0.0910
     36 H3'         1.6764   -1.7639    0.2728 H         1 ATP         0.0656
     37 HO3'        3.5554   -1.2733    1.4914 H         1 ATP         0.4386
     38 H2'        -0.0011    0.0027    0.0003 H         1 ATP         0.0788
     39 HO2'        0.8082    0.1199    2.7232 H         1 ATP         0.4363
     40 H1'         1.7826    1.9024    1.6451 H         1 ATP         0.1225
     41 H8          0.7125    2.3429   -1.9292 H         1 ATP         0.3824
     42 HN62       -3.3217    6.4517    0.2629 H         1 ATP         0.4018
     43 H2         -1.5188    4.4223    3.7890 H         1 ATP         0.0652
     44 H44        -2.7470    5.7626    2.3665 H         1 ATP         0.4503
     45 H45        -1.0305    4.1680   -2.1054 H         1 ATP         0.5209
@<TRIPOS>BOND
     1    1    2 2
     2    1    3 1
     3    1    4 1
     4    1    8 1
     5    4   32 1
     6    5    6 2
     7    5    7 1
     8    5    8 1
     9    5   12 1
    10    9   10 2
    11    9   11 1
    12    9   12 1
    13    9   13 1
    14   13   14 1
    15   14   15 1
    16   14   33 1
    17   14   34 1
    18   15   16 1
    19   15   17 1
    20   15   35 1
    21   16   21 1
    22   17   18 1
    23   17   19 1
    24   17   36 1
    25   18   37 1
    26   19   20 1
    27   19   21 1
    28   19   38 1
    29   20   39 1
    30   21   22 1
    31   21   40 1
    32   22   23 ar
    33   22   31 ar
    34   23   24 ar
    35   23   41 1
    36   24   25 ar
    37   24   45 1
    38   25   26 ar
    39   25   31 ar
    40   26   27 2
    41   26   28 ar
    42   27   42 1
    43   28   29 ar
    44   28   44 1
    45   29   30 ar
    46   29   43 1
    47   30   31 ar
@<TRIPOS>SUBSTRUCTURE
     1 ATP         1 GROUP 0 A     ****
@<TRIPOS>MOLECULE
[[[3,4-dihydroxy-5-(6-imino-7,8-dihydro-1~{H}-purin-8-ylium-9-yl)tetrahydrofuran-2-yl]methoxy-oxido-phosphoryl]oxy-oxido-phosphoryl] hydrogen phosphate
   45    47     1     0     0
SMALL
USER_CHARGES

@<TRIPOS>ATOM
      1 PG         -0.2532   -1.2176   -7.9869 P.3       1 ATP         1.5631
      2 O1G        -1.4396   -0.2878   -8.1109 O.co2     1 ATP        -0.8806
      3 O2G        -0.4437   -2.7170   -7.9276 O.co2     1 ATP        -0.8806
      4 O3G         0.8011   -0.8760   -9.1859 O.3       1 ATP        -0.8165
      5 PB          1.2948    0.7130   -6.3683 P.3       1 ATP         1.6877
      6 O1B         2.3498    1.0408   -7.4013 O.co2     1 ATP        -0.8727
      7 O2B         0.1662    1.6744   -6.0690 O.co2     1 ATP        -0.8727
      8 O3B         0.6580   -0.7495   -6.7164 O.3       1 ATP        -0.8330
      9 PA          2.9232    1.2546   -3.9579 P.3       1 ATP         1.6036
     10 O1A         2.0227    2.3093   -3.3521 O.co2     1 ATP        -0.9062
     11 O2A         4.2011    1.6439   -4.6686 O.co2     1 ATP        -0.9062
     12 O3A         2.0371    0.3242   -4.9674 O.3       1 ATP        -0.8166
     13 O5'         3.2903    0.1346   -2.8241 O.3       1 ATP        -0.5510
     14 C5'         2.2816   -0.2918   -1.9206 C.3       1 ATP         0.2099
     15 C4'         2.7248    0.0226   -0.4980 C.3       1 ATP         0.0598
     16 O4'         2.4697    1.4219   -0.2462 O.3       1 ATP        -0.3455
     17 C3'         1.9404   -0.7419    0.5596 C.3       1 ATP         0.0742
     18 O3'         2.7418   -0.8086    1.7389 O.3       1 ATP        -0.6025
     19 C2'         0.7477    0.1630    0.7858 C.3       1 ATP         0.1145
     20 O2'         0.1373   -0.0577    2.0407 O.3       1 ATP        -0.5835
     21 C1'         1.3733    1.5427    0.6747 C.3       1 ATP         0.3776
     22 N9          0.4520    2.5240    0.1767 N.pl3     1 ATP        -0.4429
     23 C8          0.5691    3.2215   -0.9485 C.ar      1 ATP         0.2964
     24 N7         -0.4499    4.0551   -1.1342 N.pl3     1 ATP        -0.4957
     25 C5         -1.2618    3.8674   -0.0512 C.ar      1 ATP        -0.1346
     26 C6         -2.5420    4.5007    0.3120 C.ar      1 ATP         0.7213
     27 N6         -3.0874    5.3993   -0.4432 N.2       1 ATP        -0.8215
     28 N1         -3.0494    4.0205    1.5133 N.pl3     1 ATP        -0.8455
     29 C2         -2.3933    3.0527    2.2567 C.ar      1 ATP         0.6477
     30 N3         -1.2611    2.4796    1.9536 N.2       1 ATP        -0.5707
     31 C4         -0.7334    2.9358    0.7669 C.ar      1 ATP         0.2637
     32 HOG3        1.6296   -1.3982   -9.2419 H         1 ATP         0.4378
     33 H5'1        1.3514    0.2330   -2.1577 H         1 ATP         0.0340
     34 H5'2        2.1280   -1.3678   -2.0460 H         1 ATP         0.0340
     35 H4'         3.8044   -0.1397   -0.4040 H         1 ATP         0.0910
     36 H3'         1.6764   -1.7639    0.2728 H         1 ATP         0.0656
     37 HO3'        2.2232   -1.2979    2.3953 H         1 ATP         0.4386
     38 H2'        -0.0011    0.0027    0.0003 H         1 ATP         0.0788
     39 HO2'       -0.6141    0.5574    2.1082 H         1 ATP         0.4363
     40 H1'         1.7826    1.9024    1.6451 H         1 ATP         0.1225
     41 H8          1.3912    3.1285   -1.6365 H         1 ATP         0.3824
     42 HN62       -3.9637    5.7083   -0.0142 H         1 ATP         0.4018
     43 H2         -2.9317    2.7866    3.1796 H         1 ATP         0.0652
     44 H44        -3.9307    4.3923    1.8558 H         1 ATP         0.4503
     45 H45        -0.5835    4.6857   -1.9122 H         1 ATP         0.5209
@<TRIPOS>BOND
     1    1    2 2
     2    1    3 1
     3    1    4 1
     4    1    8 1
     5    4   32 1
     6    5    6 2
     7    5    7 1
     8    5    8 1
     9    5   12 1
    10    9   10 2
    11    9   11 1
    12    9   12 1
    13    9   13 1
    14   13   14 1
    15   14   15 1
    16   14   33 1
    17   14   34 1
    18   15   16 1
    19   15   17 1
    20   15   35 1
    21   16   21 1
    22   17   18 1
    23   17   19 1
    24   17   36 1
    25   18   37 1
    26   19   20 1
    27   19   21 1
    28   19   38 1
    29   20   39 1
    30   21   22 1
    31   21   40 1
    32   22   23 ar
    33   22   31 ar
    34   23   24 ar
    35   23   41 1
    36   24   25 ar
    37   24   45 1
    38   25   26 ar
    39   25   31 ar
    40   26   27 2
    41   26   28 ar
    42   27   42 1
    43   28   29 ar
    44   28   44 1
    45   29   30 ar
    46   29   43 1
    47   30   31 ar
@<TRIPOS>SUBSTRUCTURE
     1 ATP         1 GROUP 0 A     ****
@<TRIPOS>MOLECULE
[[[3,4-dihydroxy-5-(6-imino-7,8-dihydro-1~{H}-purin-8-ylium-9-yl)tetrahydrofuran-2-yl]methoxy-oxido-phosphoryl]oxy-oxido-phosphoryl] hydrogen phosphate
   45    47     1     0     0
SMALL
USER_CHARGES

@<TRIPOS>ATOM
      1 PG         -6.9607   -4.3581    0.6855 P.3       1 ATP         1.5631
      2 O1G        -6.8369   -3.3336   -0.4202 O.co2     1 ATP        -0.8806
      3 O2G        -7.8666   -4.1153    1.8722 O.co2     1 ATP        -0.8806
      4 O3G        -7.3536   -5.7958    0.0189 O.3       1 ATP        -0.8165
      5 PB         -5.0032   -5.8830    2.2938 P.3       1 ATP         1.6877
      6 O1B        -5.5403   -5.5206    3.6604 O.co2     1 ATP        -0.8727
      7 O2B        -5.2611   -7.2439    1.6863 O.co2     1 ATP        -0.8727
      8 O3B        -5.4688   -4.7373    1.2278 O.3       1 ATP        -0.8330
      9 PA         -2.3394   -5.6581    1.0254 P.3       1 ATP         1.6036
     10 O1A        -2.6923   -4.5731    0.0311 O.co2     1 ATP        -0.9062
     11 O2A        -2.2107   -7.0997    0.5840 O.co2     1 ATP        -0.9062
     12 O3A        -3.3967   -5.5945    2.2696 O.3       1 ATP        -0.8166
     13 O5'        -0.9724   -5.2440    1.8220 O.3       1 ATP        -0.5510
     14 C5'        -0.7840   -3.8935    2.2172 C.3       1 ATP         0.2099
     15 C4'        -0.0724   -3.1466    1.1027 C.3       1 ATP         0.0598
     16 O4'        -0.8674   -3.1929   -0.0945 O.3       1 ATP        -0.3455
     17 C3'         0.1338   -1.6715    1.4027 C.3       1 ATP         0.0742
     18 O3'         1.2893   -1.4445    2.1808 O.3       1 ATP        -0.6025
     19 C2'         0.2158   -1.0724    0.0128 C.3       1 ATP         0.1145
     20 O2'         1.5141   -1.2448   -0.5513 O.3       1 ATP        -0.5835
     21 C1'        -0.7897   -1.9176   -0.7583 C.3       1 ATP         0.3776
     22 N9         -2.1040   -1.3333   -0.7704 N.pl3     1 ATP        -0.4429
     23 C8         -3.0590   -1.5123    0.1363 C.ar      1 ATP         0.2964
     24 N7         -4.1655   -0.8354   -0.1554 N.pl3     1 ATP        -0.4957
     25 C5         -3.8852   -0.1874   -1.3253 C.ar      1 ATP        -0.1346
     26 C6         -4.7113    0.7160   -2.1458 C.ar      1 ATP         0.7213
     27 N6         -5.9213    1.0209   -1.8021 N.2       1 ATP        -0.8215
     28 N1         -4.0411    1.1673   -3.2764 N.pl3     1 ATP        -0.8455
     29 C2         -2.7403    0.7865   -3.5638 C.ar      1 ATP         0.6477
     30 N3         -1.9921   -0.0108   -2.8519 N.2       1 ATP        -0.5707
     31 C4         -2.6302   -0.4747   -1.7239 C.ar      1 ATP         0.2637
     32 HOG3       -6.7384   -6.1910   -0.6350 H         1 ATP         0.4378
     33 H5'1       -1.7618   -3.4448    2.4164 H         1 ATP         0.0340
     34 H5'2       -0.1874   -3.8744    3.1341 H         1 ATP         0.0340
     35 H4'         0.8874   -3.6466    0.8805 H         1 ATP         0.0910
     36 H3'        -0.7376   -1.2333    1.9867 H         1 ATP         0.0656
     37 HO3'        1.1626   -1.9325    3.0084 H         1 ATP         0.4386
     38 H2'        -0.0384   -0.0310    0.0096 H         1 ATP         0.0788
     39 HO2'        2.1463   -0.7958    0.0370 H         1 ATP         0.4363
     40 H1'        -0.4769   -2.1002   -1.8093 H         1 ATP         0.1225
     41 H8         -2.9569   -2.1323    1.0098 H         1 ATP         0.3824
     42 HN62       -6.3169    1.6552   -2.5012 H         1 ATP         0.4018
     43 H2         -2.3612    1.2343   -4.4957 H         1 ATP         0.0652
     44 H44        -4.5223    1.7976   -3.9117 H         1 ATP         0.4503
     45 H45        -5.0218   -0.8132    0.3804 H         1 ATP         0.5209
@<TRIPOS>BOND
     1    1    2 2
     2    1    3 1
     3    1    4 1
     4    1    8 1
     5    4   32 1
     6    5    6 2
     7    5    7 1
     8    5    8 1
     9    5   12 1
    10    9   10 2
    11    9   11 1
    12    9   12 1
    13    9   13 1
    14   13   14 1
    15   14   15 1
    16   14   33 1
    17   14   34 1
    18   15   16 1
    19   15   17 1
    20   15   35 1
    21   16   21 1
    22   17   18 1
    23   17   19 1
    24   17   36 1
    25   18   37 1
    26   19   20 1
    27   19   21 1
    28   19   38 1
    29   20   39 1
    30   21   22 1
    31   21   40 1
    32   22   23 ar
    33   22   31 ar
    34   23   24 ar
    35   23   41 1
    36   24   25 ar
    37   24   45 1
    38   25   26 ar
    39   25   31 ar
    40   26   27 2
    41   26   28 ar
    42   27   42 1
    43   28   29 ar
    44   28   44 1
    45   29   30 ar
    46   29   43 1
    47   30   31 ar
@<TRIPOS>SUBSTRUCTURE
     1 ATP         1 GROUP 0 A     ****
@<TRIPOS>MOLECULE
[[[3,4-dihydroxy-5-(6-imino-7,8-dihydro-1~{H}-purin-8-ylium-9-yl)tetrahydrofuran-2-yl]methoxy-oxido-phosphoryl]oxy-oxido-phosphoryl] hydrogen phosphate
   45    47     1     0     0
SMALL
USER_CHARGES

@<TRIPOS>ATOM
      1 PG          0.4434   -4.5917   -2.9053 P.3       1 ATP         1.5631
      2 O1G         0.9275   -5.7884   -3.6933 O.co2     1 ATP        -0.8806
      3 O2G         1.1053   -4.1992   -1.6032 O.co2     1 ATP        -0.8806
      4 O3G         0.4301   -3.2914   -3.8927 O.3       1 ATP        -0.8165
      5 PB         -1.9952   -5.8152   -1.7653 P.3       1 ATP         1.6877
      6 O1B        -3.4506   -5.4048   -1.7355 O.co2     1 ATP        -0.8727
      7 O2B        -1.5827   -7.2087   -2.1843 O.co2     1 ATP        -0.8727
      8 O3B        -1.1641   -4.7319   -2.6604 O.3       1 ATP        -0.8330
      9 PA         -1.6226   -6.1545    1.1504 P.3       1 ATP         1.6036
     10 O1A        -1.1867   -7.6034    1.1200 O.co2     1 ATP        -0.9062
     11 O2A        -3.0262   -5.7777    1.5721 O.co2     1 ATP        -0.9062
     12 O3A        -1.3290   -5.4867   -0.3116 O.3       1 ATP        -0.8166
     13 O5'        -0.5687   -5.2869    2.0510 O.3       1 ATP        -0.5510
     14 C5'        -0.7840   -3.8935    2.2172 C.3       1 ATP         0.2099
     15 C4'        -0.0724   -3.1466    1.1027 C.3       1 ATP         0.0598
     16 O4'        -0.8674   -3.1929   -0.0945 O.3       1 ATP        -0.3455
     17 C3'         0.1338   -1.6715    1.4027 C.3       1 ATP         0.0742
     18 O3'         1.2893   -1.4445    2.1808 O.3       1 ATP        -0.6025
     19 C2'         0.2158   -1.0724    0.0128 C.3       1 ATP         0.1145
     20 O2'         1.5141   -1.2448   -0.5513 O.3       1 ATP        -0.5835
     21 C1'        -0.7897   -1.9176   -0.7583 C.3       1 ATP         0.3776
     22 N9         -2.1040   -1.3333   -0.7704 N.pl3     1 ATP        -0.4429
     23 C8         -3.0590   -1.5123    0.1363 C.ar      1 ATP         0.2964
     24 N7         -4.1655   -0.8354   -0.1554 N.pl3     1 ATP        -0.4957
     25 C5         -3.8852   -0.1874   -1.3253 C.ar      1 ATP        -0.1346
     26 C6         -4.7113    0.7160   -2.1458 C.ar      1 ATP         0.7213
     27 N6         -5.9213    1.0209   -1.8021 N.2       1 ATP        -0.8215
     28 N1         -4.0411    1.1673   -3.2764 N.pl3     1 ATP        -0.8455
     29 C2         -2.7403    0.7865   -3.5638 C.ar      1 ATP         0.6477
     30 N3         -1.9921   -0.0108   -2.8519 N.2       1 ATP        -0.5707
     31 C4         -2.6302   -0.4747   -1.7239 C.ar      1 ATP         0.2637
     32 HOG3        0.1374   -2.4298   -3.5262 H         1 ATP         0.4378
     33 H5'1       -1.8598   -3.6968    2.1850 H         1 ATP         0.0340
     34 H5'2       -0.3933   -3.5903    3.1931 H         1 ATP         0.0340
     35 H4'         0.8874   -3.6466    0.8805 H         1 ATP         0.0910
     36 H3'        -0.7376   -1.2333    1.9867 H         1 ATP         0.0656
     37 HO3'        1.1626   -1.9325    3.0084 H         1 ATP         0.4386
     38 H2'        -0.0384   -0.0310    0.0096 H         1 ATP         0.0788
     39 HO2'        1.4998   -0.8412   -1.4369 H         1 ATP         0.4363
     40 H1'        -0.4769   -2.1002   -1.8093 H         1 ATP         0.1225
     41 H8         -2.9569   -2.1323    1.0098 H         1 ATP         0.3824
     42 HN62       -6.3169    1.6552   -2.5012 H         1 ATP         0.4018
     43 H2         -2.3612    1.2343   -4.4957 H         1 ATP         0.0652
     44 H44        -4.5223    1.7976   -3.9117 H         1 ATP         0.4503
     45 H45        -5.0218   -0.8132    0.3804 H         1 ATP         0.5209
@<TRIPOS>BOND
     1    1    2 2
     2    1    3 1
     3    1    4 1
     4    1    8 1
     5    4   32 1
     6    5    6 2
     7    5    7 1
     8    5    8 1
     9    5   12 1
    10    9   10 2
    11    9   11 1
    12    9   12 1
    13    9   13 1
    14   13   14 1
    15   14   15 1
    16   14   33 1
    17   14   34 1
    18   15   16 1
    19   15   17 1
    20   15   35 1
    21   16   21 1
    22   17   18 1
    23   17   19 1
    24   17   36 1
    25   18   37 1
    26   19   20 1
    27   19   21 1
    28   19   38 1
    29   20   39 1
    30   21   22 1
    31   21   40 1
    32   22   23 ar
    33   22   31 ar
    34   23   24 ar
    35   23   41 1
    36   24   25 ar
    37   24   45 1
    38   25   26 ar
    39   25   31 ar
    40   26   27 2
    41   26   28 ar
    42   27   42 1
    43   28   29 ar
    44   28   44 1
    45   29   30 ar
    46   29   43 1
    47   30   31 ar
@<TRIPOS>SUBSTRUCTURE
     1 ATP         1 GROUP 0 A     ****
@<TRIPOS>MOLECULE
[[[3,4-dihydroxy-5-(6-imino-7,8-dihydro-1~{H}-purin-8-ylium-9-yl)tetrahydrofuran-2-yl]methoxy-oxido-phosphoryl]oxy-oxido-phosphoryl] hydrogen phosphate
   45    47     1     0     0
SMALL
USER_CHARGES

@<TRIPOS>ATOM
      1 PG          6.5985   -2.4062   -0.5899 P.3       1 ATP         1.5631
      2 O1G         5.7175   -3.2842   -1.4502 O.co2     1 ATP        -0.8806
      3 O2G         6.1354   -1.9362    0.7712 O.co2     1 ATP        -0.8806
      4 O3G         8.0498   -3.1349   -0.4205 O.3       1 ATP        -0.8165
      5 PB          6.1942    0.1321   -2.0518 P.3       1 ATP         1.6877
      6 O1B         5.4028    0.7457   -0.9184 O.co2     1 ATP        -0.8727
      7 O2B         7.0834    0.9790   -2.9348 O.co2     1 ATP        -0.8727
      8 O3B         7.0731   -1.1116   -1.4632 O.3       1 ATP        -0.8330
      9 PA          3.9554   -0.2064   -3.9565 P.3       1 ATP         1.6036
     10 O1A         3.2313   -1.4129   -4.5136 O.co2     1 ATP        -0.9062
     11 O2A         4.4942    0.8660   -4.8781 O.co2     1 ATP        -0.9062
     12 O3A         5.1753   -0.7215   -2.9994 O.3       1 ATP        -0.8166
     13 O5'         3.0213    0.5153   -2.8245 O.3       1 ATP        -0.5510
     14 C5'         2.2816   -0.2918   -1.9206 C.3       1 ATP         0.2099
     15 C4'         2.7248    0.0226   -0.4980 C.3       1 ATP         0.0598
     16 O4'         2.4697    1.4219   -0.2462 O.3       1 ATP        -0.3455
     17 C3'         1.9404   -0.7419    0.5596 C.3       1 ATP         0.0742
     18 O3'         2.7418   -0.8086    1.7389 O.3       1 ATP        -0.6025
     19 C2'         0.7477    0.1630    0.7858 C.3       1 ATP         0.1145
     20 O2'         0.1373   -0.0577    2.0407 O.3       1 ATP        -0.5835
     21 C1'         1.3733    1.5427    0.6747 C.3       1 ATP         0.3776
     22 N9          0.4520    2.5240    0.1767 N.pl3     1 ATP        -0.4429
     23 C8          0.2216    2.8192   -1.0985 C.ar      1 ATP         0.2964
     24 N7         -0.6906    3.7763   -1.2384 N.pl3     1 ATP        -0.4957
     25 C5         -1.0575    4.1037    0.0366 C.ar      1 ATP        -0.1346
     26 C6         -2.0291    5.0943    0.5330 C.ar      1 ATP         0.7213
     27 N6         -2.7093    5.8371   -0.2800 N.2       1 ATP        -0.8215
     28 N1         -2.1051    5.1136    1.9204 N.pl3     1 ATP        -0.8455
     29 C2         -1.3354    4.2774    2.7129 C.ar      1 ATP         0.6477
     30 N3         -0.4707    3.3945    2.2944 N.2       1 ATP        -0.5707
     31 C4         -0.3734    3.3525    0.9220 C.ar      1 ATP         0.2637
     32 HOG3        8.7379   -2.6861    0.1155 H         1 ATP         0.4378
     33 H5'1        1.2163   -0.0770   -2.0471 H         1 ATP         0.0340
     34 H5'2        2.4655   -1.3443   -2.1563 H         1 ATP         0.0340
     35 H4'         3.8044   -0.1397   -0.4040 H         1 ATP         0.0910
     36 H3'         1.6764   -1.7639    0.2728 H         1 ATP         0.0656
     37 HO3'        2.2232   -1.2979    2.3953 H         1 ATP         0.4386
     38 H2'        -0.0011    0.0027    0.0003 H         1 ATP         0.0788
     39 HO2'       -0.6141    0.5574    2.1082 H         1 ATP         0.4363
     40 H1'         1.7826    1.9024    1.6451 H         1 ATP         0.1225
     41 H8          0.7125    2.3429   -1.9292 H         1 ATP         0.3824
     42 HN62       -3.3217    6.4517    0.2629 H         1 ATP         0.4018
     43 H2         -1.5188    4.4223    3.7890 H         1 ATP         0.0652
     44 H44        -2.7470    5.7626    2.3665 H         1 ATP         0.4503
     45 H45        -1.0305    4.1680   -2.1054 H         1 ATP         0.5209
@<TRIPOS>BOND
     1    1    2 2
     2    1    3 1
     3    1    4 1
     4    1    8 1
     5    4   32 1
     6    5    6 2
     7    5    7 1
     8    5    8 1
     9    5   12 1
    10    9   10 2
    11    9   11 1
    12    9   12 1
    13    9   13 1
    14   13   14 1
    15   14   15 1
    16   14   33 1
    17   14   34 1
    18   15   16 1
    19   15   17 1
    20   15   35 1
    21   16   21 1
    22   17   18 1
    23   17   19 1
    24   17   36 1
    25   18   37 1
    26   19   20 1
    27   19   21 1
    28   19   38 1
    29   20   39 1
    30   21   22 1
    31   21   40 1
    32   22   23 ar
    33   22   31 ar
    34   23   24 ar
    35   23   41 1
    36   24   25 ar
    37   24   45 1
    38   25   26 ar
    39   25   31 ar
    40   26   27 2
    41   26   28 ar
    42   27   42 1
    43   28   29 ar
    44   28   44 1
    45   29   30 ar
    46   29   43 1
    47   30   31 ar
@<TRIPOS>SUBSTRUCTURE
     1 ATP         1 GROUP 0 A     ****
@<TRIPOS>MOLECULE
[[[3,4-dihydroxy-5-(6-imino-7,8-dihydro-1~{H}-purin-8-ylium-9-yl)tetrahydrofuran-2-yl]methoxy-oxido-phosphoryl]oxy-oxido-phosphoryl] hydrogen phosphate
   45    47     1     0     0
SMALL
USER_CHARGES

@<TRIPOS>ATOM
      1 PG         -1.4966   -3.1134   -0.3777 P.3       1 ATP         1.5631
      2 O1G        -2.7723   -2.6487   -1.0440 O.co2     1 ATP        -0.8806
      3 O2G        -0.4301   -2.1235    0.0349 O.co2     1 ATP        -0.8806
      4 O3G        -1.8907   -4.0221    0.9204 O.3       1 ATP        -0.8165
      5 PB         -0.1474   -4.1805   -2.7828 P.3       1 ATP         1.6877
      6 O1B         0.4971   -5.5083   -3.1131 O.co2     1 ATP        -0.8727
      7 O2B        -1.1475   -3.5406   -3.7197 O.co2     1 ATP        -0.8727
      8 O3B        -0.8119   -4.2771   -1.2946 O.3       1 ATP        -0.8330
      9 PA          2.1633   -2.4499   -3.4314 P.3       1 ATP         1.6036
     10 O1A         1.4760   -1.5972   -4.4759 O.co2     1 ATP        -0.9062
     11 O2A         3.1220   -3.5478   -3.8377 O.co2     1 ATP        -0.9062
     12 O3A         1.0274   -3.0968   -2.4510 O.3       1 ATP        -0.8166
     13 O5'         2.9216   -1.4836   -2.3516 O.3       1 ATP        -0.5510
     14 C5'         2.2816   -0.2918   -1.9206 C.3       1 ATP         0.2099
     15 C4'         2.7248    0.0226   -0.4980 C.3       1 ATP         0.0598
     16 O4'         2.4697    1.4219   -0.2462 O.3       1 ATP        -0.3455
     17 C3'         1.9404   -0.7419    0.5596 C.3       1 ATP         0.0742
     18 O3'         2.7418   -0.8086    1.7389 O.3       1 ATP        -0.6025
     19 C2'         0.7477    0.1630    0.7858 C.3       1 ATP         0.1145
     20 O2'         0.1373   -0.0577    2.0407 O.3       1 ATP        -0.5835
     21 C1'         1.3733    1.5427    0.6747 C.3       1 ATP         0.3776
     22 N9          0.4520    2.5240    0.1767 N.pl3     1 ATP        -0.4429
     23 C8         -0.2004    2.4829   -0.9804 C.ar      1 ATP         0.2964
     24 N7         -0.9830    3.5431   -1.1568 N.pl3     1 ATP        -0.4957
     25 C5         -0.8095    4.3012   -0.0331 C.ar      1 ATP        -0.1346
     26 C6         -1.4065    5.5904    0.3585 C.ar      1 ATP         0.7213
     27 N6         -2.2501    6.2030   -0.4084 N.2       1 ATP        -0.8215
     28 N1         -0.9585    6.0272    1.5994 N.pl3     1 ATP        -0.8455
     29 C2         -0.0508    5.3009    2.3532 C.ar      1 ATP         0.6477
     30 N3          0.4890    4.1592    2.0257 N.2       1 ATP        -0.5707
     31 C4          0.0637    3.7006    0.7995 C.ar      1 ATP         0.2637
     32 HOG3       -1.1661   -4.4006    1.4626 H         1 ATP         0.4378
     33 H5'1        2.5589    0.5217   -2.5976 H         1 ATP         0.0340
     34 H5'2        1.1982   -0.4388   -1.9617 H         1 ATP         0.0340
     35 H4'         3.8044   -0.1397   -0.4040 H         1 ATP         0.0910
     36 H3'         1.6764   -1.7639    0.2728 H         1 ATP         0.0656
     37 HO3'        2.2232   -1.2979    2.3953 H         1 ATP         0.4386
     38 H2'        -0.0011    0.0027    0.0003 H         1 ATP         0.0788
     39 HO2'       -0.1563   -0.9855    2.0596 H         1 ATP         0.4363
     40 H1'         1.7826    1.9024    1.6451 H         1 ATP         0.1225
     41 H8         -0.1116    1.6863   -1.6984 H         1 ATP         0.3824
     42 HN62       -2.5420    7.0730    0.0447 H         1 ATP         0.4018
     43 H2          0.1969    5.7893    3.3086 H         1 ATP         0.0652
     44 H44        -1.3097    6.9080    1.9642 H         1 ATP         0.4503
     45 H45        -1.5735    3.7351   -1.9538 H         1 ATP         0.5209
@<TRIPOS>BOND
     1    1    2 2
     2    1    3 1
     3    1    4 1
     4    1    8 1
     5    4   32 1
     6    5    6 2
     7    5    7 1
     8    5    8 1
     9    5   12 1
    10    9   10 2
    11    9   11 1
    12    9   12 1
    13    9   13 1
    14   13   14 1
    15   14   15 1
    16   14   33 1
    17   14   34 1
    18   15   16 1
    19   15   17 1
    20   15   35 1
    21   16   21 1
    22   17   18 1
    23   17   19 1
    24   17   36 1
    25   18   37 1
    26   19   20 1
    27   19   21 1
    28   19   38 1
    29   20   39 1
    30   21   22 1
    31   21   40 1
    32   22   23 ar
    33   22   31 ar
    34   23   24 ar
    35   23   41 1
    36   24   25 ar
    37   24   45 1
    38   25   26 ar
    39   25   31 ar
    40   26   27 2
    41   26   28 ar
    42   27   42 1
    43   28   29 ar
    44   28   44 1
    45   29   30 ar
    46   29   43 1
    47   30   31 ar
@<TRIPOS>SUBSTRUCTURE
     1 ATP         1 GROUP 0 A     ****
@<TRIPOS>MOLECULE
[[[3,4-dihydroxy-5-(6-imino-7,8-dihydro-1~{H}-purin-8-ylium-9-yl)tetrahydrofuran-2-yl]methoxy-oxido-phosphoryl]oxy-oxido-phosphoryl] hydrogen phosphate
   45    47     1     0     0
SMALL
USER_CHARGES

@<TRIPOS>ATOM
      1 PG         -5.2839   -5.2348   -1.7333 P.3       1 ATP         1.5631
      2 O1G        -5.5356   -6.5737   -2.3900 O.co2     1 ATP        -0.8806
      3 O2G        -4.6376   -4.1024   -2.4998 O.co2     1 ATP        -0.8806
      4 O3G        -6.6886   -4.6960   -1.0989 O.3       1 ATP        -0.8165
      5 PB         -2.9384   -6.0130   -0.1097 P.3       1 ATP         1.6877
      6 O1B        -2.8678   -7.4612   -0.5399 O.co2     1 ATP        -0.8727
      7 O2B        -1.9691   -4.9865   -0.6523 O.co2     1 ATP        -0.8727
      8 O3B        -4.4605   -5.4709   -0.3441 O.3       1 ATP        -0.8330
      9 PA         -1.7128   -6.3370    2.5639 P.3       1 ATP         1.6036
     10 O1A        -1.2607   -7.7533    2.2812 O.co2     1 ATP        -0.9062
     11 O2A        -2.1423   -5.9253    3.9552 O.co2     1 ATP        -0.9062
     12 O3A        -2.9097   -5.9496    1.5213 O.3       1 ATP        -0.8166
     13 O5'        -0.5687   -5.2869    2.0510 O.3       1 ATP        -0.5510
     14 C5'        -0.7840   -3.8935    2.2172 C.3       1 ATP         0.2099
     15 C4'        -0.0724   -3.1466    1.1027 C.3       1 ATP         0.0598
     16 O4'        -0.8674   -3.1929   -0.0945 O.3       1 ATP        -0.3455
     17 C3'         0.1338   -1.6715    1.4027 C.3       1 ATP         0.0742
     18 O3'         1.2893   -1.4445    2.1808 O.3       1 ATP        -0.6025
     19 C2'         0.2158   -1.0724    0.0128 C.3       1 ATP         0.1145
     20 O2'         1.5141   -1.2448   -0.5513 O.3       1 ATP        -0.5835
     21 C1'        -0.7897   -1.9176   -0.7583 C.3       1 ATP         0.3776
     22 N9         -2.1040   -1.3333   -0.7704 N.pl3     1 ATP        -0.4429
     23 C8         -3.0590   -1.5123    0.1363 C.ar      1 ATP         0.2964
     24 N7         -4.1655   -0.8354   -0.1554 N.pl3     1 ATP        -0.4957
     25 C5         -3.8852   -0.1874   -1.3253 C.ar      1 ATP        -0.1346
     26 C6         -4.7113    0.7160   -2.1458 C.ar      1 ATP         0.7213
     27 N6         -5.9213    1.0209   -1.8021 N.2       1 ATP        -0.8215
     28 N1         -4.0411    1.1673   -3.2764 N.pl3     1 ATP        -0.8455
     29 C2         -2.7403    0.7865   -3.5638 C.ar      1 ATP         0.6477
     30 N3         -1.9921   -0.0108   -2.8519 N.2       1 ATP        -0.5707
     31 C4         -2.6302   -0.4747   -1.7239 C.ar      1 ATP         0.2637
     32 HOG3       -6.6903   -3.8318   -0.6347 H         1 ATP         0.4378
     33 H5'1       -1.8598   -3.6968    2.1850 H         1 ATP         0.0340
     34 H5'2       -0.3933   -3.5903    3.1931 H         1 ATP         0.0340
     35 H4'         0.8874   -3.6466    0.8805 H         1 ATP         0.0910
     36 H3'        -0.7376   -1.2333    1.9867 H         1 ATP         0.0656
     37 HO3'        1.3408   -0.4870    2.3219 H         1 ATP         0.4386
     38 H2'        -0.0384   -0.0310    0.0096 H         1 ATP         0.0788
     39 HO2'        2.1463   -0.7958    0.0370 H         1 ATP         0.4363
     40 H1'        -0.4769   -2.1002   -1.8093 H         1 ATP         0.1225
     41 H8         -2.9569   -2.1323    1.0098 H         1 ATP         0.3824
     42 HN62       -6.3169    1.6552   -2.5012 H         1 ATP         0.4018
     43 H2         -2.3612    1.2343   -4.4957 H         1 ATP         0.0652
     44 H44        -4.5223    1.7976   -3.9117 H         1 ATP         0.4503
     45 H45        -5.0218   -0.8132    0.3804 H         1 ATP         0.5209
@<TRIPOS>BOND
     1    1    2 2
     2    1    3 1
     3    1    4 1
     4    1    8 1
     5    4   32 1
     6    5    6 2
     7    5    7 1
     8    5    8 1
     9    5   12 1
    10    9   10 2
    11    9   11 1
    12    9   12 1
    13    9   13 1
    14   13   14 1
    15   14   15 1
    16   14   33 1
    17   14   34 1
    18   15   16 1
    19   15   17 1
    20   15   35 1
    21   16   21 1
    22   17   18 1
    23   17   19 1
    24   17   36 1
    25   18   37 1
    26   19   20 1
    27   19   21 1
    28   19   38 1
    29   20   39 1
    30   21   22 1
    31   21   40 1
    32   22   23 ar
    33   22   31 ar
    34   23   24 ar
    35   23   41 1
    36   24   25 ar
    37   24   45 1
    38   25   26 ar
    39   25   31 ar
    40   26   27 2
    41   26   28 ar
    42   27   42 1
    43   28   29 ar
    44   28   44 1
    45   29   30 ar
    46   29   43 1
    47   30   31 ar
@<TRIPOS>SUBSTRUCTURE
     1 ATP         1 GROUP 0 A     ****
@<TRIPOS>MOLECULE
[[[3,4-dihydroxy-5-(6-imino-7,8-dihydro-1~{H}-purin-8-ylium-9-yl)tetrahydrofuran-2-yl]methoxy-oxido-phosphoryl]oxy-oxido-phosphoryl] hydrogen phosphate
   45    47     1     0     0
SMALL
USER_CHARGES

@<TRIPOS>ATOM
      1 PG          0.2035    4.6261   -4.4649 P.3       1 ATP         1.5631
      2 O1G        -0.3471    3.4146   -5.1837 O.co2     1 ATP        -0.8806
      3 O2G         0.9736    5.6908   -5.2137 O.co2     1 ATP        -0.8806
      4 O3G        -1.0158    5.3444   -3.6504 O.3       1 ATP        -0.8165
      5 PB          2.5047    3.3102   -3.1548 P.3       1 ATP         1.6877
      6 O1B         3.5094    4.0401   -4.0182 O.co2     1 ATP        -0.8727
      7 O2B         2.8205    2.9490   -1.7205 O.co2     1 ATP        -0.8727
      8 O3B         1.0924    4.1286   -3.1897 O.3       1 ATP        -0.8330
      9 PA          2.8621    0.6170   -4.3270 P.3       1 ATP         1.6036
     10 O1A         4.0995    1.0217   -5.0986 O.co2     1 ATP        -0.9062
     11 O2A         1.8962   -0.4011   -4.8927 O.co2     1 ATP        -0.9062
     12 O3A         2.0209    1.9632   -3.9398 O.3       1 ATP        -0.8166
     13 O5'         3.2903    0.1346   -2.8241 O.3       1 ATP        -0.5510
     14 C5'         2.2816   -0.2918   -1.9206 C.3       1 ATP         0.2099
     15 C4'         2.7248    0.0226   -0.4980 C.3       1 ATP         0.0598
     16 O4'         2.4697    1.4219   -0.2462 O.3       1 ATP        -0.3455
     17 C3'         1.9404   -0.7419    0.5596 C.3       1 ATP         0.0742
     18 O3'         2.7418   -0.8086    1.7389 O.3       1 ATP        -0.6025
     19 C2'         0.7477    0.1630    0.7858 C.3       1 ATP         0.1145
     20 O2'         0.1373   -0.0577    2.0407 O.3       1 ATP        -0.5835
     21 C1'         1.3733    1.5427    0.6747 C.3       1 ATP         0.3776
     22 N9          0.4520    2.5240    0.1767 N.pl3     1 ATP        -0.4429
     23 C8         -0.2004    2.4829   -0.9804 C.ar      1 ATP         0.2964
     24 N7         -0.9830    3.5431   -1.1568 N.pl3     1 ATP        -0.4957
     25 C5         -0.8095    4.3012   -0.0331 C.ar      1 ATP        -0.1346
     26 C6         -1.4065    5.5904    0.3585 C.ar      1 ATP         0.7213
     27 N6         -2.2501    6.2030   -0.4084 N.2       1 ATP        -0.8215
     28 N1         -0.9585    6.0272    1.5994 N.pl3     1 ATP        -0.8455
     29 C2         -0.0508    5.3009    2.3532 C.ar      1 ATP         0.6477
     30 N3          0.4890    4.1592    2.0257 N.2       1 ATP        -0.5707
     31 C4          0.0637    3.7006    0.7995 C.ar      1 ATP         0.2637
     32 HOG3       -0.8175    6.1514   -3.1292 H         1 ATP         0.4378
     33 H5'1        1.3514    0.2330   -2.1577 H         1 ATP         0.0340
     34 H5'2        2.1280   -1.3678   -2.0460 H         1 ATP         0.0340
     35 H4'         3.8044   -0.1397   -0.4040 H         1 ATP         0.0910
     36 H3'         1.6764   -1.7639    0.2728 H         1 ATP         0.0656
     37 HO3'        2.2232   -1.2979    2.3953 H         1 ATP         0.4386
     38 H2'        -0.0011    0.0027    0.0003 H         1 ATP         0.0788
     39 HO2'       -0.6141    0.5574    2.1082 H         1 ATP         0.4363
     40 H1'         1.7826    1.9024    1.6451 H         1 ATP         0.1225
     41 H8         -0.1116    1.6863   -1.6984 H         1 ATP         0.3824
     42 HN62       -2.5420    7.0730    0.0447 H         1 ATP         0.4018
     43 H2          0.1969    5.7893    3.3086 H         1 ATP         0.0652
     44 H44        -1.3097    6.9080    1.9642 H         1 ATP         0.4503
     45 H45        -1.5735    3.7351   -1.9538 H         1 ATP         0.5209
@<TRIPOS>BOND
     1    1    2 2
     2    1    3 1
     3    1    4 1
     4    1    8 1
     5    4   32 1
     6    5    6 2
     7    5    7 1
     8    5    8 1
     9    5   12 1
    10    9   10 2
    11    9   11 1
    12    9   12 1
    13    9   13 1
    14   13   14 1
    15   14   15 1
    16   14   33 1
    17   14   34 1
    18   15   16 1
    19   15   17 1
    20   15   35 1
    21   16   21 1
    22   17   18 1
    23   17   19 1
    24   17   36 1
    25   18   37 1
    26   19   20 1
    27   19   21 1
    28   19   38 1
    29   20   39 1
    30   21   22 1
    31   21   40 1
    32   22   23 ar
    33   22   31 ar
    34   23   24 ar
    35   23   41 1
    36   24   25 ar
    37   24   45 1
    38   25   26 ar
    39   25   31 ar
    40   26   27 2
    41   26   28 ar
    42   27   42 1
    43   28   29 ar
    44   28   44 1
    45   29   30 ar
    46   29   43 1
    47   30   31 ar
@<TRIPOS>SUBSTRUCTURE
     1 ATP         1 GROUP 0 A     ****
@<TRIPOS>MOLECULE
[[[3,4-dihydroxy-5-(6-imino-7,8-dihydro-1~{H}-purin-8-ylium-9-yl)tetrahydrofuran-2-yl]methoxy-oxido-phosphoryl]oxy-oxido-phosphoryl] hydrogen phosphate
   45    47     1     0     0
SMALL
USER_CHARGES

@<TRIPOS>ATOM
      1 PG          8.3265   -1.1037   -0.4178 P.3       1 ATP         1.5631
      2 O1G         7.8319   -0.6586    0.9403 O.co2     1 ATP        -0.8806
      3 O2G         9.5085   -0.4265   -1.0749 O.co2     1 ATP        -0.8806
      4 O3G         8.6132   -2.7102   -0.3644 O.3       1 ATP        -0.8165
      5 PB          6.1942    0.1321   -2.0518 P.3       1 ATP         1.6877
      6 O1B         5.4028    0.7457   -0.9184 O.co2     1 ATP        -0.8727
      7 O2B         7.0834    0.9790   -2.9348 O.co2     1 ATP        -0.8727
      8 O3B         7.0731   -1.1116   -1.4632 O.3       1 ATP        -0.8330
      9 PA          3.9554   -0.2064   -3.9565 P.3       1 ATP         1.6036
     10 O1A         3.2313   -1.4129   -4.5136 O.co2     1 ATP        -0.9062
     11 O2A         4.4942    0.8660   -4.8781 O.co2     1 ATP        -0.9062
     12 O3A         5.1753   -0.7215   -2.9994 O.3       1 ATP        -0.8166
     13 O5'         3.0213    0.5153   -2.8245 O.3       1 ATP        -0.5510
     14 C5'         2.2816   -0.2918   -1.9206 C.3       1 ATP         0.2099
     15 C4'         2.7248    0.0226   -0.4980 C.3       1 ATP         0.0598
     16 O4'         2.4697    1.4219   -0.2462 O.3       1 ATP        -0.3455
     17 C3'         1.9404   -0.7419    0.5596 C.3       1 ATP         0.0742
     18 O3'         2.7418   -0.8086    1.7389 O.3       1 ATP        -0.6025
     19 C2'         0.7477    0.1630    0.7858 C.3       1 ATP         0.1145
     20 O2'         0.1373   -0.0577    2.0407 O.3       1 ATP        -0.5835
     21 C1'         1.3733    1.5427    0.6747 C.3       1 ATP         0.3776
     22 N9          0.4520    2.5240    0.1767 N.pl3     1 ATP        -0.4429
     23 C8         -0.2004    2.4829   -0.9804 C.ar      1 ATP         0.2964
     24 N7         -0.9830    3.5431   -1.1568 N.pl3     1 ATP        -0.4957
     25 C5         -0.8095    4.3012   -0.0331 C.ar      1 ATP        -0.1346
     26 C6         -1.4065    5.5904    0.3585 C.ar      1 ATP         0.7213
     27 N6         -2.2501    6.2030   -0.4084 N.2       1 ATP        -0.8215
     28 N1         -0.9585    6.0272    1.5994 N.pl3     1 ATP        -0.8455
     29 C2         -0.0508    5.3009    2.3532 C.ar      1 ATP         0.6477
     30 N3          0.4890    4.1592    2.0257 N.2       1 ATP        -0.5707
     31 C4          0.0637    3.7006    0.7995 C.ar      1 ATP         0.2637
     32 HOG3        8.9420   -3.1530   -1.1757 H         1 ATP         0.4378
     33 H5'1        1.2163   -0.0770   -2.0471 H         1 ATP         0.0340
     34 H5'2        2.4655   -1.3443   -2.1563 H         1 ATP         0.0340
     35 H4'         3.8044   -0.1397   -0.4040 H         1 ATP         0.0910
     36 H3'         1.6764   -1.7639    0.2728 H         1 ATP         0.0656
     37 HO3'        2.2232   -1.2979    2.3953 H         1 ATP         0.4386
     38 H2'        -0.0011    0.0027    0.0003 H         1 ATP         0.0788
     39 HO2'       -0.1563   -0.9855    2.0596 H         1 ATP         0.4363
     40 H1'         1.7826    1.9024    1.6451 H         1 ATP         0.1225
     41 H8         -0.1116    1.6863   -1.6984 H         1 ATP         0.3824
     42 HN62       -2.5420    7.0730    0.0447 H         1 ATP         0.4018
     43 H2          0.1969    5.7893    3.3086 H         1 ATP         0.0652
     44 H44        -1.3097    6.9080    1.9642 H         1 ATP         0.4503
     45 H45        -1.5735    3.7351   -1.9538 H         1 ATP         0.5209
@<TRIPOS>BOND
     1    1    2 2
     2    1    3 1
     3    1    4 1
     4    1    8 1
     5    4   32 1
     6    5    6 2
     7    5    7 1
     8    5    8 1
     9    5   12 1
    10    9   10 2
    11    9   11 1
    12    9   12 1
    13    9   13 1
    14   13   14 1
    15   14   15 1
    16   14   33 1
    17   14   34 1
    18   15   16 1
    19   15   17 1
    20   15   35 1
    21   16   21 1
    22   17   18 1
    23   17   19 1
    24   17   36 1
    25   18   37 1
    26   19   20 1
    27   19   21 1
    28   19   38 1
    29   20   39 1
    30   21   22 1
    31   21   40 1
    32   22   23 ar
    33   22   31 ar
    34   23   24 ar
    35   23   41 1
    36   24   25 ar
    37   24   45 1
    38   25   26 ar
    39   25   31 ar
    40   26   27 2
    41   26   28 ar
    42   27   42 1
    43   28   29 ar
    44   28   44 1
    45   29   30 ar
    46   29   43 1
    47   30   31 ar
@<TRIPOS>SUBSTRUCTURE
     1 ATP         1 GROUP 0 A     ****
@<TRIPOS>MOLECULE
[[[3,4-dihydroxy-5-(6-imino-7,8-dihydro-1~{H}-purin-8-ylium-9-yl)tetrahydrofuran-2-yl]methoxy-oxido-phosphoryl]oxy-oxido-phosphoryl] hydrogen phosphate
   45    47     1     0     0
SMALL
USER_CHARGES

@<TRIPOS>ATOM
      1 PG          4.1290   -4.7220    1.9881 P.3       1 ATP         1.5631
      2 O1G         3.5815   -4.6257    3.3946 O.co2     1 ATP        -0.8806
      3 O2G         4.0422   -3.5482    1.0381 O.co2     1 ATP        -0.8806
      4 O3G         5.6854   -5.2090    2.0695 O.3       1 ATP        -0.8165
      5 PB          1.9563   -6.3502    0.8168 P.3       1 ATP         1.6877
      6 O1B         1.4570   -5.2055   -0.0365 O.co2     1 ATP        -0.8727
      7 O2B         1.8701   -7.7815    0.3357 O.co2     1 ATP        -0.8727
      8 O3B         3.4963   -6.0390    1.2608 O.3       1 ATP        -0.8330
      9 PA         -0.3072   -6.4376    2.7205 P.3       1 ATP         1.6036
     10 O1A        -0.4500   -6.1027    4.1894 O.co2     1 ATP        -0.9062
     11 O2A        -0.7938   -7.7640    2.1787 O.co2     1 ATP        -0.9062
     12 O3A         1.2573   -6.2493    2.2886 O.3       1 ATP        -0.8166
     13 O5'        -0.9724   -5.2440    1.8220 O.3       1 ATP        -0.5510
     14 C5'        -0.7840   -3.8935    2.2172 C.3       1 ATP         0.2099
     15 C4'        -0.0724   -3.1466    1.1027 C.3       1 ATP         0.0598
     16 O4'        -0.8674   -3.1929   -0.0945 O.3       1 ATP        -0.3455
     17 C3'         0.1338   -1.6715    1.4027 C.3       1 ATP         0.0742
     18 O3'         1.2893   -1.4445    2.1808 O.3       1 ATP        -0.6025
     19 C2'         0.2158   -1.0724    0.0128 C.3       1 ATP         0.1145
     20 O2'         1.5141   -1.2448   -0.5513 O.3       1 ATP        -0.5835
     21 C1'        -0.7897   -1.9176   -0.7583 C.3       1 ATP         0.3776
     22 N9         -2.1040   -1.3333   -0.7704 N.pl3     1 ATP        -0.4429
     23 C8         -3.0590   -1.5123    0.1363 C.ar      1 ATP         0.2964
     24 N7         -4.1655   -0.8354   -0.1554 N.pl3     1 ATP        -0.4957
     25 C5         -3.8852   -0.1874   -1.3253 C.ar      1 ATP        -0.1346
     26 C6         -4.7113    0.7160   -2.1458 C.ar      1 ATP         0.7213
     27 N6         -5.9213    1.0209   -1.8021 N.2       1 ATP        -0.8215
     28 N1         -4.0411    1.1673   -3.2764 N.pl3     1 ATP        -0.8455
     29 C2         -2.7403    0.7865   -3.5638 C.ar      1 ATP         0.6477
     30 N3         -1.9921   -0.0108   -2.8519 N.2       1 ATP        -0.5707
     31 C4         -2.6302   -0.4747   -1.7239 C.ar      1 ATP         0.2637
     32 HOG3        6.1843   -5.3200    1.2322 H         1 ATP         0.4378
     33 H5'1       -1.7618   -3.4448    2.4164 H         1 ATP         0.0340
     34 H5'2       -0.1874   -3.8744    3.1341 H         1 ATP         0.0340
     35 H4'         0.8874   -3.6466    0.8805 H         1 ATP         0.0910
     36 H3'        -0.7376   -1.2333    1.9867 H         1 ATP         0.0656
     37 HO3'        1.3408   -0.4870    2.3219 H         1 ATP         0.4386
     38 H2'        -0.0384   -0.0310    0.0096 H         1 ATP         0.0788
     39 HO2'        2.1463   -0.7958    0.0370 H         1 ATP         0.4363
     40 H1'        -0.4769   -2.1002   -1.8093 H         1 ATP         0.1225
     41 H8         -2.9569   -2.1323    1.0098 H         1 ATP         0.3824
     42 HN62       -6.3169    1.6552   -2.5012 H         1 ATP         0.4018
     43 H2         -2.3612    1.2343   -4.4957 H         1 ATP         0.0652
     44 H44        -4.5223    1.7976   -3.9117 H         1 ATP         0.4503
     45 H45        -5.0218   -0.8132    0.3804 H         1 ATP         0.5209
@<TRIPOS>BOND
     1    1    2 2
     2    1    3 1
     3    1    4 1
     4    1    8 1
     5    4   32 1
     6    5    6 2
     7    5    7 1
     8    5    8 1
     9    5   12 1
    10    9   10 2
    11    9   11 1
    12    9   12 1
    13    9   13 1
    14   13   14 1
    15   14   15 1
    16   14   33 1
    17   14   34 1
    18   15   16 1
    19   15   17 1
    20   15   35 1
    21   16   21 1
    22   17   18 1
    23   17   19 1
    24   17   36 1
    25   18   37 1
    26   19   20 1
    27   19   21 1
    28   19   38 1
    29   20   39 1
    30   21   22 1
    31   21   40 1
    32   22   23 ar
    33   22   31 ar
    34   23   24 ar
    35   23   41 1
    36   24   25 ar
    37   24   45 1
    38   25   26 ar
    39   25   31 ar
    40   26   27 2
    41   26   28 ar
    42   27   42 1
    43   28   29 ar
    44   28   44 1
    45   29   30 ar
    46   29   43 1
    47   30   31 ar
@<TRIPOS>SUBSTRUCTURE
     1 ATP         1 GROUP 0 A     ****
@<TRIPOS>MOLECULE
[[[3,4-dihydroxy-5-(6-imino-7,8-dihydro-1~{H}-purin-8-ylium-9-yl)tetrahydrofuran-2-yl]methoxy-oxido-phosphoryl]oxy-oxido-phosphoryl] hydrogen phosphate
   45    47     1     0     0
SMALL
USER_CHARGES

@<TRIPOS>ATOM
      1 PG          7.9826   -2.2143   -2.2509 P.3       1 ATP         1.5631
      2 O1G         9.1716   -1.5172   -2.8738 O.co2     1 ATP        -0.8806
      3 O2G         7.0755   -3.0952   -3.0809 O.co2     1 ATP        -0.8806
      4 O3G         8.5011   -3.0724   -0.9622 O.3       1 ATP        -0.8165
      5 PB          6.1942    0.1321   -2.0518 P.3       1 ATP         1.6877
      6 O1B         5.4028    0.7457   -0.9184 O.co2     1 ATP        -0.8727
      7 O2B         7.0834    0.9790   -2.9348 O.co2     1 ATP        -0.8727
      8 O3B         7.0731   -1.1116   -1.4632 O.3       1 ATP        -0.8330
      9 PA          3.9554   -0.2064   -3.9565 P.3       1 ATP         1.6036
     10 O1A         3.2313   -1.4129   -4.5136 O.co2     1 ATP        -0.9062
     11 O2A         4.4942    0.8660   -4.8781 O.co2     1 ATP        -0.9062
     12 O3A         5.1753   -0.7215   -2.9994 O.3       1 ATP        -0.8166
     13 O5'         3.0213    0.5153   -2.8245 O.3       1 ATP        -0.5510
     14 C5'         2.2816   -0.2918   -1.9206 C.3       1 ATP         0.2099
     15 C4'         2.7248    0.0226   -0.4980 C.3       1 ATP         0.0598
     16 O4'         2.4697    1.4219   -0.2462 O.3       1 ATP        -0.3455
     17 C3'         1.9404   -0.7419    0.5596 C.3       1 ATP         0.0742
     18 O3'         2.7418   -0.8086    1.7389 O.3       1 ATP        -0.6025
     19 C2'         0.7477    0.1630    0.7858 C.3       1 ATP         0.1145
     20 O2'         0.1373   -0.0577    2.0407 O.3       1 ATP        -0.5835
     21 C1'         1.3733    1.5427    0.6747 C.3       1 ATP         0.3776
     22 N9          0.4520    2.5240    0.1767 N.pl3     1 ATP        -0.4429
     23 C8          0.5691    3.2215   -0.9485 C.ar      1 ATP         0.2964
     24 N7         -0.4499    4.0551   -1.1342 N.pl3     1 ATP        -0.4957
     25 C5         -1.2618    3.8674   -0.0512 C.ar      1 ATP        -0.1346
     26 C6         -2.5420    4.5007    0.3120 C.ar      1 ATP         0.7213
     27 N6         -3.0874    5.3993   -0.4432 N.2       1 ATP        -0.8215
     28 N1         -3.0494    4.0205    1.5133 N.pl3     1 ATP        -0.8455
     29 C2         -2.3933    3.0527    2.2567 C.ar      1 ATP         0.6477
     30 N3         -1.2611    2.4796    1.9536 N.2       1 ATP        -0.5707
     31 C4         -0.7334    2.9358    0.7669 C.ar      1 ATP         0.2637
     32 HOG3        7.8424   -3.5852   -0.4471 H         1 ATP         0.4378
     33 H5'1        1.2163   -0.0770   -2.0471 H         1 ATP         0.0340
     34 H5'2        2.4655   -1.3443   -2.1563 H         1 ATP         0.0340
     35 H4'         3.8044   -0.1397   -0.4040 H         1 ATP         0.0910
     36 H3'         1.6764   -1.7639    0.2728 H         1 ATP         0.0656
     37 HO3'        2.2232   -1.2979    2.3953 H         1 ATP         0.4386
     38 H2'        -0.0011    0.0027    0.0003 H         1 ATP         0.0788
     39 HO2'       -0.1563   -0.9855    2.0596 H         1 ATP         0.4363
     40 H1'         1.7826    1.9024    1.6451 H         1 ATP         0.1225
     41 H8          1.3912    3.1285   -1.6365 H         1 ATP         0.3824
     42 HN62       -3.9637    5.7083   -0.0142 H         1 ATP         0.4018
     43 H2         -2.9317    2.7866    3.1796 H         1 ATP         0.0652
     44 H44        -3.9307    4.3923    1.8558 H         1 ATP         0.4503
     45 H45        -0.5835    4.6857   -1.9122 H         1 ATP         0.5209
@<TRIPOS>BOND
     1    1    2 2
     2    1    3 1
     3    1    4 1
     4    1    8 1
     5    4   32 1
     6    5    6 2
     7    5    7 1
     8    5    8 1
     9    5   12 1
    10    9   10 2
    11    9   11 1
    12    9   12 1
    13    9   13 1
    14   13   14 1
    15   14   15 1
    16   14   33 1
    17   14   34 1
    18   15   16 1
    19   15   17 1
    20   15   35 1
    21   16   21 1
    22   17   18 1
    23   17   19 1
    24   17   36 1
    25   18   37 1
    26   19   20 1
    27   19   21 1
    28   19   38 1
    29   20   39 1
    30   21   22 1
    31   21   40 1
    32   22   23 ar
    33   22   31 ar
    34   23   24 ar
    35   23   41 1
    36   24   25 ar
    37   24   45 1
    38   25   26 ar
    39   25   31 ar
    40   26   27 2
    41   26   28 ar
    42   27   42 1
    43   28   29 ar
    44   28   44 1
    45   29   30 ar
    46   29   43 1
    47   30   31 ar
@<TRIPOS>SUBSTRUCTURE
     1 ATP         1 GROUP 0 A     ****
@<TRIPOS>MOLECULE
[[[3,4-dihydroxy-5-(6-imino-7,8-dihydro-1~{H}-purin-8-ylium-9-yl)tetrahydrofuran-2-yl]methoxy-oxido-phosphoryl]oxy-oxido-phosphoryl] hydrogen phosphate
   45    47     1     0     0
SMALL
USER_CHARGES

@<TRIPOS>ATOM
      1 PG          6.5985   -2.4062   -0.5899 P.3       1 ATP         1.5631
      2 O1G         5.7175   -3.2842   -1.4502 O.co2     1 ATP        -0.8806
      3 O2G         6.1354   -1.9362    0.7712 O.co2     1 ATP        -0.8806
      4 O3G         8.0498   -3.1349   -0.4205 O.3       1 ATP        -0.8165
      5 PB          6.1942    0.1321   -2.0518 P.3       1 ATP         1.6877
      6 O1B         5.4028    0.7457   -0.9184 O.co2     1 ATP        -0.8727
      7 O2B         7.0834    0.9790   -2.9348 O.co2     1 ATP        -0.8727
      8 O3B         7.0731   -1.1116   -1.4632 O.3       1 ATP        -0.8330
      9 PA          3.9554   -0.2064   -3.9565 P.3       1 ATP         1.6036
     10 O1A         3.2313   -1.4129   -4.5136 O.co2     1 ATP        -0.9062
     11 O2A         4.4942    0.8660   -4.8781 O.co2     1 ATP        -0.9062
     12 O3A         5.1753   -0.7215   -2.9994 O.3       1 ATP        -0.8166
     13 O5'         3.0213    0.5153   -2.8245 O.3       1 ATP        -0.5510
     14 C5'         2.2816   -0.2918   -1.9206 C.3       1 ATP         0.2099
     15 C4'         2.7248    0.0226   -0.4980 C.3       1 ATP         0.0598
     16 O4'         2.4697    1.4219   -0.2462 O.3       1 ATP        -0.3455
     17 C3'         1.9404   -0.7419    0.5596 C.3       1 ATP         0.0742
     18 O3'         2.7418   -0.8086    1.7389 O.3       1 ATP        -0.6025
     19 C2'         0.7477    0.1630    0.7858 C.3       1 ATP         0.1145
     20 O2'         0.1373   -0.0577    2.0407 O.3       1 ATP        -0.5835
     21 C1'         1.3733    1.5427    0.6747 C.3       1 ATP         0.3776
     22 N9          0.4520    2.5240    0.1767 N.pl3     1 ATP        -0.4429
     23 C8         -0.8620    2.5492    0.3743 C.ar      1 ATP         0.2964
     24 N7         -1.4419    3.5886   -0.2183 N.pl3     1 ATP        -0.4957
     25 C5         -0.4215    4.2614   -0.8294 C.ar      1 ATP        -0.1346
     26 C6         -0.4310    5.4918   -1.6405 C.ar      1 ATP         0.7213
     27 N6         -1.5302    6.1308   -1.8826 N.2       1 ATP        -0.8215
     28 N1          0.8382    5.8461   -2.0817 N.pl3     1 ATP        -0.8455
     29 C2          1.9625    5.0982   -1.7709 C.ar      1 ATP         0.6477
     30 N3          1.9930    4.0077   -1.0554 N.2       1 ATP        -0.5707
     31 C4          0.7483    3.6314   -0.6038 C.ar      1 ATP         0.2637
     32 HOG3        8.7379   -2.6861    0.1155 H         1 ATP         0.4378
     33 H5'1        1.2163   -0.0770   -2.0471 H         1 ATP         0.0340
     34 H5'2        2.4655   -1.3443   -2.1563 H         1 ATP         0.0340
     35 H4'         3.8044   -0.1397   -0.4040 H         1 ATP         0.0910
     36 H3'         1.6764   -1.7639    0.2728 H         1 ATP         0.0656
     37 HO3'        2.2232   -1.2979    2.3953 H         1 ATP         0.4386
     38 H2'        -0.0011    0.0027    0.0003 H         1 ATP         0.0788
     39 HO2'       -0.1563   -0.9855    2.0596 H         1 ATP         0.4363
     40 H1'         1.7826    1.9024    1.6451 H         1 ATP         0.1225
     41 H8         -1.4030    1.8165    0.9473 H         1 ATP         0.3824
     42 HN62       -1.3197    6.9504   -2.4583 H         1 ATP         0.4018
     43 H2          2.8857    5.5186   -2.1994 H         1 ATP         0.0652
     44 H44         0.9433    6.6815   -2.6502 H         1 ATP         0.4503
     45 H45        -2.4254    3.8199   -0.2108 H         1 ATP         0.5209
@<TRIPOS>BOND
     1    1    2 2
     2    1    3 1
     3    1    4 1
     4    1    8 1
     5    4   32 1
     6    5    6 2
     7    5    7 1
     8    5    8 1
     9    5   12 1
    10    9   10 2
    11    9   11 1
    12    9   12 1
    13    9   13 1
    14   13   14 1
    15   14   15 1
    16   14   33 1
    17   14   34 1
    18   15   16 1
    19   15   17 1
    20   15   35 1
    21   16   21 1
    22   17   18 1
    23   17   19 1
    24   17   36 1
    25   18   37 1
    26   19   20 1
    27   19   21 1
    28   19   38 1
    29   20   39 1
    30   21   22 1
    31   21   40 1
    32   22   23 ar
    33   22   31 ar
    34   23   24 ar
    35   23   41 1
    36   24   25 ar
    37   24   45 1
    38   25   26 ar
    39   25   31 ar
    40   26   27 2
    41   26   28 ar
    42   27   42 1
    43   28   29 ar
    44   28   44 1
    45   29   30 ar
    46   29   43 1
    47   30   31 ar
@<TRIPOS>SUBSTRUCTURE
     1 ATP         1 GROUP 0 A     ****
