@<TRIPOS>MOLECULE
[[[5-(6-aminopurin-9-yl)-3,4-dihydroxy-tetrahydrofuran-2-yl]methoxy-hydroxy-phosphoryl]oxy-hydroxy-phosphoryl] phosphate
   45    47     1     0     0
SMALL
USER_CHARGES

@<TRIPOS>ATOM
      1 PG         -4.5930   -0.1668    4.1229 P.3       1 ATP         1.3364
      2 O1G        -5.7476    0.5321    4.8331 O.co2     1 ATP        -0.8759
      3 O2G        -3.3561   -0.3766    4.9901 O.co2     1 ATP        -0.8759
      4 O3G        -5.0054   -1.3925    3.3143 O.co2     1 ATP        -0.8759
      5 PB         -4.9163    1.5768    1.7427 P.3       1 ATP         1.7980
      6 O1B        -5.4498    0.5964    0.7404 O.2       1 ATP        -0.9123
      7 O2B        -6.0357    2.4870    2.4719 O.3       1 ATP        -0.7754
      8 O3B        -4.1089    0.9151    2.9780 O.3       1 ATP        -0.6996
      9 PA         -3.0702    3.8637    1.8801 P.3       1 ATP         1.7855
     10 O1A        -3.8863    4.6225    2.8860 O.2       1 ATP        -0.8495
     11 O2A        -2.5441    4.7561    0.6375 O.3       1 ATP        -0.8288
     12 O3A        -3.8670    2.6567    1.1582 O.3       1 ATP        -0.8018
     13 O5'        -1.7334    3.1724    2.4742 O.3       1 ATP        -0.5853
     14 C5'        -0.8811    2.4285    1.6206 C.3       1 ATP         0.1809
     15 C4'        -0.1994    1.3333    2.4288 C.3       1 ATP         0.1309
     16 O4'        -1.1285    0.2356    2.5840 O.3       1 ATP        -0.4224
     17 C3'         1.0324    0.7610    1.7344 C.3       1 ATP         0.0947
     18 O3'         1.9175    0.2377    2.7247 O.3       1 ATP        -0.5906
     19 C2'         0.4468   -0.3802    0.9263 C.3       1 ATP         0.0556
     20 O2'         1.3993   -1.3703    0.5961 O.3       1 ATP        -0.5838
     21 C1'        -0.6159   -0.9100    1.8769 C.3       1 ATP         0.4381
     22 N9         -1.7127   -1.6108    1.2130 N.pl3     1 ATP        -0.6883
     23 C8         -2.5476   -1.0844    0.2632 C.ar      1 ATP         0.5620
     24 N7         -3.4391   -1.9591   -0.1536 N.2       1 ATP        -0.5584
     25 C5         -3.1701   -3.1016    0.5574 C.ar      1 ATP        -0.2164
     26 C6         -3.7593   -4.3620    0.5656 C.ar      1 ATP         0.7376
     27 N6         -4.8512   -4.6493   -0.2712 N.pl3     1 ATP        -0.9514
     28 N1         -3.2659   -5.3144    1.3932 N.ar      1 ATP        -0.8054
     29 C2         -2.2122   -4.9785    2.1759 C.ar      1 ATP         0.6649
     30 N3         -1.5595   -3.7985    2.2572 N.ar      1 ATP        -0.7136
     31 C4         -2.0986   -2.9054    1.4140 C.ar      1 ATP         0.5805
     32 HOB2       -6.7383    2.0462    2.9954 H         1 ATP         0.4367
     33 HOA2       -3.2012    5.2003    0.0605 H         1 ATP         0.4916
     34 H5'1       -1.4794    1.9921    0.8142 H         1 ATP         0.0552
     35 H5'2       -0.1361    3.1034    1.1867 H         1 ATP         0.0552
     36 H4'         0.0402    1.7079    3.4342 H         1 ATP         0.1061
     37 H3'         1.5907    1.4859    1.1353 H         1 ATP         0.0937
     38 HO3'        2.6839   -0.1150    2.2479 H         1 ATP         0.4070
     39 H2'        -0.0017    0.0018    0.0005 H         1 ATP         0.0758
     40 HO2'        2.0953   -0.9375    0.0709 H         1 ATP         0.4080
     41 H1'        -0.1998   -1.6319    2.6178 H         1 ATP         0.1071
     42 H8         -2.4576   -0.0639   -0.0831 H         1 ATP         0.1022
     43 HN61       -5.2371   -3.9234   -0.8448 H         1 ATP         0.4336
     44 HN62       -5.2909   -5.5485   -0.2160 H         1 ATP         0.4336
     45 H2         -1.8433   -5.7650    2.8259 H         1 ATP         0.0401
@<TRIPOS>BOND
     1    1    2 2
     2    1    3 1
     3    1    4 1
     4    1    8 1
     5    5    6 2
     6    5    7 1
     7    5    8 1
     8    5   12 1
     9    7   32 1
    10    9   10 2
    11    9   11 1
    12    9   12 1
    13    9   13 1
    14   11   33 1
    15   13   14 1
    16   14   15 1
    17   14   34 1
    18   14   35 1
    19   15   16 1
    20   15   17 1
    21   15   36 1
    22   16   21 1
    23   17   18 1
    24   17   19 1
    25   17   37 1
    26   18   38 1
    27   19   20 1
    28   19   21 1
    29   19   39 1
    30   20   40 1
    31   21   22 1
    32   21   41 1
    33   22   23 ar
    34   22   31 ar
    35   23   24 ar
    36   23   42 1
    37   24   25 ar
    38   25   26 ar
    39   25   31 ar
    40   26   27 1
    41   26   28 ar
    42   27   43 1
    43   27   44 1
    44   28   29 ar
    45   29   30 ar
    46   29   45 1
    47   30   31 ar
@<TRIPOS>SUBSTRUCTURE
     1 ATP         1 GROUP 0 A     ****
@<TRIPOS>MOLECULE
[[[5-(6-aminopurin-9-yl)-3,4-dihydroxy-tetrahydrofuran-2-yl]methoxy-hydroxy-phosphoryl]oxy-hydroxy-phosphoryl] phosphate
   45    47     1     0     0
SMALL
USER_CHARGES

@<TRIPOS>ATOM
      1 PG         -3.0724    2.2561   -2.9914 P.3       1 ATP         1.3364
      2 O1G        -2.3870    3.3628   -3.7861 O.co2     1 ATP        -0.8759
      3 O2G        -3.8515    1.2600   -3.8439 O.co2     1 ATP        -0.8759
      4 O3G        -2.1912    1.6128   -1.9257 O.co2     1 ATP        -0.8759
      5 PB         -4.1076    4.2219   -1.0231 P.3       1 ATP         1.7980
      6 O1B        -3.4781    5.4878   -1.5250 O.2       1 ATP        -0.9123
      7 O2B        -5.6193    4.3811   -0.4732 O.3       1 ATP        -0.7754
      8 O3B        -4.2312    3.0417   -2.1220 O.3       1 ATP        -0.6996
      9 PA         -2.9684    4.0281    1.6828 P.3       1 ATP         1.7855
     10 O1A        -4.1644    4.3960    2.5121 O.2       1 ATP        -0.8495
     11 O2A        -1.9467    5.2513    1.4052 O.3       1 ATP        -0.8288
     12 O3A        -3.3306    3.5036    0.1973 O.3       1 ATP        -0.8018
     13 O5'        -2.0396    2.8622    2.3120 O.3       1 ATP        -0.5853
     14 C5'        -0.8811    2.4285    1.6206 C.3       1 ATP         0.1809
     15 C4'        -0.1994    1.3333    2.4288 C.3       1 ATP         0.1309
     16 O4'        -1.1285    0.2356    2.5840 O.3       1 ATP        -0.4224
     17 C3'         1.0324    0.7610    1.7344 C.3       1 ATP         0.0947
     18 O3'         1.9175    0.2377    2.7247 O.3       1 ATP        -0.5906
     19 C2'         0.4468   -0.3802    0.9263 C.3       1 ATP         0.0556
     20 O2'         1.3993   -1.3703    0.5961 O.3       1 ATP        -0.5838
     21 C1'        -0.6159   -0.9100    1.8769 C.3       1 ATP         0.4381
     22 N9         -1.7127   -1.6108    1.2130 N.pl3     1 ATP        -0.6883
     23 C8         -1.7712   -2.9546    0.9544 C.ar      1 ATP         0.5620
     24 N7         -2.8883   -3.2948    0.3462 N.2       1 ATP        -0.5584
     25 C5         -3.5834   -2.1202    0.2043 C.ar      1 ATP        -0.2164
     26 C6         -4.8225   -1.8251   -0.3554 C.ar      1 ATP         0.7376
     27 N6         -5.6154   -2.8394   -0.9189 N.pl3     1 ATP        -0.9514
     28 N1         -5.2589   -0.5425   -0.3507 N.ar      1 ATP        -0.8054
     29 C2         -4.4510    0.3913    0.2069 C.ar      1 ATP         0.6649
     30 N3         -3.2368    0.2296    0.7767 N.ar      1 ATP        -0.7136
     31 C4         -2.8684   -1.0596    0.7376 C.ar      1 ATP         0.5805
     32 HOB2       -5.7891    4.9870    0.2793 H         1 ATP         0.4367
     33 HOA2       -1.5244    5.6994    2.1687 H         1 ATP         0.4916
     34 H5'1       -1.1760    2.0498    0.6365 H         1 ATP         0.0552
     35 H5'2       -0.2072    3.2811    1.4873 H         1 ATP         0.0552
     36 H4'         0.0402    1.7079    3.4342 H         1 ATP         0.1061
     37 H3'         1.5907    1.4859    1.1353 H         1 ATP         0.0937
     38 HO3'        2.6839   -0.1150    2.2479 H         1 ATP         0.4070
     39 H2'        -0.0017    0.0018    0.0005 H         1 ATP         0.0758
     40 HO2'        2.0953   -0.9375    0.0709 H         1 ATP         0.4080
     41 H1'        -0.1998   -1.6319    2.6178 H         1 ATP         0.1071
     42 H8         -0.9745   -3.6312    1.2318 H         1 ATP         0.1022
     43 HN61       -5.2619   -3.7766   -0.9586 H         1 ATP         0.4336
     44 HN62       -6.4834   -2.5990   -1.3590 H         1 ATP         0.4336
     45 H2         -4.8317    1.4071    0.1930 H         1 ATP         0.0401
@<TRIPOS>BOND
     1    1    2 2
     2    1    3 1
     3    1    4 1
     4    1    8 1
     5    5    6 2
     6    5    7 1
     7    5    8 1
     8    5   12 1
     9    7   32 1
    10    9   10 2
    11    9   11 1
    12    9   12 1
    13    9   13 1
    14   11   33 1
    15   13   14 1
    16   14   15 1
    17   14   34 1
    18   14   35 1
    19   15   16 1
    20   15   17 1
    21   15   36 1
    22   16   21 1
    23   17   18 1
    24   17   19 1
    25   17   37 1
    26   18   38 1
    27   19   20 1
    28   19   21 1
    29   19   39 1
    30   20   40 1
    31   21   22 1
    32   21   41 1
    33   22   23 ar
    34   22   31 ar
    35   23   24 ar
    36   23   42 1
    37   24   25 ar
    38   25   26 ar
    39   25   31 ar
    40   26   27 1
    41   26   28 ar
    42   27   43 1
    43   27   44 1
    44   28   29 ar
    45   29   30 ar
    46   29   45 1
    47   30   31 ar
@<TRIPOS>SUBSTRUCTURE
     1 ATP         1 GROUP 0 A     ****
@<TRIPOS>MOLECULE
[[[5-(6-aminopurin-9-yl)-3,4-dihydroxy-tetrahydrofuran-2-yl]methoxy-hydroxy-phosphoryl]oxy-hydroxy-phosphoryl] phosphate
   45    47     1     0     0
SMALL
USER_CHARGES

@<TRIPOS>ATOM
      1 PG         -3.0724    2.2561   -2.9914 P.3       1 ATP         1.3364
      2 O1G        -2.3870    3.3628   -3.7861 O.co2     1 ATP        -0.8759
      3 O2G        -3.8515    1.2600   -3.8439 O.co2     1 ATP        -0.8759
      4 O3G        -2.1912    1.6128   -1.9257 O.co2     1 ATP        -0.8759
      5 PB         -4.1076    4.2219   -1.0231 P.3       1 ATP         1.7980
      6 O1B        -3.4781    5.4878   -1.5250 O.2       1 ATP        -0.9123
      7 O2B        -5.6193    4.3811   -0.4732 O.3       1 ATP        -0.7754
      8 O3B        -4.2312    3.0417   -2.1220 O.3       1 ATP        -0.6996
      9 PA         -2.9684    4.0281    1.6828 P.3       1 ATP         1.7855
     10 O1A        -4.1644    4.3960    2.5121 O.2       1 ATP        -0.8495
     11 O2A        -1.9467    5.2513    1.4052 O.3       1 ATP        -0.8288
     12 O3A        -3.3306    3.5036    0.1973 O.3       1 ATP        -0.8018
     13 O5'        -2.0396    2.8622    2.3120 O.3       1 ATP        -0.5853
     14 C5'        -0.8811    2.4285    1.6206 C.3       1 ATP         0.1809
     15 C4'        -0.1994    1.3333    2.4288 C.3       1 ATP         0.1309
     16 O4'        -1.1285    0.2356    2.5840 O.3       1 ATP        -0.4224
     17 C3'         1.0324    0.7610    1.7344 C.3       1 ATP         0.0947
     18 O3'         1.9175    0.2377    2.7247 O.3       1 ATP        -0.5906
     19 C2'         0.4468   -0.3802    0.9263 C.3       1 ATP         0.0556
     20 O2'         1.3993   -1.3703    0.5961 O.3       1 ATP        -0.5838
     21 C1'        -0.6159   -0.9100    1.8769 C.3       1 ATP         0.4381
     22 N9         -1.7127   -1.6108    1.2130 N.pl3     1 ATP        -0.6883
     23 C8         -2.8641   -1.0399    0.7392 C.ar      1 ATP         0.5620
     24 N7         -3.6659   -1.9257    0.1858 N.2       1 ATP        -0.5584
     25 C5         -3.0053   -3.1223    0.3069 C.ar      1 ATP        -0.2164
     26 C6         -3.3321   -4.4178   -0.0813 C.ar      1 ATP         0.7376
     27 N6         -4.5476   -4.6866   -0.7335 N.pl3     1 ATP        -0.9514
     28 N1         -2.4608   -5.4225    0.1773 N.ar      1 ATP        -0.8054
     29 C2         -1.3053   -5.1020    0.8081 C.ar      1 ATP         0.6649
     30 N3         -0.8788   -3.8921    1.2315 N.ar      1 ATP        -0.7136
     31 C4         -1.7870   -2.9477    0.9438 C.ar      1 ATP         0.5805
     32 HOB2       -5.7891    4.9870    0.2793 H         1 ATP         0.4367
     33 HOA2       -1.5244    5.6994    2.1687 H         1 ATP         0.4916
     34 H5'1       -1.1760    2.0498    0.6365 H         1 ATP         0.0552
     35 H5'2       -0.2072    3.2811    1.4873 H         1 ATP         0.0552
     36 H4'         0.0402    1.7079    3.4342 H         1 ATP         0.1061
     37 H3'         1.5907    1.4859    1.1353 H         1 ATP         0.0937
     38 HO3'        2.6839   -0.1150    2.2479 H         1 ATP         0.4070
     39 H2'        -0.0017    0.0018    0.0005 H         1 ATP         0.0758
     40 HO2'        2.0953   -0.9375    0.0709 H         1 ATP         0.4080
     41 H1'        -0.1998   -1.6319    2.6178 H         1 ATP         0.1071
     42 H8         -3.0609    0.0200    0.8250 H         1 ATP         0.1022
     43 HN61       -5.2046   -3.9433   -0.8775 H         1 ATP         0.4336
     44 HN62       -4.7849   -5.6332   -0.9625 H         1 ATP         0.4336
     45 H2         -0.6318   -5.9307    0.9993 H         1 ATP         0.0401
@<TRIPOS>BOND
     1    1    2 2
     2    1    3 1
     3    1    4 1
     4    1    8 1
     5    5    6 2
     6    5    7 1
     7    5    8 1
     8    5   12 1
     9    7   32 1
    10    9   10 2
    11    9   11 1
    12    9   12 1
    13    9   13 1
    14   11   33 1
    15   13   14 1
    16   14   15 1
    17   14   34 1
    18   14   35 1
    19   15   16 1
    20   15   17 1
    21   15   36 1
    22   16   21 1
    23   17   18 1
    24   17   19 1
    25   17   37 1
    26   18   38 1
    27   19   20 1
    28   19   21 1
    29   19   39 1
    30   20   40 1
    31   21   22 1
    32   21   41 1
    33   22   23 ar
    34   22   31 ar
    35   23   24 ar
    36   23   42 1
    37   24   25 ar
    38   25   26 ar
    39   25   31 ar
    40   26   27 1
    41   26   28 ar
    42   27   43 1
    43   27   44 1
    44   28   29 ar
    45   29   30 ar
    46   29   45 1
    47   30   31 ar
@<TRIPOS>SUBSTRUCTURE
     1 ATP         1 GROUP 0 A     ****
@<TRIPOS>MOLECULE
[[[5-(6-aminopurin-9-yl)-3,4-dihydroxy-tetrahydrofuran-2-yl]methoxy-hydroxy-phosphoryl]oxy-hydroxy-phosphoryl] phosphate
   45    47     1     0     0
SMALL
USER_CHARGES

@<TRIPOS>ATOM
      1 PG         -5.8841    0.8745   -0.9739 P.3       1 ATP         1.3364
      2 O1G        -7.3026    1.3055   -0.6162 O.co2     1 ATP        -0.8759
      3 O2G        -5.7979   -0.4638   -1.7002 O.co2     1 ATP        -0.8759
      4 O3G        -5.0316    1.9778   -1.5920 O.co2     1 ATP        -0.8759
      5 PB         -4.9163    1.5768    1.7427 P.3       1 ATP         1.7980
      6 O1B        -6.1602    2.1570    2.3483 O.2       1 ATP        -0.9123
      7 O2B        -4.0220    0.6787    2.7460 O.3       1 ATP        -0.7754
      8 O3B        -5.1678    0.5937    0.4834 O.3       1 ATP        -0.6996
      9 PA         -3.0702    3.8637    1.8801 P.3       1 ATP         1.7855
     10 O1A        -3.8863    4.6225    2.8860 O.2       1 ATP        -0.8495
     11 O2A        -2.5441    4.7561    0.6375 O.3       1 ATP        -0.8288
     12 O3A        -3.8670    2.6567    1.1582 O.3       1 ATP        -0.8018
     13 O5'        -1.7334    3.1724    2.4742 O.3       1 ATP        -0.5853
     14 C5'        -0.8811    2.4285    1.6206 C.3       1 ATP         0.1809
     15 C4'        -0.1994    1.3333    2.4288 C.3       1 ATP         0.1309
     16 O4'        -1.1285    0.2356    2.5840 O.3       1 ATP        -0.4224
     17 C3'         1.0324    0.7610    1.7344 C.3       1 ATP         0.0947
     18 O3'         1.9175    0.2377    2.7247 O.3       1 ATP        -0.5906
     19 C2'         0.4468   -0.3802    0.9263 C.3       1 ATP         0.0556
     20 O2'         1.3993   -1.3703    0.5961 O.3       1 ATP        -0.5838
     21 C1'        -0.6159   -0.9100    1.8769 C.3       1 ATP         0.4381
     22 N9         -1.7127   -1.6108    1.2130 N.pl3     1 ATP        -0.6883
     23 C8         -2.5476   -1.0844    0.2632 C.ar      1 ATP         0.5620
     24 N7         -3.4391   -1.9591   -0.1536 N.2       1 ATP        -0.5584
     25 C5         -3.1701   -3.1016    0.5574 C.ar      1 ATP        -0.2164
     26 C6         -3.7593   -4.3620    0.5656 C.ar      1 ATP         0.7376
     27 N6         -4.8512   -4.6493   -0.2712 N.pl3     1 ATP        -0.9514
     28 N1         -3.2659   -5.3144    1.3932 N.ar      1 ATP        -0.8054
     29 C2         -2.2122   -4.9785    2.1759 C.ar      1 ATP         0.6649
     30 N3         -1.5595   -3.7985    2.2572 N.ar      1 ATP        -0.7136
     31 C4         -2.0986   -2.9054    1.4140 C.ar      1 ATP         0.5805
     32 HOB2       -3.6603    1.0924    3.5586 H         1 ATP         0.4367
     33 HOA2       -3.2012    5.2003    0.0605 H         1 ATP         0.4916
     34 H5'1       -1.4794    1.9921    0.8142 H         1 ATP         0.0552
     35 H5'2       -0.1361    3.1034    1.1867 H         1 ATP         0.0552
     36 H4'         0.0402    1.7079    3.4342 H         1 ATP         0.1061
     37 H3'         1.5907    1.4859    1.1353 H         1 ATP         0.0937
     38 HO3'        2.6839   -0.1150    2.2479 H         1 ATP         0.4070
     39 H2'        -0.0017    0.0018    0.0005 H         1 ATP         0.0758
     40 HO2'        2.0953   -0.9375    0.0709 H         1 ATP         0.4080
     41 H1'        -0.1998   -1.6319    2.6178 H         1 ATP         0.1071
     42 H8         -2.4576   -0.0639   -0.0831 H         1 ATP         0.1022
     43 HN61       -5.2371   -3.9234   -0.8448 H         1 ATP         0.4336
     44 HN62       -5.2909   -5.5485   -0.2160 H         1 ATP         0.4336
     45 H2         -1.8433   -5.7650    2.8259 H         1 ATP         0.0401
@<TRIPOS>BOND
     1    1    2 2
     2    1    3 1
     3    1    4 1
     4    1    8 1
     5    5    6 2
     6    5    7 1
     7    5    8 1
     8    5   12 1
     9    7   32 1
    10    9   10 2
    11    9   11 1
    12    9   12 1
    13    9   13 1
    14   11   33 1
    15   13   14 1
    16   14   15 1
    17   14   34 1
    18   14   35 1
    19   15   16 1
    20   15   17 1
    21   15   36 1
    22   16   21 1
    23   17   18 1
    24   17   19 1
    25   17   37 1
    26   18   38 1
    27   19   20 1
    28   19   21 1
    29   19   39 1
    30   20   40 1
    31   21   22 1
    32   21   41 1
    33   22   23 ar
    34   22   31 ar
    35   23   24 ar
    36   23   42 1
    37   24   25 ar
    38   25   26 ar
    39   25   31 ar
    40   26   27 1
    41   26   28 ar
    42   27   43 1
    43   27   44 1
    44   28   29 ar
    45   29   30 ar
    46   29   45 1
    47   30   31 ar
@<TRIPOS>SUBSTRUCTURE
     1 ATP         1 GROUP 0 A     ****
@<TRIPOS>MOLECULE
[[[5-(6-aminopurin-9-yl)-3,4-dihydroxy-tetrahydrofuran-2-yl]methoxy-hydroxy-phosphoryl]oxy-hydroxy-phosphoryl] phosphate
   45    47     1     0     0
SMALL
USER_CHARGES

@<TRIPOS>ATOM
      1 PG         -6.3966   -0.7976    2.1063 P.3       1 ATP         1.3364
      2 O1G        -5.3730   -1.6703    2.8251 O.co2     1 ATP        -0.8759
      3 O2G        -6.8431   -1.3380    0.7520 O.co2     1 ATP        -0.8759
      4 O3G        -7.5382   -0.3118    2.9934 O.co2     1 ATP        -0.8759
      5 PB         -4.8243    1.6487    2.7010 P.3       1 ATP         1.7980
      6 O1B        -5.7143    2.3244    3.7021 O.2       1 ATP        -0.9123
      7 O2B        -3.6046    0.7980    3.3347 O.3       1 ATP        -0.7754
      8 O3B        -5.5681    0.5797    1.7421 O.3       1 ATP        -0.6996
      9 PA         -3.0702    3.8637    1.8801 P.3       1 ATP         1.7855
     10 O1A        -3.6262    4.9797    2.7162 O.2       1 ATP        -0.8495
     11 O2A        -2.6654    4.2955    0.3744 O.3       1 ATP        -0.8288
     12 O3A        -4.0963    2.6361    1.6502 O.3       1 ATP        -0.8018
     13 O5'        -1.7334    3.1724    2.4742 O.3       1 ATP        -0.5853
     14 C5'        -0.8811    2.4285    1.6206 C.3       1 ATP         0.1809
     15 C4'        -0.1994    1.3333    2.4288 C.3       1 ATP         0.1309
     16 O4'        -1.1285    0.2356    2.5840 O.3       1 ATP        -0.4224
     17 C3'         1.0324    0.7610    1.7344 C.3       1 ATP         0.0947
     18 O3'         1.9175    0.2377    2.7247 O.3       1 ATP        -0.5906
     19 C2'         0.4468   -0.3802    0.9263 C.3       1 ATP         0.0556
     20 O2'         1.3993   -1.3703    0.5961 O.3       1 ATP        -0.5838
     21 C1'        -0.6159   -0.9100    1.8769 C.3       1 ATP         0.4381
     22 N9         -1.7127   -1.6108    1.2130 N.pl3     1 ATP        -0.6883
     23 C8         -2.5476   -1.0844    0.2632 C.ar      1 ATP         0.5620
     24 N7         -3.4391   -1.9591   -0.1536 N.2       1 ATP        -0.5584
     25 C5         -3.1701   -3.1016    0.5574 C.ar      1 ATP        -0.2164
     26 C6         -3.7593   -4.3620    0.5656 C.ar      1 ATP         0.7376
     27 N6         -4.8512   -4.6493   -0.2712 N.pl3     1 ATP        -0.9514
     28 N1         -3.2659   -5.3144    1.3932 N.ar      1 ATP        -0.8054
     29 C2         -2.2122   -4.9785    2.1759 C.ar      1 ATP         0.6649
     30 N3         -1.5595   -3.7985    2.2572 N.ar      1 ATP        -0.7136
     31 C4         -2.0986   -2.9054    1.4140 C.ar      1 ATP         0.5805
     32 HOB2       -2.9433    1.2601    3.8927 H         1 ATP         0.4367
     33 HOA2       -1.9867    4.9918    0.2467 H         1 ATP         0.4916
     34 H5'1       -1.4794    1.9921    0.8142 H         1 ATP         0.0552
     35 H5'2       -0.1361    3.1034    1.1867 H         1 ATP         0.0552
     36 H4'         0.0402    1.7079    3.4342 H         1 ATP         0.1061
     37 H3'         1.5907    1.4859    1.1353 H         1 ATP         0.0937
     38 HO3'        2.6839   -0.1150    2.2479 H         1 ATP         0.4070
     39 H2'        -0.0017    0.0018    0.0005 H         1 ATP         0.0758
     40 HO2'        2.0953   -0.9375    0.0709 H         1 ATP         0.4080
     41 H1'        -0.1998   -1.6319    2.6178 H         1 ATP         0.1071
     42 H8         -2.4576   -0.0639   -0.0831 H         1 ATP         0.1022
     43 HN61       -5.2371   -3.9234   -0.8448 H         1 ATP         0.4336
     44 HN62       -5.2909   -5.5485   -0.2160 H         1 ATP         0.4336
     45 H2         -1.8433   -5.7650    2.8259 H         1 ATP         0.0401
@<TRIPOS>BOND
     1    1    2 2
     2    1    3 1
     3    1    4 1
     4    1    8 1
     5    5    6 2
     6    5    7 1
     7    5    8 1
     8    5   12 1
     9    7   32 1
    10    9   10 2
    11    9   11 1
    12    9   12 1
    13    9   13 1
    14   11   33 1
    15   13   14 1
    16   14   15 1
    17   14   34 1
    18   14   35 1
    19   15   16 1
    20   15   17 1
    21   15   36 1
    22   16   21 1
    23   17   18 1
    24   17   19 1
    25   17   37 1
    26   18   38 1
    27   19   20 1
    28   19   21 1
    29   19   39 1
    30   20   40 1
    31   21   22 1
    32   21   41 1
    33   22   23 ar
    34   22   31 ar
    35   23   24 ar
    36   23   42 1
    37   24   25 ar
    38   25   26 ar
    39   25   31 ar
    40   26   27 1
    41   26   28 ar
    42   27   43 1
    43   27   44 1
    44   28   29 ar
    45   29   30 ar
    46   29   45 1
    47   30   31 ar
@<TRIPOS>SUBSTRUCTURE
     1 ATP         1 GROUP 0 A     ****
@<TRIPOS>MOLECULE
[[[5-(6-aminopurin-9-yl)-3,4-dihydroxy-tetrahydrofuran-2-yl]methoxy-hydroxy-phosphoryl]oxy-hydroxy-phosphoryl] phosphate
   45    47     1     0     0
SMALL
USER_CHARGES

@<TRIPOS>ATOM
      1 PG         -3.1804    6.5088   -2.6724 P.3       1 ATP         1.3364
      2 O1G        -3.1456    5.6360   -3.9226 O.co2     1 ATP        -0.8759
      3 O2G        -1.9455    7.3832   -2.4815 O.co2     1 ATP        -0.8759
      4 O3G        -4.5025    7.2370   -2.4539 O.co2     1 ATP        -0.8759
      5 PB         -4.1076    4.2219   -1.0231 P.3       1 ATP         1.7980
      6 O1B        -5.5186    4.6364   -0.7269 O.2       1 ATP        -0.9123
      7 O2B        -3.9437    3.1792   -2.2474 O.3       1 ATP        -0.7754
      8 O3B        -3.1137    5.4323   -1.4265 O.3       1 ATP        -0.6996
      9 PA         -2.9684    4.0281    1.6828 P.3       1 ATP         1.7855
     10 O1A        -4.1644    4.3960    2.5121 O.2       1 ATP        -0.8495
     11 O2A        -1.9467    5.2513    1.4052 O.3       1 ATP        -0.8288
     12 O3A        -3.3306    3.5036    0.1973 O.3       1 ATP        -0.8018
     13 O5'        -2.0396    2.8622    2.3120 O.3       1 ATP        -0.5853
     14 C5'        -0.8811    2.4285    1.6206 C.3       1 ATP         0.1809
     15 C4'        -0.1994    1.3333    2.4288 C.3       1 ATP         0.1309
     16 O4'        -1.1285    0.2356    2.5840 O.3       1 ATP        -0.4224
     17 C3'         1.0324    0.7610    1.7344 C.3       1 ATP         0.0947
     18 O3'         1.9175    0.2377    2.7247 O.3       1 ATP        -0.5906
     19 C2'         0.4468   -0.3802    0.9263 C.3       1 ATP         0.0556
     20 O2'         1.3993   -1.3703    0.5961 O.3       1 ATP        -0.5838
     21 C1'        -0.6159   -0.9100    1.8769 C.3       1 ATP         0.4381
     22 N9         -1.7127   -1.6108    1.2130 N.pl3     1 ATP        -0.6883
     23 C8         -1.7712   -2.9546    0.9544 C.ar      1 ATP         0.5620
     24 N7         -2.8883   -3.2948    0.3462 N.2       1 ATP        -0.5584
     25 C5         -3.5834   -2.1202    0.2043 C.ar      1 ATP        -0.2164
     26 C6         -4.8225   -1.8251   -0.3554 C.ar      1 ATP         0.7376
     27 N6         -5.6154   -2.8394   -0.9189 N.pl3     1 ATP        -0.9514
     28 N1         -5.2589   -0.5425   -0.3507 N.ar      1 ATP        -0.8054
     29 C2         -4.4510    0.3913    0.2069 C.ar      1 ATP         0.6649
     30 N3         -3.2368    0.2296    0.7767 N.ar      1 ATP        -0.7136
     31 C4         -2.8684   -1.0596    0.7376 C.ar      1 ATP         0.5805
     32 HOB2       -4.3881    2.3066   -2.1902 H         1 ATP         0.4367
     33 HOA2       -1.5244    5.6994    2.1687 H         1 ATP         0.4916
     34 H5'1       -1.1760    2.0498    0.6365 H         1 ATP         0.0552
     35 H5'2       -0.2072    3.2811    1.4873 H         1 ATP         0.0552
     36 H4'         0.0402    1.7079    3.4342 H         1 ATP         0.1061
     37 H3'         1.5907    1.4859    1.1353 H         1 ATP         0.0937
     38 HO3'        2.6839   -0.1150    2.2479 H         1 ATP         0.4070
     39 H2'        -0.0017    0.0018    0.0005 H         1 ATP         0.0758
     40 HO2'        2.0953   -0.9375    0.0709 H         1 ATP         0.4080
     41 H1'        -0.1998   -1.6319    2.6178 H         1 ATP         0.1071
     42 H8         -0.9745   -3.6312    1.2318 H         1 ATP         0.1022
     43 HN61       -5.2619   -3.7766   -0.9586 H         1 ATP         0.4336
     44 HN62       -6.4834   -2.5990   -1.3590 H         1 ATP         0.4336
     45 H2         -4.8317    1.4071    0.1930 H         1 ATP         0.0401
@<TRIPOS>BOND
     1    1    2 2
     2    1    3 1
     3    1    4 1
     4    1    8 1
     5    5    6 2
     6    5    7 1
     7    5    8 1
     8    5   12 1
     9    7   32 1
    10    9   10 2
    11    9   11 1
    12    9   12 1
    13    9   13 1
    14   11   33 1
    15   13   14 1
    16   14   15 1
    17   14   34 1
    18   14   35 1
    19   15   16 1
    20   15   17 1
    21   15   36 1
    22   16   21 1
    23   17   18 1
    24   17   19 1
    25   17   37 1
    26   18   38 1
    27   19   20 1
    28   19   21 1
    29   19   39 1
    30   20   40 1
    31   21   22 1
    32   21   41 1
    33   22   23 ar
    34   22   31 ar
    35   23   24 ar
    36   23   42 1
    37   24   25 ar
    38   25   26 ar
    39   25   31 ar
    40   26   27 1
    41   26   28 ar
    42   27   43 1
    43   27   44 1
    44   28   29 ar
    45   29   30 ar
    46   29   45 1
    47   30   31 ar
@<TRIPOS>SUBSTRUCTURE
     1 ATP         1 GROUP 0 A     ****
@<TRIPOS>MOLECULE
[[[5-(6-aminopurin-9-yl)-3,4-dihydroxy-tetrahydrofuran-2-yl]methoxy-hydroxy-phosphoryl]oxy-hydroxy-phosphoryl] phosphate
   45    47     1     0     0
SMALL
USER_CHARGES

@<TRIPOS>ATOM
      1 PG         -5.7256    0.7134    2.2248 P.3       1 ATP         1.3364
      2 O1G        -6.8214    1.5576    2.8670 O.co2     1 ATP        -0.8759
      3 O2G        -4.9185   -0.1248    3.2106 O.co2     1 ATP        -0.8759
      4 O3G        -6.1684   -0.0428    0.9765 O.co2     1 ATP        -0.8759
      5 PB         -4.8297    3.0138    0.5768 P.3       1 ATP         1.7980
      6 O1B        -5.2596    2.5707   -0.7905 O.2       1 ATP        -0.9123
      7 O2B        -5.8445    4.0317    1.3165 O.3       1 ATP        -0.7754
      8 O3B        -4.6468    1.8199    1.6524 O.3       1 ATP        -0.6996
      9 PA         -2.5921    4.4092    1.8820 P.3       1 ATP         1.7855
     10 O1A        -3.4549    5.1148    2.8877 O.2       1 ATP        -0.8495
     11 O2A        -1.4936    5.3553    1.1641 O.3       1 ATP        -0.8288
     12 O3A        -3.4087    3.7795    0.6372 O.3       1 ATP        -0.8018
     13 O5'        -1.7334    3.1724    2.4742 O.3       1 ATP        -0.5853
     14 C5'        -0.8811    2.4285    1.6206 C.3       1 ATP         0.1809
     15 C4'        -0.1994    1.3333    2.4288 C.3       1 ATP         0.1309
     16 O4'        -1.1285    0.2356    2.5840 O.3       1 ATP        -0.4224
     17 C3'         1.0324    0.7610    1.7344 C.3       1 ATP         0.0947
     18 O3'         1.9175    0.2377    2.7247 O.3       1 ATP        -0.5906
     19 C2'         0.4468   -0.3802    0.9263 C.3       1 ATP         0.0556
     20 O2'         1.3993   -1.3703    0.5961 O.3       1 ATP        -0.5838
     21 C1'        -0.6159   -0.9100    1.8769 C.3       1 ATP         0.4381
     22 N9         -1.7127   -1.6108    1.2130 N.pl3     1 ATP        -0.6883
     23 C8         -2.8641   -1.0399    0.7392 C.ar      1 ATP         0.5620
     24 N7         -3.6659   -1.9257    0.1858 N.2       1 ATP        -0.5584
     25 C5         -3.0053   -3.1223    0.3069 C.ar      1 ATP        -0.2164
     26 C6         -3.3321   -4.4178   -0.0813 C.ar      1 ATP         0.7376
     27 N6         -4.5476   -4.6866   -0.7335 N.pl3     1 ATP        -0.9514
     28 N1         -2.4608   -5.4225    0.1773 N.ar      1 ATP        -0.8054
     29 C2         -1.3053   -5.1020    0.8081 C.ar      1 ATP         0.6649
     30 N3         -0.8788   -3.8921    1.2315 N.ar      1 ATP        -0.7136
     31 C4         -1.7870   -2.9477    0.9438 C.ar      1 ATP         0.5805
     32 HOB2       -6.0439    4.8938    0.8934 H         1 ATP         0.4367
     33 HOA2       -1.8001    6.1311    0.6482 H         1 ATP         0.4916
     34 H5'1       -1.4794    1.9921    0.8142 H         1 ATP         0.0552
     35 H5'2       -0.1361    3.1034    1.1867 H         1 ATP         0.0552
     36 H4'         0.0402    1.7079    3.4342 H         1 ATP         0.1061
     37 H3'         1.5907    1.4859    1.1353 H         1 ATP         0.0937
     38 HO3'        2.6839   -0.1150    2.2479 H         1 ATP         0.4070
     39 H2'        -0.0017    0.0018    0.0005 H         1 ATP         0.0758
     40 HO2'        0.9369   -2.0558    0.0825 H         1 ATP         0.4080
     41 H1'        -0.1998   -1.6319    2.6178 H         1 ATP         0.1071
     42 H8         -3.0609    0.0200    0.8250 H         1 ATP         0.1022
     43 HN61       -5.2046   -3.9433   -0.8775 H         1 ATP         0.4336
     44 HN62       -4.7849   -5.6332   -0.9625 H         1 ATP         0.4336
     45 H2         -0.6318   -5.9307    0.9993 H         1 ATP         0.0401
@<TRIPOS>BOND
     1    1    2 2
     2    1    3 1
     3    1    4 1
     4    1    8 1
     5    5    6 2
     6    5    7 1
     7    5    8 1
     8    5   12 1
     9    7   32 1
    10    9   10 2
    11    9   11 1
    12    9   12 1
    13    9   13 1
    14   11   33 1
    15   13   14 1
    16   14   15 1
    17   14   34 1
    18   14   35 1
    19   15   16 1
    20   15   17 1
    21   15   36 1
    22   16   21 1
    23   17   18 1
    24   17   19 1
    25   17   37 1
    26   18   38 1
    27   19   20 1
    28   19   21 1
    29   19   39 1
    30   20   40 1
    31   21   22 1
    32   21   41 1
    33   22   23 ar
    34   22   31 ar
    35   23   24 ar
    36   23   42 1
    37   24   25 ar
    38   25   26 ar
    39   25   31 ar
    40   26   27 1
    41   26   28 ar
    42   27   43 1
    43   27   44 1
    44   28   29 ar
    45   29   30 ar
    46   29   45 1
    47   30   31 ar
@<TRIPOS>SUBSTRUCTURE
     1 ATP         1 GROUP 0 A     ****
@<TRIPOS>MOLECULE
[[[5-(6-aminopurin-9-yl)-3,4-dihydroxy-tetrahydrofuran-2-yl]methoxy-hydroxy-phosphoryl]oxy-hydroxy-phosphoryl] phosphate
   45    47     1     0     0
SMALL
USER_CHARGES

@<TRIPOS>ATOM
      1 PG         -6.7572    0.3147   -0.6994 P.3       1 ATP         1.3364
      2 O1G        -7.9675    0.7396    0.1256 O.co2     1 ATP        -0.8759
      3 O2G        -6.4107   -1.1665   -0.5905 O.co2     1 ATP        -0.8759
      4 O3G        -6.7505    0.8556   -2.1254 O.co2     1 ATP        -0.8759
      5 PB         -5.2043    2.6583    0.2524 P.3       1 ATP         1.7980
      6 O1B        -5.1261    3.4780   -1.0017 O.2       1 ATP        -0.9123
      7 O2B        -6.3661    3.0993    1.2862 O.3       1 ATP        -0.7754
      8 O3B        -5.4888    1.0835    0.0188 O.3       1 ATP        -0.6996
      9 PA         -3.0702    3.8637    1.8801 P.3       1 ATP         1.7855
     10 O1A        -3.8863    4.6225    2.8860 O.2       1 ATP        -0.8495
     11 O2A        -2.5441    4.7561    0.6375 O.3       1 ATP        -0.8288
     12 O3A        -3.8670    2.6567    1.1582 O.3       1 ATP        -0.8018
     13 O5'        -1.7334    3.1724    2.4742 O.3       1 ATP        -0.5853
     14 C5'        -0.8811    2.4285    1.6206 C.3       1 ATP         0.1809
     15 C4'        -0.1994    1.3333    2.4288 C.3       1 ATP         0.1309
     16 O4'        -1.1285    0.2356    2.5840 O.3       1 ATP        -0.4224
     17 C3'         1.0324    0.7610    1.7344 C.3       1 ATP         0.0947
     18 O3'         1.9175    0.2377    2.7247 O.3       1 ATP        -0.5906
     19 C2'         0.4468   -0.3802    0.9263 C.3       1 ATP         0.0556
     20 O2'         1.3993   -1.3703    0.5961 O.3       1 ATP        -0.5838
     21 C1'        -0.6159   -0.9100    1.8769 C.3       1 ATP         0.4381
     22 N9         -1.7127   -1.6108    1.2130 N.pl3     1 ATP        -0.6883
     23 C8         -2.5476   -1.0844    0.2632 C.ar      1 ATP         0.5620
     24 N7         -3.4391   -1.9591   -0.1536 N.2       1 ATP        -0.5584
     25 C5         -3.1701   -3.1016    0.5574 C.ar      1 ATP        -0.2164
     26 C6         -3.7593   -4.3620    0.5656 C.ar      1 ATP         0.7376
     27 N6         -4.8512   -4.6493   -0.2712 N.pl3     1 ATP        -0.9514
     28 N1         -3.2659   -5.3144    1.3932 N.ar      1 ATP        -0.8054
     29 C2         -2.2122   -4.9785    2.1759 C.ar      1 ATP         0.6649
     30 N3         -1.5595   -3.7985    2.2572 N.ar      1 ATP        -0.7136
     31 C4         -2.0986   -2.9054    1.4140 C.ar      1 ATP         0.5805
     32 HOB2       -6.3526    4.0078    1.6558 H         1 ATP         0.4367
     33 HOA2       -1.9643    5.5262    0.8182 H         1 ATP         0.4916
     34 H5'1       -1.4794    1.9921    0.8142 H         1 ATP         0.0552
     35 H5'2       -0.1361    3.1034    1.1867 H         1 ATP         0.0552
     36 H4'         0.0402    1.7079    3.4342 H         1 ATP         0.1061
     37 H3'         1.5907    1.4859    1.1353 H         1 ATP         0.0937
     38 HO3'        2.6839   -0.1150    2.2479 H         1 ATP         0.4070
     39 H2'        -0.0017    0.0018    0.0005 H         1 ATP         0.0758
     40 HO2'        2.0953   -0.9375    0.0709 H         1 ATP         0.4080
     41 H1'        -0.1998   -1.6319    2.6178 H         1 ATP         0.1071
     42 H8         -2.4576   -0.0639   -0.0831 H         1 ATP         0.1022
     43 HN61       -5.2371   -3.9234   -0.8448 H         1 ATP         0.4336
     44 HN62       -5.2909   -5.5485   -0.2160 H         1 ATP         0.4336
     45 H2         -1.8433   -5.7650    2.8259 H         1 ATP         0.0401
@<TRIPOS>BOND
     1    1    2 2
     2    1    3 1
     3    1    4 1
     4    1    8 1
     5    5    6 2
     6    5    7 1
     7    5    8 1
     8    5   12 1
     9    7   32 1
    10    9   10 2
    11    9   11 1
    12    9   12 1
    13    9   13 1
    14   11   33 1
    15   13   14 1
    16   14   15 1
    17   14   34 1
    18   14   35 1
    19   15   16 1
    20   15   17 1
    21   15   36 1
    22   16   21 1
    23   17   18 1
    24   17   19 1
    25   17   37 1
    26   18   38 1
    27   19   20 1
    28   19   21 1
    29   19   39 1
    30   20   40 1
    31   21   22 1
    32   21   41 1
    33   22   23 ar
    34   22   31 ar
    35   23   24 ar
    36   23   42 1
    37   24   25 ar
    38   25   26 ar
    39   25   31 ar
    40   26   27 1
    41   26   28 ar
    42   27   43 1
    43   27   44 1
    44   28   29 ar
    45   29   30 ar
    46   29   45 1
    47   30   31 ar
@<TRIPOS>SUBSTRUCTURE
     1 ATP         1 GROUP 0 A     ****
@<TRIPOS>MOLECULE
[[[5-(6-aminopurin-9-yl)-3,4-dihydroxy-tetrahydrofuran-2-yl]methoxy-hydroxy-phosphoryl]oxy-hydroxy-phosphoryl] phosphate
   45    47     1     0     0
SMALL
USER_CHARGES

@<TRIPOS>ATOM
      1 PG         -7.6803    2.0667    2.7072 P.3       1 ATP         1.3364
      2 O1G        -8.2592    1.2135    1.5834 O.co2     1 ATP        -0.8759
      3 O2G        -8.3946    3.3976    2.9181 O.co2     1 ATP        -0.8759
      4 O3G        -7.3962    1.2984    3.9937 O.co2     1 ATP        -0.8759
      5 PB         -4.9163    1.5768    1.7427 P.3       1 ATP         1.7980
      6 O1B        -4.3849    0.6947    2.8337 O.2       1 ATP        -0.9123
      7 O2B        -5.4368    0.7975    0.4256 O.3       1 ATP        -0.7754
      8 O3B        -6.1835    2.4897    2.1630 O.3       1 ATP        -0.6996
      9 PA         -3.0702    3.8637    1.8801 P.3       1 ATP         1.7855
     10 O1A        -3.8863    4.6225    2.8860 O.2       1 ATP        -0.8495
     11 O2A        -2.5441    4.7561    0.6375 O.3       1 ATP        -0.8288
     12 O3A        -3.8670    2.6567    1.1582 O.3       1 ATP        -0.8018
     13 O5'        -1.7334    3.1724    2.4742 O.3       1 ATP        -0.5853
     14 C5'        -0.8811    2.4285    1.6206 C.3       1 ATP         0.1809
     15 C4'        -0.1994    1.3333    2.4288 C.3       1 ATP         0.1309
     16 O4'        -1.1285    0.2356    2.5840 O.3       1 ATP        -0.4224
     17 C3'         1.0324    0.7610    1.7344 C.3       1 ATP         0.0947
     18 O3'         1.9175    0.2377    2.7247 O.3       1 ATP        -0.5906
     19 C2'         0.4468   -0.3802    0.9263 C.3       1 ATP         0.0556
     20 O2'         1.3993   -1.3703    0.5961 O.3       1 ATP        -0.5838
     21 C1'        -0.6159   -0.9100    1.8769 C.3       1 ATP         0.4381
     22 N9         -1.7127   -1.6108    1.2130 N.pl3     1 ATP        -0.6883
     23 C8         -2.5476   -1.0844    0.2632 C.ar      1 ATP         0.5620
     24 N7         -3.4391   -1.9591   -0.1536 N.2       1 ATP        -0.5584
     25 C5         -3.1701   -3.1016    0.5574 C.ar      1 ATP        -0.2164
     26 C6         -3.7593   -4.3620    0.5656 C.ar      1 ATP         0.7376
     27 N6         -4.8512   -4.6493   -0.2712 N.pl3     1 ATP        -0.9514
     28 N1         -3.2659   -5.3144    1.3932 N.ar      1 ATP        -0.8054
     29 C2         -2.2122   -4.9785    2.1759 C.ar      1 ATP         0.6649
     30 N3         -1.5595   -3.7985    2.2572 N.ar      1 ATP        -0.7136
     31 C4         -2.0986   -2.9054    1.4140 C.ar      1 ATP         0.5805
     32 HOB2       -6.1671    0.1489    0.5157 H         1 ATP         0.4367
     33 HOA2       -3.2012    5.2003    0.0605 H         1 ATP         0.4916
     34 H5'1       -1.4794    1.9921    0.8142 H         1 ATP         0.0552
     35 H5'2       -0.1361    3.1034    1.1867 H         1 ATP         0.0552
     36 H4'         0.0402    1.7079    3.4342 H         1 ATP         0.1061
     37 H3'         1.5907    1.4859    1.1353 H         1 ATP         0.0937
     38 HO3'        2.6839   -0.1150    2.2479 H         1 ATP         0.4070
     39 H2'        -0.0017    0.0018    0.0005 H         1 ATP         0.0758
     40 HO2'        2.0953   -0.9375    0.0709 H         1 ATP         0.4080
     41 H1'        -0.1998   -1.6319    2.6178 H         1 ATP         0.1071
     42 H8         -2.4576   -0.0639   -0.0831 H         1 ATP         0.1022
     43 HN61       -5.2371   -3.9234   -0.8448 H         1 ATP         0.4336
     44 HN62       -5.2909   -5.5485   -0.2160 H         1 ATP         0.4336
     45 H2         -1.8433   -5.7650    2.8259 H         1 ATP         0.0401
@<TRIPOS>BOND
     1    1    2 2
     2    1    3 1
     3    1    4 1
     4    1    8 1
     5    5    6 2
     6    5    7 1
     7    5    8 1
     8    5   12 1
     9    7   32 1
    10    9   10 2
    11    9   11 1
    12    9   12 1
    13    9   13 1
    14   11   33 1
    15   13   14 1
    16   14   15 1
    17   14   34 1
    18   14   35 1
    19   15   16 1
    20   15   17 1
    21   15   36 1
    22   16   21 1
    23   17   18 1
    24   17   19 1
    25   17   37 1
    26   18   38 1
    27   19   20 1
    28   19   21 1
    29   19   39 1
    30   20   40 1
    31   21   22 1
    32   21   41 1
    33   22   23 ar
    34   22   31 ar
    35   23   24 ar
    36   23   42 1
    37   24   25 ar
    38   25   26 ar
    39   25   31 ar
    40   26   27 1
    41   26   28 ar
    42   27   43 1
    43   27   44 1
    44   28   29 ar
    45   29   30 ar
    46   29   45 1
    47   30   31 ar
@<TRIPOS>SUBSTRUCTURE
     1 ATP         1 GROUP 0 A     ****
@<TRIPOS>MOLECULE
[[[5-(6-aminopurin-9-yl)-3,4-dihydroxy-tetrahydrofuran-2-yl]methoxy-hydroxy-phosphoryl]oxy-hydroxy-phosphoryl] phosphate
   45    47     1     0     0
SMALL
USER_CHARGES

@<TRIPOS>ATOM
      1 PG         -3.1804    6.5088   -2.6724 P.3       1 ATP         1.3364
      2 O1G        -3.1456    5.6360   -3.9226 O.co2     1 ATP        -0.8759
      3 O2G        -1.9455    7.3832   -2.4815 O.co2     1 ATP        -0.8759
      4 O3G        -4.5025    7.2370   -2.4539 O.co2     1 ATP        -0.8759
      5 PB         -4.1076    4.2219   -1.0231 P.3       1 ATP         1.7980
      6 O1B        -5.5186    4.6364   -0.7269 O.2       1 ATP        -0.9123
      7 O2B        -3.9437    3.1792   -2.2474 O.3       1 ATP        -0.7754
      8 O3B        -3.1137    5.4323   -1.4265 O.3       1 ATP        -0.6996
      9 PA         -2.9684    4.0281    1.6828 P.3       1 ATP         1.7855
     10 O1A        -4.1644    4.3960    2.5121 O.2       1 ATP        -0.8495
     11 O2A        -1.9467    5.2513    1.4052 O.3       1 ATP        -0.8288
     12 O3A        -3.3306    3.5036    0.1973 O.3       1 ATP        -0.8018
     13 O5'        -2.0396    2.8622    2.3120 O.3       1 ATP        -0.5853
     14 C5'        -0.8811    2.4285    1.6206 C.3       1 ATP         0.1809
     15 C4'        -0.1994    1.3333    2.4288 C.3       1 ATP         0.1309
     16 O4'        -1.1285    0.2356    2.5840 O.3       1 ATP        -0.4224
     17 C3'         1.0324    0.7610    1.7344 C.3       1 ATP         0.0947
     18 O3'         1.9175    0.2377    2.7247 O.3       1 ATP        -0.5906
     19 C2'         0.4468   -0.3802    0.9263 C.3       1 ATP         0.0556
     20 O2'         1.3993   -1.3703    0.5961 O.3       1 ATP        -0.5838
     21 C1'        -0.6159   -0.9100    1.8769 C.3       1 ATP         0.4381
     22 N9         -1.7127   -1.6108    1.2130 N.pl3     1 ATP        -0.6883
     23 C8         -2.8641   -1.0399    0.7392 C.ar      1 ATP         0.5620
     24 N7         -3.6659   -1.9257    0.1858 N.2       1 ATP        -0.5584
     25 C5         -3.0053   -3.1223    0.3069 C.ar      1 ATP        -0.2164
     26 C6         -3.3321   -4.4178   -0.0813 C.ar      1 ATP         0.7376
     27 N6         -4.5476   -4.6866   -0.7335 N.pl3     1 ATP        -0.9514
     28 N1         -2.4608   -5.4225    0.1773 N.ar      1 ATP        -0.8054
     29 C2         -1.3053   -5.1020    0.8081 C.ar      1 ATP         0.6649
     30 N3         -0.8788   -3.8921    1.2315 N.ar      1 ATP        -0.7136
     31 C4         -1.7870   -2.9477    0.9438 C.ar      1 ATP         0.5805
     32 HOB2       -4.2536    3.4428   -3.1399 H         1 ATP         0.4367
     33 HOA2       -1.5244    5.6994    2.1687 H         1 ATP         0.4916
     34 H5'1       -1.1760    2.0498    0.6365 H         1 ATP         0.0552
     35 H5'2       -0.2072    3.2811    1.4873 H         1 ATP         0.0552
     36 H4'         0.0402    1.7079    3.4342 H         1 ATP         0.1061
     37 H3'         1.5907    1.4859    1.1353 H         1 ATP         0.0937
     38 HO3'        2.6839   -0.1150    2.2479 H         1 ATP         0.4070
     39 H2'        -0.0017    0.0018    0.0005 H         1 ATP         0.0758
     40 HO2'        2.0953   -0.9375    0.0709 H         1 ATP         0.4080
     41 H1'        -0.1998   -1.6319    2.6178 H         1 ATP         0.1071
     42 H8         -3.0609    0.0200    0.8250 H         1 ATP         0.1022
     43 HN61       -5.2046   -3.9433   -0.8775 H         1 ATP         0.4336
     44 HN62       -4.7849   -5.6332   -0.9625 H         1 ATP         0.4336
     45 H2         -0.6318   -5.9307    0.9993 H         1 ATP         0.0401
@<TRIPOS>BOND
     1    1    2 2
     2    1    3 1
     3    1    4 1
     4    1    8 1
     5    5    6 2
     6    5    7 1
     7    5    8 1
     8    5   12 1
     9    7   32 1
    10    9   10 2
    11    9   11 1
    12    9   12 1
    13    9   13 1
    14   11   33 1
    15   13   14 1
    16   14   15 1
    17   14   34 1
    18   14   35 1
    19   15   16 1
    20   15   17 1
    21   15   36 1
    22   16   21 1
    23   17   18 1
    24   17   19 1
    25   17   37 1
    26   18   38 1
    27   19   20 1
    28   19   21 1
    29   19   39 1
    30   20   40 1
    31   21   22 1
    32   21   41 1
    33   22   23 ar
    34   22   31 ar
    35   23   24 ar
    36   23   42 1
    37   24   25 ar
    38   25   26 ar
    39   25   31 ar
    40   26   27 1
    41   26   28 ar
    42   27   43 1
    43   27   44 1
    44   28   29 ar
    45   29   30 ar
    46   29   45 1
    47   30   31 ar
@<TRIPOS>SUBSTRUCTURE
     1 ATP         1 GROUP 0 A     ****
@<TRIPOS>MOLECULE
[[[5-(6-aminopurin-9-yl)-3,4-dihydroxy-tetrahydrofuran-2-yl]methoxy-hydroxy-phosphoryl]oxy-hydroxy-phosphoryl] phosphate
   45    47     1     0     0
SMALL
USER_CHARGES

@<TRIPOS>ATOM
      1 PG         -6.7436    5.5842   -0.9480 P.3       1 ATP         1.3364
      2 O1G        -6.0978    6.9242   -1.2849 O.co2     1 ATP        -0.8759
      3 O2G        -7.7545    5.6424    0.1924 O.co2     1 ATP        -0.8759
      4 O3G        -7.2166    4.7940   -2.1637 O.co2     1 ATP        -0.8759
      5 PB         -4.1076    4.2219   -1.0231 P.3       1 ATP         1.7980
      6 O1B        -4.2486    3.3944   -2.2665 O.2       1 ATP        -0.9123
      7 O2B        -3.3117    5.6156   -1.2157 O.3       1 ATP        -0.7754
      8 O3B        -5.5045    4.6785   -0.3480 O.3       1 ATP        -0.6996
      9 PA         -2.9684    4.0281    1.6828 P.3       1 ATP         1.7855
     10 O1A        -4.1644    4.3960    2.5121 O.2       1 ATP        -0.8495
     11 O2A        -1.9467    5.2513    1.4052 O.3       1 ATP        -0.8288
     12 O3A        -3.3306    3.5036    0.1973 O.3       1 ATP        -0.8018
     13 O5'        -2.0396    2.8622    2.3120 O.3       1 ATP        -0.5853
     14 C5'        -0.8811    2.4285    1.6206 C.3       1 ATP         0.1809
     15 C4'        -0.1994    1.3333    2.4288 C.3       1 ATP         0.1309
     16 O4'        -1.1285    0.2356    2.5840 O.3       1 ATP        -0.4224
     17 C3'         1.0324    0.7610    1.7344 C.3       1 ATP         0.0947
     18 O3'         1.9175    0.2377    2.7247 O.3       1 ATP        -0.5906
     19 C2'         0.4468   -0.3802    0.9263 C.3       1 ATP         0.0556
     20 O2'         1.3993   -1.3703    0.5961 O.3       1 ATP        -0.5838
     21 C1'        -0.6159   -0.9100    1.8769 C.3       1 ATP         0.4381
     22 N9         -1.7127   -1.6108    1.2130 N.pl3     1 ATP        -0.6883
     23 C8         -1.7712   -2.9546    0.9544 C.ar      1 ATP         0.5620
     24 N7         -2.8883   -3.2948    0.3462 N.2       1 ATP        -0.5584
     25 C5         -3.5834   -2.1202    0.2043 C.ar      1 ATP        -0.2164
     26 C6         -4.8225   -1.8251   -0.3554 C.ar      1 ATP         0.7376
     27 N6         -5.6154   -2.8394   -0.9189 N.pl3     1 ATP        -0.9514
     28 N1         -5.2589   -0.5425   -0.3507 N.ar      1 ATP        -0.8054
     29 C2         -4.4510    0.3913    0.2069 C.ar      1 ATP         0.6649
     30 N3         -3.2368    0.2296    0.7767 N.ar      1 ATP        -0.7136
     31 C4         -2.8684   -1.0596    0.7376 C.ar      1 ATP         0.5805
     32 HOB2       -2.3837    5.5923   -1.5325 H         1 ATP         0.4367
     33 HOA2       -1.5244    5.6994    2.1687 H         1 ATP         0.4916
     34 H5'1       -1.1760    2.0498    0.6365 H         1 ATP         0.0552
     35 H5'2       -0.2072    3.2811    1.4873 H         1 ATP         0.0552
     36 H4'         0.0402    1.7079    3.4342 H         1 ATP         0.1061
     37 H3'         1.5907    1.4859    1.1353 H         1 ATP         0.0937
     38 HO3'        2.6839   -0.1150    2.2479 H         1 ATP         0.4070
     39 H2'        -0.0017    0.0018    0.0005 H         1 ATP         0.0758
     40 HO2'        2.0953   -0.9375    0.0709 H         1 ATP         0.4080
     41 H1'        -0.1998   -1.6319    2.6178 H         1 ATP         0.1071
     42 H8         -0.9745   -3.6312    1.2318 H         1 ATP         0.1022
     43 HN61       -5.2619   -3.7766   -0.9586 H         1 ATP         0.4336
     44 HN62       -6.4834   -2.5990   -1.3590 H         1 ATP         0.4336
     45 H2         -4.8317    1.4071    0.1930 H         1 ATP         0.0401
@<TRIPOS>BOND
     1    1    2 2
     2    1    3 1
     3    1    4 1
     4    1    8 1
     5    5    6 2
     6    5    7 1
     7    5    8 1
     8    5   12 1
     9    7   32 1
    10    9   10 2
    11    9   11 1
    12    9   12 1
    13    9   13 1
    14   11   33 1
    15   13   14 1
    16   14   15 1
    17   14   34 1
    18   14   35 1
    19   15   16 1
    20   15   17 1
    21   15   36 1
    22   16   21 1
    23   17   18 1
    24   17   19 1
    25   17   37 1
    26   18   38 1
    27   19   20 1
    28   19   21 1
    29   19   39 1
    30   20   40 1
    31   21   22 1
    32   21   41 1
    33   22   23 ar
    34   22   31 ar
    35   23   24 ar
    36   23   42 1
    37   24   25 ar
    38   25   26 ar
    39   25   31 ar
    40   26   27 1
    41   26   28 ar
    42   27   43 1
    43   27   44 1
    44   28   29 ar
    45   29   30 ar
    46   29   45 1
    47   30   31 ar
@<TRIPOS>SUBSTRUCTURE
     1 ATP         1 GROUP 0 A     ****
@<TRIPOS>MOLECULE
[[[5-(6-aminopurin-9-yl)-3,4-dihydroxy-tetrahydrofuran-2-yl]methoxy-hydroxy-phosphoryl]oxy-hydroxy-phosphoryl] phosphate
   45    47     1     0     0
SMALL
USER_CHARGES

@<TRIPOS>ATOM
      1 PG         -3.3205    0.9585   -2.7340 P.3       1 ATP         1.3364
      2 O1G        -3.8206    2.0636   -3.6585 O.co2     1 ATP        -0.8759
      3 O2G        -3.3300   -0.4340   -3.3560 O.co2     1 ATP        -0.8759
      4 O3G        -2.0359    1.3011   -1.9866 O.co2     1 ATP        -0.8759
      5 PB         -4.9640    2.0006   -0.4929 P.3       1 ATP         1.7980
      6 O1B        -5.5487    3.2336   -1.1162 O.2       1 ATP        -0.9123
      7 O2B        -5.9679    1.1808    0.4731 O.3       1 ATP        -0.7754
      8 O3B        -4.4587    0.8809   -1.5448 O.3       1 ATP        -0.6996
      9 PA         -3.3133    3.4213    1.4856 P.3       1 ATP         1.7855
     10 O1A        -4.4757    3.8484    2.3341 O.2       1 ATP        -0.8495
     11 O2A        -2.7040    4.5919    0.5499 O.3       1 ATP        -0.8288
     12 O3A        -3.6618    2.2474    0.4304 O.3       1 ATP        -0.8018
     13 O5'        -2.0396    2.8622    2.3120 O.3       1 ATP        -0.5853
     14 C5'        -0.8811    2.4285    1.6206 C.3       1 ATP         0.1809
     15 C4'        -0.1994    1.3333    2.4288 C.3       1 ATP         0.1309
     16 O4'        -1.1285    0.2356    2.5840 O.3       1 ATP        -0.4224
     17 C3'         1.0324    0.7610    1.7344 C.3       1 ATP         0.0947
     18 O3'         1.9175    0.2377    2.7247 O.3       1 ATP        -0.5906
     19 C2'         0.4468   -0.3802    0.9263 C.3       1 ATP         0.0556
     20 O2'         1.3993   -1.3703    0.5961 O.3       1 ATP        -0.5838
     21 C1'        -0.6159   -0.9100    1.8769 C.3       1 ATP         0.4381
     22 N9         -1.7127   -1.6108    1.2130 N.pl3     1 ATP        -0.6883
     23 C8         -2.8641   -1.0399    0.7392 C.ar      1 ATP         0.5620
     24 N7         -3.6659   -1.9257    0.1858 N.2       1 ATP        -0.5584
     25 C5         -3.0053   -3.1223    0.3069 C.ar      1 ATP        -0.2164
     26 C6         -3.3321   -4.4178   -0.0813 C.ar      1 ATP         0.7376
     27 N6         -4.5476   -4.6866   -0.7335 N.pl3     1 ATP        -0.9514
     28 N1         -2.4608   -5.4225    0.1773 N.ar      1 ATP        -0.8054
     29 C2         -1.3053   -5.1020    0.8081 C.ar      1 ATP         0.6649
     30 N3         -0.8788   -3.8921    1.2315 N.ar      1 ATP        -0.7136
     31 C4         -1.7870   -2.9477    0.9438 C.ar      1 ATP         0.5805
     32 HOB2       -6.3417    1.6306    1.2605 H         1 ATP         0.4367
     33 HOA2       -3.2850    5.0183   -0.1155 H         1 ATP         0.4916
     34 H5'1       -1.1760    2.0498    0.6365 H         1 ATP         0.0552
     35 H5'2       -0.2072    3.2811    1.4873 H         1 ATP         0.0552
     36 H4'         0.0402    1.7079    3.4342 H         1 ATP         0.1061
     37 H3'         1.5907    1.4859    1.1353 H         1 ATP         0.0937
     38 HO3'        2.6839   -0.1150    2.2479 H         1 ATP         0.4070
     39 H2'        -0.0017    0.0018    0.0005 H         1 ATP         0.0758
     40 HO2'        2.0953   -0.9375    0.0709 H         1 ATP         0.4080
     41 H1'        -0.1998   -1.6319    2.6178 H         1 ATP         0.1071
     42 H8         -3.0609    0.0200    0.8250 H         1 ATP         0.1022
     43 HN61       -5.2046   -3.9433   -0.8775 H         1 ATP         0.4336
     44 HN62       -4.7849   -5.6332   -0.9625 H         1 ATP         0.4336
     45 H2         -0.6318   -5.9307    0.9993 H         1 ATP         0.0401
@<TRIPOS>BOND
     1    1    2 2
     2    1    3 1
     3    1    4 1
     4    1    8 1
     5    5    6 2
     6    5    7 1
     7    5    8 1
     8    5   12 1
     9    7   32 1
    10    9   10 2
    11    9   11 1
    12    9   12 1
    13    9   13 1
    14   11   33 1
    15   13   14 1
    16   14   15 1
    17   14   34 1
    18   14   35 1
    19   15   16 1
    20   15   17 1
    21   15   36 1
    22   16   21 1
    23   17   18 1
    24   17   19 1
    25   17   37 1
    26   18   38 1
    27   19   20 1
    28   19   21 1
    29   19   39 1
    30   20   40 1
    31   21   22 1
    32   21   41 1
    33   22   23 ar
    34   22   31 ar
    35   23   24 ar
    36   23   42 1
    37   24   25 ar
    38   25   26 ar
    39   25   31 ar
    40   26   27 1
    41   26   28 ar
    42   27   43 1
    43   27   44 1
    44   28   29 ar
    45   29   30 ar
    46   29   45 1
    47   30   31 ar
@<TRIPOS>SUBSTRUCTURE
     1 ATP         1 GROUP 0 A     ****
@<TRIPOS>MOLECULE
[[[5-(6-aminopurin-9-yl)-3,4-dihydroxy-tetrahydrofuran-2-yl]methoxy-hydroxy-phosphoryl]oxy-hydroxy-phosphoryl] phosphate
   45    47     1     0     0
SMALL
USER_CHARGES

@<TRIPOS>ATOM
      1 PG         -5.0423    4.9821    0.1154 P.3       1 ATP         1.3364
      2 O1G        -5.4448    4.3233   -1.1999 O.co2     1 ATP        -0.8759
      3 O2G        -6.1239    5.8604    0.7355 O.co2     1 ATP        -0.8759
      4 O3G        -4.3574    4.0425    1.1023 O.co2     1 ATP        -0.8759
      5 PB         -2.4198    5.7890   -1.0166 P.3       1 ATP         1.7980
      6 O1B        -2.4883    5.1572   -2.3755 O.2       1 ATP        -0.9123
      7 O2B        -1.7210    7.2460   -0.9742 O.3       1 ATP        -0.7754
      8 O3B        -3.8529    6.0403   -0.3104 O.3       1 ATP        -0.6996
      9 PA         -0.0712    4.4471    0.1412 P.3       1 ATP         1.7855
     10 O1A         0.9348    5.5602    0.0905 O.2       1 ATP        -0.8495
     11 O2A         0.0198    3.4083   -1.0957 O.3       1 ATP        -0.8288
     12 O3A        -1.6088    4.9436    0.0955 O.3       1 ATP        -0.8018
     13 O5'         0.0170    3.5129    1.4592 O.3       1 ATP        -0.5853
     14 C5'        -0.8811    2.4285    1.6206 C.3       1 ATP         0.1809
     15 C4'        -0.1994    1.3333    2.4288 C.3       1 ATP         0.1309
     16 O4'        -1.1285    0.2356    2.5840 O.3       1 ATP        -0.4224
     17 C3'         1.0324    0.7610    1.7344 C.3       1 ATP         0.0947
     18 O3'         1.9175    0.2377    2.7247 O.3       1 ATP        -0.5906
     19 C2'         0.4468   -0.3802    0.9263 C.3       1 ATP         0.0556
     20 O2'         1.3993   -1.3703    0.5961 O.3       1 ATP        -0.5838
     21 C1'        -0.6159   -0.9100    1.8769 C.3       1 ATP         0.4381
     22 N9         -1.7127   -1.6108    1.2130 N.pl3     1 ATP        -0.6883
     23 C8         -1.7712   -2.9546    0.9544 C.ar      1 ATP         0.5620
     24 N7         -2.8883   -3.2948    0.3462 N.2       1 ATP        -0.5584
     25 C5         -3.5834   -2.1202    0.2043 C.ar      1 ATP        -0.2164
     26 C6         -4.8225   -1.8251   -0.3554 C.ar      1 ATP         0.7376
     27 N6         -5.6154   -2.8394   -0.9189 N.pl3     1 ATP        -0.9514
     28 N1         -5.2589   -0.5425   -0.3507 N.ar      1 ATP        -0.8054
     29 C2         -4.4510    0.3913    0.2069 C.ar      1 ATP         0.6649
     30 N3         -3.2368    0.2296    0.7767 N.ar      1 ATP        -0.7136
     31 C4         -2.8684   -1.0596    0.7376 C.ar      1 ATP         0.5805
     32 HOB2       -0.7900    7.3346   -1.2700 H         1 ATP         0.4367
     33 HOA2        0.8535    2.9116   -1.2379 H         1 ATP         0.4916
     34 H5'1       -1.7776    2.7841    2.1389 H         1 ATP         0.0552
     35 H5'2       -1.1659    2.0533    0.6322 H         1 ATP         0.0552
     36 H4'         0.0402    1.7079    3.4342 H         1 ATP         0.1061
     37 H3'         1.5907    1.4859    1.1353 H         1 ATP         0.0937
     38 HO3'        2.6839   -0.1150    2.2479 H         1 ATP         0.4070
     39 H2'        -0.0017    0.0018    0.0005 H         1 ATP         0.0758
     40 HO2'        2.0953   -0.9375    0.0709 H         1 ATP         0.4080
     41 H1'        -0.1998   -1.6319    2.6178 H         1 ATP         0.1071
     42 H8         -0.9745   -3.6312    1.2318 H         1 ATP         0.1022
     43 HN61       -5.2619   -3.7766   -0.9586 H         1 ATP         0.4336
     44 HN62       -6.4834   -2.5990   -1.3590 H         1 ATP         0.4336
     45 H2         -4.8317    1.4071    0.1930 H         1 ATP         0.0401
@<TRIPOS>BOND
     1    1    2 2
     2    1    3 1
     3    1    4 1
     4    1    8 1
     5    5    6 2
     6    5    7 1
     7    5    8 1
     8    5   12 1
     9    7   32 1
    10    9   10 2
    11    9   11 1
    12    9   12 1
    13    9   13 1
    14   11   33 1
    15   13   14 1
    16   14   15 1
    17   14   34 1
    18   14   35 1
    19   15   16 1
    20   15   17 1
    21   15   36 1
    22   16   21 1
    23   17   18 1
    24   17   19 1
    25   17   37 1
    26   18   38 1
    27   19   20 1
    28   19   21 1
    29   19   39 1
    30   20   40 1
    31   21   22 1
    32   21   41 1
    33   22   23 ar
    34   22   31 ar
    35   23   24 ar
    36   23   42 1
    37   24   25 ar
    38   25   26 ar
    39   25   31 ar
    40   26   27 1
    41   26   28 ar
    42   27   43 1
    43   27   44 1
    44   28   29 ar
    45   29   30 ar
    46   29   45 1
    47   30   31 ar
@<TRIPOS>SUBSTRUCTURE
     1 ATP         1 GROUP 0 A     ****
@<TRIPOS>MOLECULE
[[[5-(6-aminopurin-9-yl)-3,4-dihydroxy-tetrahydrofuran-2-yl]methoxy-hydroxy-phosphoryl]oxy-hydroxy-phosphoryl] phosphate
   45    47     1     0     0
SMALL
USER_CHARGES

@<TRIPOS>ATOM
      1 PG         -6.6375    4.3484   -0.7564 P.3       1 ATP         1.3364
      2 O1G        -6.4673    4.9925   -2.1284 O.co2     1 ATP        -0.8759
      3 O2G        -7.5755    5.1024    0.1802 O.co2     1 ATP        -0.8759
      4 O3G        -6.8716    2.8418   -0.7968 O.co2     1 ATP        -0.8759
      5 PB         -3.7077    3.9391   -0.5137 P.3       1 ATP         1.7980
      6 O1B        -3.6166    2.4464   -0.6338 O.2       1 ATP        -0.9123
      7 O2B        -3.4080    4.7545   -1.8769 O.3       1 ATP        -0.7754
      8 O3B        -5.1543    4.4972   -0.0538 O.3       1 ATP        -0.6996
      9 PA         -2.5519    4.3888    2.1545 P.3       1 ATP         1.7855
     10 O1A        -3.7885    4.7215    2.9377 O.2       1 ATP        -0.8495
     11 O2A        -1.2608    5.2879    2.5314 O.3       1 ATP        -0.8288
     12 O3A        -2.7016    4.6060    0.5597 O.3       1 ATP        -0.8018
     13 O5'        -2.0396    2.8622    2.3120 O.3       1 ATP        -0.5853
     14 C5'        -0.8811    2.4285    1.6206 C.3       1 ATP         0.1809
     15 C4'        -0.1994    1.3333    2.4288 C.3       1 ATP         0.1309
     16 O4'        -1.1285    0.2356    2.5840 O.3       1 ATP        -0.4224
     17 C3'         1.0324    0.7610    1.7344 C.3       1 ATP         0.0947
     18 O3'         1.9175    0.2377    2.7247 O.3       1 ATP        -0.5906
     19 C2'         0.4468   -0.3802    0.9263 C.3       1 ATP         0.0556
     20 O2'         1.3993   -1.3703    0.5961 O.3       1 ATP        -0.5838
     21 C1'        -0.6159   -0.9100    1.8769 C.3       1 ATP         0.4381
     22 N9         -1.7127   -1.6108    1.2130 N.pl3     1 ATP        -0.6883
     23 C8         -2.8641   -1.0399    0.7392 C.ar      1 ATP         0.5620
     24 N7         -3.6659   -1.9257    0.1858 N.2       1 ATP        -0.5584
     25 C5         -3.0053   -3.1223    0.3069 C.ar      1 ATP        -0.2164
     26 C6         -3.3321   -4.4178   -0.0813 C.ar      1 ATP         0.7376
     27 N6         -4.5476   -4.6866   -0.7335 N.pl3     1 ATP        -0.9514
     28 N1         -2.4608   -5.4225    0.1773 N.ar      1 ATP        -0.8054
     29 C2         -1.3053   -5.1020    0.8081 C.ar      1 ATP         0.6649
     30 N3         -0.8788   -3.8921    1.2315 N.ar      1 ATP        -0.7136
     31 C4         -1.7870   -2.9477    0.9438 C.ar      1 ATP         0.5805
     32 HOB2       -3.9756    4.5937   -2.6605 H         1 ATP         0.4367
     33 HOA2       -0.9207    5.2677    3.4511 H         1 ATP         0.4916
     34 H5'1       -1.1760    2.0498    0.6365 H         1 ATP         0.0552
     35 H5'2       -0.2072    3.2811    1.4873 H         1 ATP         0.0552
     36 H4'         0.0402    1.7079    3.4342 H         1 ATP         0.1061
     37 H3'         1.5907    1.4859    1.1353 H         1 ATP         0.0937
     38 HO3'        2.6839   -0.1150    2.2479 H         1 ATP         0.4070
     39 H2'        -0.0017    0.0018    0.0005 H         1 ATP         0.0758
     40 HO2'        2.0953   -0.9375    0.0709 H         1 ATP         0.4080
     41 H1'        -0.1998   -1.6319    2.6178 H         1 ATP         0.1071
     42 H8         -3.0609    0.0200    0.8250 H         1 ATP         0.1022
     43 HN61       -5.2046   -3.9433   -0.8775 H         1 ATP         0.4336
     44 HN62       -4.7849   -5.6332   -0.9625 H         1 ATP         0.4336
     45 H2         -0.6318   -5.9307    0.9993 H         1 ATP         0.0401
@<TRIPOS>BOND
     1    1    2 2
     2    1    3 1
     3    1    4 1
     4    1    8 1
     5    5    6 2
     6    5    7 1
     7    5    8 1
     8    5   12 1
     9    7   32 1
    10    9   10 2
    11    9   11 1
    12    9   12 1
    13    9   13 1
    14   11   33 1
    15   13   14 1
    16   14   15 1
    17   14   34 1
    18   14   35 1
    19   15   16 1
    20   15   17 1
    21   15   36 1
    22   16   21 1
    23   17   18 1
    24   17   19 1
    25   17   37 1
    26   18   38 1
    27   19   20 1
    28   19   21 1
    29   19   39 1
    30   20   40 1
    31   21   22 1
    32   21   41 1
    33   22   23 ar
    34   22   31 ar
    35   23   24 ar
    36   23   42 1
    37   24   25 ar
    38   25   26 ar
    39   25   31 ar
    40   26   27 1
    41   26   28 ar
    42   27   43 1
    43   27   44 1
    44   28   29 ar
    45   29   30 ar
    46   29   45 1
    47   30   31 ar
@<TRIPOS>SUBSTRUCTURE
     1 ATP         1 GROUP 0 A     ****
@<TRIPOS>MOLECULE
[[[5-(6-aminopurin-9-yl)-3,4-dihydroxy-tetrahydrofuran-2-yl]methoxy-hydroxy-phosphoryl]oxy-hydroxy-phosphoryl] phosphate
   45    47     1     0     0
SMALL
USER_CHARGES

@<TRIPOS>ATOM
      1 PG         -6.6368    2.6754    0.6142 P.3       1 ATP         1.3364
      2 O1G        -6.9763    1.8143   -0.5980 O.co2     1 ATP        -0.8759
      3 O2G        -7.8463    3.3070    1.2954 O.co2     1 ATP        -0.8759
      4 O3G        -5.6395    2.0375    1.5757 O.co2     1 ATP        -0.8759
      5 PB         -4.4363    4.0071   -0.8671 P.3       1 ATP         1.7980
      6 O1B        -4.4662    3.2522   -2.1632 O.2       1 ATP        -0.9123
      7 O2B        -4.1418    5.5905   -1.0045 O.3       1 ATP        -0.7754
      8 O3B        -5.8114    3.9542   -0.0174 O.3       1 ATP        -0.6996
      9 PA         -2.9684    4.0281    1.6828 P.3       1 ATP         1.7855
     10 O1A        -4.1644    4.3960    2.5121 O.2       1 ATP        -0.8495
     11 O2A        -1.9467    5.2513    1.4052 O.3       1 ATP        -0.8288
     12 O3A        -3.3306    3.5036    0.1973 O.3       1 ATP        -0.8018
     13 O5'        -2.0396    2.8622    2.3120 O.3       1 ATP        -0.5853
     14 C5'        -0.8811    2.4285    1.6206 C.3       1 ATP         0.1809
     15 C4'        -0.1994    1.3333    2.4288 C.3       1 ATP         0.1309
     16 O4'        -1.1285    0.2356    2.5840 O.3       1 ATP        -0.4224
     17 C3'         1.0324    0.7610    1.7344 C.3       1 ATP         0.0947
     18 O3'         1.9175    0.2377    2.7247 O.3       1 ATP        -0.5906
     19 C2'         0.4468   -0.3802    0.9263 C.3       1 ATP         0.0556
     20 O2'         1.3993   -1.3703    0.5961 O.3       1 ATP        -0.5838
     21 C1'        -0.6159   -0.9100    1.8769 C.3       1 ATP         0.4381
     22 N9         -1.7127   -1.6108    1.2130 N.pl3     1 ATP        -0.6883
     23 C8         -2.8641   -1.0399    0.7392 C.ar      1 ATP         0.5620
     24 N7         -3.6659   -1.9257    0.1858 N.2       1 ATP        -0.5584
     25 C5         -3.0053   -3.1223    0.3069 C.ar      1 ATP        -0.2164
     26 C6         -3.3321   -4.4178   -0.0813 C.ar      1 ATP         0.7376
     27 N6         -4.5476   -4.6866   -0.7335 N.pl3     1 ATP        -0.9514
     28 N1         -2.4608   -5.4225    0.1773 N.ar      1 ATP        -0.8054
     29 C2         -1.3053   -5.1020    0.8081 C.ar      1 ATP         0.6649
     30 N3         -0.8788   -3.8921    1.2315 N.ar      1 ATP        -0.7136
     31 C4         -1.7870   -2.9477    0.9438 C.ar      1 ATP         0.5805
     32 HOB2       -3.2987    5.8828   -1.4120 H         1 ATP         0.4367
     33 HOA2       -1.5244    5.6994    2.1687 H         1 ATP         0.4916
     34 H5'1       -1.1760    2.0498    0.6365 H         1 ATP         0.0552
     35 H5'2       -0.2072    3.2811    1.4873 H         1 ATP         0.0552
     36 H4'         0.0402    1.7079    3.4342 H         1 ATP         0.1061
     37 H3'         1.5907    1.4859    1.1353 H         1 ATP         0.0937
     38 HO3'        2.6839   -0.1150    2.2479 H         1 ATP         0.4070
     39 H2'        -0.0017    0.0018    0.0005 H         1 ATP         0.0758
     40 HO2'        2.0953   -0.9375    0.0709 H         1 ATP         0.4080
     41 H1'        -0.1998   -1.6319    2.6178 H         1 ATP         0.1071
     42 H8         -3.0609    0.0200    0.8250 H         1 ATP         0.1022
     43 HN61       -5.2046   -3.9433   -0.8775 H         1 ATP         0.4336
     44 HN62       -4.7849   -5.6332   -0.9625 H         1 ATP         0.4336
     45 H2         -0.6318   -5.9307    0.9993 H         1 ATP         0.0401
@<TRIPOS>BOND
     1    1    2 2
     2    1    3 1
     3    1    4 1
     4    1    8 1
     5    5    6 2
     6    5    7 1
     7    5    8 1
     8    5   12 1
     9    7   32 1
    10    9   10 2
    11    9   11 1
    12    9   12 1
    13    9   13 1
    14   11   33 1
    15   13   14 1
    16   14   15 1
    17   14   34 1
    18   14   35 1
    19   15   16 1
    20   15   17 1
    21   15   36 1
    22   16   21 1
    23   17   18 1
    24   17   19 1
    25   17   37 1
    26   18   38 1
    27   19   20 1
    28   19   21 1
    29   19   39 1
    30   20   40 1
    31   21   22 1
    32   21   41 1
    33   22   23 ar
    34   22   31 ar
    35   23   24 ar
    36   23   42 1
    37   24   25 ar
    38   25   26 ar
    39   25   31 ar
    40   26   27 1
    41   26   28 ar
    42   27   43 1
    43   27   44 1
    44   28   29 ar
    45   29   30 ar
    46   29   45 1
    47   30   31 ar
@<TRIPOS>SUBSTRUCTURE
     1 ATP         1 GROUP 0 A     ****
@<TRIPOS>MOLECULE
[[[5-(6-aminopurin-9-yl)-3,4-dihydroxy-tetrahydrofuran-2-yl]methoxy-hydroxy-phosphoryl]oxy-hydroxy-phosphoryl] phosphate
   45    47     1     0     0
SMALL
USER_CHARGES

@<TRIPOS>ATOM
      1 PG         -5.5456    3.7612   -2.4821 P.3       1 ATP         1.3364
      2 O1G        -5.8179    2.3701   -3.0451 O.co2     1 ATP        -0.8759
      3 O2G        -4.5656    4.5914   -3.3044 O.co2     1 ATP        -0.8759
      4 O3G        -6.7973    4.5176   -2.0498 O.co2     1 ATP        -0.8759
      5 PB         -5.2043    2.6583    0.2524 P.3       1 ATP         1.7980
      6 O1B        -6.4345    3.1867    0.9294 O.2       1 ATP        -0.9123
      7 O2B        -5.3136    1.1329   -0.2712 O.3       1 ATP        -0.7754
      8 O3B        -4.7503    3.4756   -1.0673 O.3       1 ATP        -0.6996
      9 PA         -3.0702    3.8637    1.8801 P.3       1 ATP         1.7855
     10 O1A        -3.8863    4.6225    2.8860 O.2       1 ATP        -0.8495
     11 O2A        -2.5441    4.7561    0.6375 O.3       1 ATP        -0.8288
     12 O3A        -3.8670    2.6567    1.1582 O.3       1 ATP        -0.8018
     13 O5'        -1.7334    3.1724    2.4742 O.3       1 ATP        -0.5853
     14 C5'        -0.8811    2.4285    1.6206 C.3       1 ATP         0.1809
     15 C4'        -0.1994    1.3333    2.4288 C.3       1 ATP         0.1309
     16 O4'        -1.1285    0.2356    2.5840 O.3       1 ATP        -0.4224
     17 C3'         1.0324    0.7610    1.7344 C.3       1 ATP         0.0947
     18 O3'         1.9175    0.2377    2.7247 O.3       1 ATP        -0.5906
     19 C2'         0.4468   -0.3802    0.9263 C.3       1 ATP         0.0556
     20 O2'         1.3993   -1.3703    0.5961 O.3       1 ATP        -0.5838
     21 C1'        -0.6159   -0.9100    1.8769 C.3       1 ATP         0.4381
     22 N9         -1.7127   -1.6108    1.2130 N.pl3     1 ATP        -0.6883
     23 C8         -2.8641   -1.0399    0.7392 C.ar      1 ATP         0.5620
     24 N7         -3.6659   -1.9257    0.1858 N.2       1 ATP        -0.5584
     25 C5         -3.0053   -3.1223    0.3069 C.ar      1 ATP        -0.2164
     26 C6         -3.3321   -4.4178   -0.0813 C.ar      1 ATP         0.7376
     27 N6         -4.5476   -4.6866   -0.7335 N.pl3     1 ATP        -0.9514
     28 N1         -2.4608   -5.4225    0.1773 N.ar      1 ATP        -0.8054
     29 C2         -1.3053   -5.1020    0.8081 C.ar      1 ATP         0.6649
     30 N3         -0.8788   -3.8921    1.2315 N.ar      1 ATP        -0.7136
     31 C4         -1.7870   -2.9477    0.9438 C.ar      1 ATP         0.5805
     32 HOB2       -6.0035    0.9057   -0.9304 H         1 ATP         0.4367
     33 HOA2       -1.9643    5.5262    0.8182 H         1 ATP         0.4916
     34 H5'1       -1.4794    1.9921    0.8142 H         1 ATP         0.0552
     35 H5'2       -0.1361    3.1034    1.1867 H         1 ATP         0.0552
     36 H4'         0.0402    1.7079    3.4342 H         1 ATP         0.1061
     37 H3'         1.5907    1.4859    1.1353 H         1 ATP         0.0937
     38 HO3'        2.6839   -0.1150    2.2479 H         1 ATP         0.4070
     39 H2'        -0.0017    0.0018    0.0005 H         1 ATP         0.0758
     40 HO2'        2.0953   -0.9375    0.0709 H         1 ATP         0.4080
     41 H1'        -0.1998   -1.6319    2.6178 H         1 ATP         0.1071
     42 H8         -3.0609    0.0200    0.8250 H         1 ATP         0.1022
     43 HN61       -5.2046   -3.9433   -0.8775 H         1 ATP         0.4336
     44 HN62       -4.7849   -5.6332   -0.9625 H         1 ATP         0.4336
     45 H2         -0.6318   -5.9307    0.9993 H         1 ATP         0.0401
@<TRIPOS>BOND
     1    1    2 2
     2    1    3 1
     3    1    4 1
     4    1    8 1
     5    5    6 2
     6    5    7 1
     7    5    8 1
     8    5   12 1
     9    7   32 1
    10    9   10 2
    11    9   11 1
    12    9   12 1
    13    9   13 1
    14   11   33 1
    15   13   14 1
    16   14   15 1
    17   14   34 1
    18   14   35 1
    19   15   16 1
    20   15   17 1
    21   15   36 1
    22   16   21 1
    23   17   18 1
    24   17   19 1
    25   17   37 1
    26   18   38 1
    27   19   20 1
    28   19   21 1
    29   19   39 1
    30   20   40 1
    31   21   22 1
    32   21   41 1
    33   22   23 ar
    34   22   31 ar
    35   23   24 ar
    36   23   42 1
    37   24   25 ar
    38   25   26 ar
    39   25   31 ar
    40   26   27 1
    41   26   28 ar
    42   27   43 1
    43   27   44 1
    44   28   29 ar
    45   29   30 ar
    46   29   45 1
    47   30   31 ar
@<TRIPOS>SUBSTRUCTURE
     1 ATP         1 GROUP 0 A     ****
@<TRIPOS>MOLECULE
[[[5-(6-aminopurin-9-yl)-3,4-dihydroxy-tetrahydrofuran-2-yl]methoxy-hydroxy-phosphoryl]oxy-hydroxy-phosphoryl] phosphate
   45    47     1     0     0
SMALL
USER_CHARGES

@<TRIPOS>ATOM
      1 PG         -1.2326    4.7196    5.4265 P.3       1 ATP         1.3364
      2 O1G        -0.3496    5.9301    5.7110 O.co2     1 ATP        -0.8759
      3 O2G        -0.5635    3.3759    5.6960 O.co2     1 ATP        -0.8759
      4 O3G        -2.6496    4.8348    5.9788 O.co2     1 ATP        -0.8759
      5 PB         -2.0939    5.8763    2.8323 P.3       1 ATP         1.7980
      6 O1B        -3.5270    6.2070    3.1283 O.2       1 ATP        -0.9123
      7 O2B        -1.0651    7.1165    2.9614 O.3       1 ATP        -0.7754
      8 O3B        -1.4438    4.7489    3.7924 O.3       1 ATP        -0.6996
      9 PA         -0.4418    4.8275    0.6351 P.3       1 ATP         1.7855
     10 O1A         0.6003    5.9036    0.5363 O.2       1 ATP        -0.8495
     11 O2A        -0.9460    4.2535   -0.7909 O.3       1 ATP        -0.8288
     12 O3A        -1.8126    5.2991    1.3501 O.3       1 ATP        -0.8018
     13 O5'         0.0170    3.5129    1.4592 O.3       1 ATP        -0.5853
     14 C5'        -0.8811    2.4285    1.6206 C.3       1 ATP         0.1809
     15 C4'        -0.1994    1.3333    2.4288 C.3       1 ATP         0.1309
     16 O4'        -1.1285    0.2356    2.5840 O.3       1 ATP        -0.4224
     17 C3'         1.0324    0.7610    1.7344 C.3       1 ATP         0.0947
     18 O3'         1.9175    0.2377    2.7247 O.3       1 ATP        -0.5906
     19 C2'         0.4468   -0.3802    0.9263 C.3       1 ATP         0.0556
     20 O2'         1.3993   -1.3703    0.5961 O.3       1 ATP        -0.5838
     21 C1'        -0.6159   -0.9100    1.8769 C.3       1 ATP         0.4381
     22 N9         -1.7127   -1.6108    1.2130 N.pl3     1 ATP        -0.6883
     23 C8         -2.8641   -1.0399    0.7392 C.ar      1 ATP         0.5620
     24 N7         -3.6659   -1.9257    0.1858 N.2       1 ATP        -0.5584
     25 C5         -3.0053   -3.1223    0.3069 C.ar      1 ATP        -0.2164
     26 C6         -3.3321   -4.4178   -0.0813 C.ar      1 ATP         0.7376
     27 N6         -4.5476   -4.6866   -0.7335 N.pl3     1 ATP        -0.9514
     28 N1         -2.4608   -5.4225    0.1773 N.ar      1 ATP        -0.8054
     29 C2         -1.3053   -5.1020    0.8081 C.ar      1 ATP         0.6649
     30 N3         -0.8788   -3.8921    1.2315 N.ar      1 ATP        -0.7136
     31 C4         -1.7870   -2.9477    0.9438 C.ar      1 ATP         0.5805
     32 HOB2       -0.9784    7.5731    3.8252 H         1 ATP         0.4367
     33 HOA2       -0.2927    3.8378   -1.3929 H         1 ATP         0.4916
     34 H5'1       -1.7776    2.7841    2.1389 H         1 ATP         0.0552
     35 H5'2       -1.1659    2.0533    0.6322 H         1 ATP         0.0552
     36 H4'         0.0402    1.7079    3.4342 H         1 ATP         0.1061
     37 H3'         1.5907    1.4859    1.1353 H         1 ATP         0.0937
     38 HO3'        2.6839   -0.1150    2.2479 H         1 ATP         0.4070
     39 H2'        -0.0017    0.0018    0.0005 H         1 ATP         0.0758
     40 HO2'        2.0953   -0.9375    0.0709 H         1 ATP         0.4080
     41 H1'        -0.1998   -1.6319    2.6178 H         1 ATP         0.1071
     42 H8         -3.0609    0.0200    0.8250 H         1 ATP         0.1022
     43 HN61       -5.2046   -3.9433   -0.8775 H         1 ATP         0.4336
     44 HN62       -4.7849   -5.6332   -0.9625 H         1 ATP         0.4336
     45 H2         -0.6318   -5.9307    0.9993 H         1 ATP         0.0401
@<TRIPOS>BOND
     1    1    2 2
     2    1    3 1
     3    1    4 1
     4    1    8 1
     5    5    6 2
     6    5    7 1
     7    5    8 1
     8    5   12 1
     9    7   32 1
    10    9   10 2
    11    9   11 1
    12    9   12 1
    13    9   13 1
    14   11   33 1
    15   13   14 1
    16   14   15 1
    17   14   34 1
    18   14   35 1
    19   15   16 1
    20   15   17 1
    21   15   36 1
    22   16   21 1
    23   17   18 1
    24   17   19 1
    25   17   37 1
    26   18   38 1
    27   19   20 1
    28   19   21 1
    29   19   39 1
    30   20   40 1
    31   21   22 1
    32   21   41 1
    33   22   23 ar
    34   22   31 ar
    35   23   24 ar
    36   23   42 1
    37   24   25 ar
    38   25   26 ar
    39   25   31 ar
    40   26   27 1
    41   26   28 ar
    42   27   43 1
    43   27   44 1
    44   28   29 ar
    45   29   30 ar
    46   29   45 1
    47   30   31 ar
@<TRIPOS>SUBSTRUCTURE
     1 ATP         1 GROUP 0 A     ****
@<TRIPOS>MOLECULE
[[[5-(6-aminopurin-9-yl)-3,4-dihydroxy-tetrahydrofuran-2-yl]methoxy-hydroxy-phosphoryl]oxy-hydroxy-phosphoryl] phosphate
   45    47     1     0     0
SMALL
USER_CHARGES

@<TRIPOS>ATOM
      1 PG         -5.0423    4.9821    0.1154 P.3       1 ATP         1.3364
      2 O1G        -5.4448    4.3233   -1.1999 O.co2     1 ATP        -0.8759
      3 O2G        -6.1239    5.8604    0.7355 O.co2     1 ATP        -0.8759
      4 O3G        -4.3574    4.0425    1.1023 O.co2     1 ATP        -0.8759
      5 PB         -2.4198    5.7890   -1.0166 P.3       1 ATP         1.7980
      6 O1B        -2.4883    5.1572   -2.3755 O.2       1 ATP        -0.9123
      7 O2B        -1.7210    7.2460   -0.9742 O.3       1 ATP        -0.7754
      8 O3B        -3.8529    6.0403   -0.3104 O.3       1 ATP        -0.6996
      9 PA         -0.0712    4.4471    0.1412 P.3       1 ATP         1.7855
     10 O1A         0.9348    5.5602    0.0905 O.2       1 ATP        -0.8495
     11 O2A         0.0198    3.4083   -1.0957 O.3       1 ATP        -0.8288
     12 O3A        -1.6088    4.9436    0.0955 O.3       1 ATP        -0.8018
     13 O5'         0.0170    3.5129    1.4592 O.3       1 ATP        -0.5853
     14 C5'        -0.8811    2.4285    1.6206 C.3       1 ATP         0.1809
     15 C4'        -0.1994    1.3333    2.4288 C.3       1 ATP         0.1309
     16 O4'        -1.1285    0.2356    2.5840 O.3       1 ATP        -0.4224
     17 C3'         1.0324    0.7610    1.7344 C.3       1 ATP         0.0947
     18 O3'         1.9175    0.2377    2.7247 O.3       1 ATP        -0.5906
     19 C2'         0.4468   -0.3802    0.9263 C.3       1 ATP         0.0556
     20 O2'         1.3993   -1.3703    0.5961 O.3       1 ATP        -0.5838
     21 C1'        -0.6159   -0.9100    1.8769 C.3       1 ATP         0.4381
     22 N9         -1.7127   -1.6108    1.2130 N.pl3     1 ATP        -0.6883
     23 C8         -2.8641   -1.0399    0.7392 C.ar      1 ATP         0.5620
     24 N7         -3.6659   -1.9257    0.1858 N.2       1 ATP        -0.5584
     25 C5         -3.0053   -3.1223    0.3069 C.ar      1 ATP        -0.2164
     26 C6         -3.3321   -4.4178   -0.0813 C.ar      1 ATP         0.7376
     27 N6         -4.5476   -4.6866   -0.7335 N.pl3     1 ATP        -0.9514
     28 N1         -2.4608   -5.4225    0.1773 N.ar      1 ATP        -0.8054
     29 C2         -1.3053   -5.1020    0.8081 C.ar      1 ATP         0.6649
     30 N3         -0.8788   -3.8921    1.2315 N.ar      1 ATP        -0.7136
     31 C4         -1.7870   -2.9477    0.9438 C.ar      1 ATP         0.5805
     32 HOB2       -0.7900    7.3346   -1.2700 H         1 ATP         0.4367
     33 HOA2        0.8535    2.9116   -1.2379 H         1 ATP         0.4916
     34 H5'1       -1.7776    2.7841    2.1389 H         1 ATP         0.0552
     35 H5'2       -1.1659    2.0533    0.6322 H         1 ATP         0.0552
     36 H4'         0.0402    1.7079    3.4342 H         1 ATP         0.1061
     37 H3'         1.5907    1.4859    1.1353 H         1 ATP         0.0937
     38 HO3'        2.6839   -0.1150    2.2479 H         1 ATP         0.4070
     39 H2'        -0.0017    0.0018    0.0005 H         1 ATP         0.0758
     40 HO2'        2.0953   -0.9375    0.0709 H         1 ATP         0.4080
     41 H1'        -0.1998   -1.6319    2.6178 H         1 ATP         0.1071
     42 H8         -3.0609    0.0200    0.8250 H         1 ATP         0.1022
     43 HN61       -5.2046   -3.9433   -0.8775 H         1 ATP         0.4336
     44 HN62       -4.7849   -5.6332   -0.9625 H         1 ATP         0.4336
     45 H2         -0.6318   -5.9307    0.9993 H         1 ATP         0.0401
@<TRIPOS>BOND
     1    1    2 2
     2    1    3 1
     3    1    4 1
     4    1    8 1
     5    5    6 2
     6    5    7 1
     7    5    8 1
     8    5   12 1
     9    7   32 1
    10    9   10 2
    11    9   11 1
    12    9   12 1
    13    9   13 1
    14   11   33 1
    15   13   14 1
    16   14   15 1
    17   14   34 1
    18   14   35 1
    19   15   16 1
    20   15   17 1
    21   15   36 1
    22   16   21 1
    23   17   18 1
    24   17   19 1
    25   17   37 1
    26   18   38 1
    27   19   20 1
    28   19   21 1
    29   19   39 1
    30   20   40 1
    31   21   22 1
    32   21   41 1
    33   22   23 ar
    34   22   31 ar
    35   23   24 ar
    36   23   42 1
    37   24   25 ar
    38   25   26 ar
    39   25   31 ar
    40   26   27 1
    41   26   28 ar
    42   27   43 1
    43   27   44 1
    44   28   29 ar
    45   29   30 ar
    46   29   45 1
    47   30   31 ar
@<TRIPOS>SUBSTRUCTURE
     1 ATP         1 GROUP 0 A     ****
@<TRIPOS>MOLECULE
[[[5-(6-aminopurin-9-yl)-3,4-dihydroxy-tetrahydrofuran-2-yl]methoxy-hydroxy-phosphoryl]oxy-hydroxy-phosphoryl] phosphate
   45    47     1     0     0
SMALL
USER_CHARGES

@<TRIPOS>ATOM
      1 PG         -1.2771    8.5044    3.9441 P.3       1 ATP         1.3364
      2 O1G        -2.7336    8.9331    4.0890 O.co2     1 ATP        -0.8759
      3 O2G        -0.3693    9.5613    3.3240 O.co2     1 ATP        -0.8759
      4 O3G        -0.6968    7.8301    5.1829 O.co2     1 ATP        -0.8759
      5 PB         -2.0939    5.8763    2.8323 P.3       1 ATP         1.7980
      6 O1B        -1.7155    4.9596    3.9579 O.2       1 ATP        -0.9123
      7 O2B        -3.6537    6.2983    2.7888 O.3       1 ATP        -0.7754
      8 O3B        -1.3212    7.2971    2.8233 O.3       1 ATP        -0.6996
      9 PA         -0.4418    4.8275    0.6351 P.3       1 ATP         1.7855
     10 O1A         0.6003    5.9036    0.5363 O.2       1 ATP        -0.8495
     11 O2A        -0.9460    4.2535   -0.7909 O.3       1 ATP        -0.8288
     12 O3A        -1.8126    5.2991    1.3501 O.3       1 ATP        -0.8018
     13 O5'         0.0170    3.5129    1.4592 O.3       1 ATP        -0.5853
     14 C5'        -0.8811    2.4285    1.6206 C.3       1 ATP         0.1809
     15 C4'        -0.1994    1.3333    2.4288 C.3       1 ATP         0.1309
     16 O4'        -1.1285    0.2356    2.5840 O.3       1 ATP        -0.4224
     17 C3'         1.0324    0.7610    1.7344 C.3       1 ATP         0.0947
     18 O3'         1.9175    0.2377    2.7247 O.3       1 ATP        -0.5906
     19 C2'         0.4468   -0.3802    0.9263 C.3       1 ATP         0.0556
     20 O2'         1.3993   -1.3703    0.5961 O.3       1 ATP        -0.5838
     21 C1'        -0.6159   -0.9100    1.8769 C.3       1 ATP         0.4381
     22 N9         -1.7127   -1.6108    1.2130 N.pl3     1 ATP        -0.6883
     23 C8         -2.8641   -1.0399    0.7392 C.ar      1 ATP         0.5620
     24 N7         -3.6659   -1.9257    0.1858 N.2       1 ATP        -0.5584
     25 C5         -3.0053   -3.1223    0.3069 C.ar      1 ATP        -0.2164
     26 C6         -3.3321   -4.4178   -0.0813 C.ar      1 ATP         0.7376
     27 N6         -4.5476   -4.6866   -0.7335 N.pl3     1 ATP        -0.9514
     28 N1         -2.4608   -5.4225    0.1773 N.ar      1 ATP        -0.8054
     29 C2         -1.3053   -5.1020    0.8081 C.ar      1 ATP         0.6649
     30 N3         -0.8788   -3.8921    1.2315 N.ar      1 ATP        -0.7136
     31 C4         -1.7870   -2.9477    0.9438 C.ar      1 ATP         0.5805
     32 HOB2       -4.0383    6.7735    3.5559 H         1 ATP         0.4367
     33 HOA2       -0.2927    3.8378   -1.3929 H         1 ATP         0.4916
     34 H5'1       -1.7776    2.7841    2.1389 H         1 ATP         0.0552
     35 H5'2       -1.1659    2.0533    0.6322 H         1 ATP         0.0552
     36 H4'         0.0402    1.7079    3.4342 H         1 ATP         0.1061
     37 H3'         1.5907    1.4859    1.1353 H         1 ATP         0.0937
     38 HO3'        2.6839   -0.1150    2.2479 H         1 ATP         0.4070
     39 H2'        -0.0017    0.0018    0.0005 H         1 ATP         0.0758
     40 HO2'        2.0953   -0.9375    0.0709 H         1 ATP         0.4080
     41 H1'        -0.1998   -1.6319    2.6178 H         1 ATP         0.1071
     42 H8         -3.0609    0.0200    0.8250 H         1 ATP         0.1022
     43 HN61       -5.2046   -3.9433   -0.8775 H         1 ATP         0.4336
     44 HN62       -4.7849   -5.6332   -0.9625 H         1 ATP         0.4336
     45 H2         -0.6318   -5.9307    0.9993 H         1 ATP         0.0401
@<TRIPOS>BOND
     1    1    2 2
     2    1    3 1
     3    1    4 1
     4    1    8 1
     5    5    6 2
     6    5    7 1
     7    5    8 1
     8    5   12 1
     9    7   32 1
    10    9   10 2
    11    9   11 1
    12    9   12 1
    13    9   13 1
    14   11   33 1
    15   13   14 1
    16   14   15 1
    17   14   34 1
    18   14   35 1
    19   15   16 1
    20   15   17 1
    21   15   36 1
    22   16   21 1
    23   17   18 1
    24   17   19 1
    25   17   37 1
    26   18   38 1
    27   19   20 1
    28   19   21 1
    29   19   39 1
    30   20   40 1
    31   21   22 1
    32   21   41 1
    33   22   23 ar
    34   22   31 ar
    35   23   24 ar
    36   23   42 1
    37   24   25 ar
    38   25   26 ar
    39   25   31 ar
    40   26   27 1
    41   26   28 ar
    42   27   43 1
    43   27   44 1
    44   28   29 ar
    45   29   30 ar
    46   29   45 1
    47   30   31 ar
@<TRIPOS>SUBSTRUCTURE
     1 ATP         1 GROUP 0 A     ****
@<TRIPOS>MOLECULE
[[[5-(6-aminopurin-9-yl)-3,4-dihydroxy-tetrahydrofuran-2-yl]methoxy-hydroxy-phosphoryl]oxy-hydroxy-phosphoryl] phosphate
   45    47     1     0     0
SMALL
USER_CHARGES

@<TRIPOS>ATOM
      1 PG         -6.0803    3.1373   -2.4837 P.3       1 ATP         1.3364
      2 O1G        -7.3337    3.7235   -1.8422 O.co2     1 ATP        -0.8759
      3 O2G        -6.1807    1.6527   -2.8181 O.co2     1 ATP        -0.8759
      4 O3G        -5.4907    3.9918   -3.6009 O.co2     1 ATP        -0.8759
      5 PB         -4.3496    4.4743   -0.4769 P.3       1 ATP         1.7980
      6 O1B        -3.6759    5.5115   -1.3260 O.2       1 ATP        -0.9123
      7 O2B        -5.6194    5.0043    0.3714 O.3       1 ATP        -0.7754
      8 O3B        -4.9448    3.2103   -1.2916 O.3       1 ATP        -0.6996
      9 PA         -2.5921    4.4092    1.8820 P.3       1 ATP         1.7855
     10 O1A        -3.4549    5.1148    2.8877 O.2       1 ATP        -0.8495
     11 O2A        -1.4936    5.3553    1.1641 O.3       1 ATP        -0.8288
     12 O3A        -3.4087    3.7795    0.6372 O.3       1 ATP        -0.8018
     13 O5'        -1.7334    3.1724    2.4742 O.3       1 ATP        -0.5853
     14 C5'        -0.8811    2.4285    1.6206 C.3       1 ATP         0.1809
     15 C4'        -0.1994    1.3333    2.4288 C.3       1 ATP         0.1309
     16 O4'        -1.1285    0.2356    2.5840 O.3       1 ATP        -0.4224
     17 C3'         1.0324    0.7610    1.7344 C.3       1 ATP         0.0947
     18 O3'         1.9175    0.2377    2.7247 O.3       1 ATP        -0.5906
     19 C2'         0.4468   -0.3802    0.9263 C.3       1 ATP         0.0556
     20 O2'         1.3993   -1.3703    0.5961 O.3       1 ATP        -0.5838
     21 C1'        -0.6159   -0.9100    1.8769 C.3       1 ATP         0.4381
     22 N9         -1.7127   -1.6108    1.2130 N.pl3     1 ATP        -0.6883
     23 C8         -2.8641   -1.0399    0.7392 C.ar      1 ATP         0.5620
     24 N7         -3.6659   -1.9257    0.1858 N.2       1 ATP        -0.5584
     25 C5         -3.0053   -3.1223    0.3069 C.ar      1 ATP        -0.2164
     26 C6         -3.3321   -4.4178   -0.0813 C.ar      1 ATP         0.7376
     27 N6         -4.5476   -4.6866   -0.7335 N.pl3     1 ATP        -0.9514
     28 N1         -2.4608   -5.4225    0.1773 N.ar      1 ATP        -0.8054
     29 C2         -1.3053   -5.1020    0.8081 C.ar      1 ATP         0.6649
     30 N3         -0.8788   -3.8921    1.2315 N.ar      1 ATP        -0.7136
     31 C4         -1.7870   -2.9477    0.9438 C.ar      1 ATP         0.5805
     32 HOB2       -5.4869    5.7246    1.0240 H         1 ATP         0.4367
     33 HOA2       -0.8203    5.8049    1.7177 H         1 ATP         0.4916
     34 H5'1       -1.4794    1.9921    0.8142 H         1 ATP         0.0552
     35 H5'2       -0.1361    3.1034    1.1867 H         1 ATP         0.0552
     36 H4'         0.0402    1.7079    3.4342 H         1 ATP         0.1061
     37 H3'         1.5907    1.4859    1.1353 H         1 ATP         0.0937
     38 HO3'        2.6839   -0.1150    2.2479 H         1 ATP         0.4070
     39 H2'        -0.0017    0.0018    0.0005 H         1 ATP         0.0758
     40 HO2'        2.0953   -0.9375    0.0709 H         1 ATP         0.4080
     41 H1'        -0.1998   -1.6319    2.6178 H         1 ATP         0.1071
     42 H8         -3.0609    0.0200    0.8250 H         1 ATP         0.1022
     43 HN61       -5.2046   -3.9433   -0.8775 H         1 ATP         0.4336
     44 HN62       -4.7849   -5.6332   -0.9625 H         1 ATP         0.4336
     45 H2         -0.6318   -5.9307    0.9993 H         1 ATP         0.0401
@<TRIPOS>BOND
     1    1    2 2
     2    1    3 1
     3    1    4 1
     4    1    8 1
     5    5    6 2
     6    5    7 1
     7    5    8 1
     8    5   12 1
     9    7   32 1
    10    9   10 2
    11    9   11 1
    12    9   12 1
    13    9   13 1
    14   11   33 1
    15   13   14 1
    16   14   15 1
    17   14   34 1
    18   14   35 1
    19   15   16 1
    20   15   17 1
    21   15   36 1
    22   16   21 1
    23   17   18 1
    24   17   19 1
    25   17   37 1
    26   18   38 1
    27   19   20 1
    28   19   21 1
    29   19   39 1
    30   20   40 1
    31   21   22 1
    32   21   41 1
    33   22   23 ar
    34   22   31 ar
    35   23   24 ar
    36   23   42 1
    37   24   25 ar
    38   25   26 ar
    39   25   31 ar
    40   26   27 1
    41   26   28 ar
    42   27   43 1
    43   27   44 1
    44   28   29 ar
    45   29   30 ar
    46   29   45 1
    47   30   31 ar
@<TRIPOS>SUBSTRUCTURE
     1 ATP         1 GROUP 0 A     ****
@<TRIPOS>MOLECULE
[[[5-(6-aminopurin-9-yl)-3,4-dihydroxy-tetrahydrofuran-2-yl]methoxy-hydroxy-phosphoryl]oxy-hydroxy-phosphoryl] phosphate
   45    47     1     0     0
SMALL
USER_CHARGES

@<TRIPOS>ATOM
      1 PG         -7.8237    3.9046    0.8815 P.3       1 ATP         1.3364
      2 O1G        -7.6818    4.8723   -0.2887 O.co2     1 ATP        -0.8759
      3 O2G        -8.2822    4.5545    2.1828 O.co2     1 ATP        -0.8759
      4 O3G        -8.5525    2.6096    0.5382 O.co2     1 ATP        -0.8759
      5 PB         -5.2043    2.6583    0.2524 P.3       1 ATP         1.7980
      6 O1B        -5.6405    1.3123   -0.2462 O.2       1 ATP        -0.9123
      7 O2B        -4.8835    3.7440   -0.9015 O.3       1 ATP        -0.7754
      8 O3B        -6.2804    3.4170    1.1916 O.3       1 ATP        -0.6996
      9 PA         -3.0702    3.8637    1.8801 P.3       1 ATP         1.7855
     10 O1A        -3.8863    4.6225    2.8860 O.2       1 ATP        -0.8495
     11 O2A        -2.5441    4.7561    0.6375 O.3       1 ATP        -0.8288
     12 O3A        -3.8670    2.6567    1.1582 O.3       1 ATP        -0.8018
     13 O5'        -1.7334    3.1724    2.4742 O.3       1 ATP        -0.5853
     14 C5'        -0.8811    2.4285    1.6206 C.3       1 ATP         0.1809
     15 C4'        -0.1994    1.3333    2.4288 C.3       1 ATP         0.1309
     16 O4'        -1.1285    0.2356    2.5840 O.3       1 ATP        -0.4224
     17 C3'         1.0324    0.7610    1.7344 C.3       1 ATP         0.0947
     18 O3'         1.9175    0.2377    2.7247 O.3       1 ATP        -0.5906
     19 C2'         0.4468   -0.3802    0.9263 C.3       1 ATP         0.0556
     20 O2'         1.3993   -1.3703    0.5961 O.3       1 ATP        -0.5838
     21 C1'        -0.6159   -0.9100    1.8769 C.3       1 ATP         0.4381
     22 N9         -1.7127   -1.6108    1.2130 N.pl3     1 ATP        -0.6883
     23 C8         -2.8641   -1.0399    0.7392 C.ar      1 ATP         0.5620
     24 N7         -3.6659   -1.9257    0.1858 N.2       1 ATP        -0.5584
     25 C5         -3.0053   -3.1223    0.3069 C.ar      1 ATP        -0.2164
     26 C6         -3.3321   -4.4178   -0.0813 C.ar      1 ATP         0.7376
     27 N6         -4.5476   -4.6866   -0.7335 N.pl3     1 ATP        -0.9514
     28 N1         -2.4608   -5.4225    0.1773 N.ar      1 ATP        -0.8054
     29 C2         -1.3053   -5.1020    0.8081 C.ar      1 ATP         0.6649
     30 N3         -0.8788   -3.8921    1.2315 N.ar      1 ATP        -0.7136
     31 C4         -1.7870   -2.9477    0.9438 C.ar      1 ATP         0.5805
     32 HOB2       -4.1786    3.5478   -1.5548 H         1 ATP         0.4367
     33 HOA2       -3.2012    5.2003    0.0605 H         1 ATP         0.4916
     34 H5'1       -1.4794    1.9921    0.8142 H         1 ATP         0.0552
     35 H5'2       -0.1361    3.1034    1.1867 H         1 ATP         0.0552
     36 H4'         0.0402    1.7079    3.4342 H         1 ATP         0.1061
     37 H3'         1.5907    1.4859    1.1353 H         1 ATP         0.0937
     38 HO3'        2.6839   -0.1150    2.2479 H         1 ATP         0.4070
     39 H2'        -0.0017    0.0018    0.0005 H         1 ATP         0.0758
     40 HO2'        2.0953   -0.9375    0.0709 H         1 ATP         0.4080
     41 H1'        -0.1998   -1.6319    2.6178 H         1 ATP         0.1071
     42 H8         -3.0609    0.0200    0.8250 H         1 ATP         0.1022
     43 HN61       -5.2046   -3.9433   -0.8775 H         1 ATP         0.4336
     44 HN62       -4.7849   -5.6332   -0.9625 H         1 ATP         0.4336
     45 H2         -0.6318   -5.9307    0.9993 H         1 ATP         0.0401
@<TRIPOS>BOND
     1    1    2 2
     2    1    3 1
     3    1    4 1
     4    1    8 1
     5    5    6 2
     6    5    7 1
     7    5    8 1
     8    5   12 1
     9    7   32 1
    10    9   10 2
    11    9   11 1
    12    9   12 1
    13    9   13 1
    14   11   33 1
    15   13   14 1
    16   14   15 1
    17   14   34 1
    18   14   35 1
    19   15   16 1
    20   15   17 1
    21   15   36 1
    22   16   21 1
    23   17   18 1
    24   17   19 1
    25   17   37 1
    26   18   38 1
    27   19   20 1
    28   19   21 1
    29   19   39 1
    30   20   40 1
    31   21   22 1
    32   21   41 1
    33   22   23 ar
    34   22   31 ar
    35   23   24 ar
    36   23   42 1
    37   24   25 ar
    38   25   26 ar
    39   25   31 ar
    40   26   27 1
    41   26   28 ar
    42   27   43 1
    43   27   44 1
    44   28   29 ar
    45   29   30 ar
    46   29   45 1
    47   30   31 ar
@<TRIPOS>SUBSTRUCTURE
     1 ATP         1 GROUP 0 A     ****
@<TRIPOS>MOLECULE
[[[5-(6-aminopurin-9-yl)-3,4-dihydroxy-tetrahydrofuran-2-yl]methoxy-hydroxy-phosphoryl]oxy-hydroxy-phosphoryl] phosphate
   45    47     1     0     0
SMALL
USER_CHARGES

@<TRIPOS>ATOM
      1 PG         -6.4585    2.2082    3.3658 P.3       1 ATP         1.3364
      2 O1G        -7.0513    0.8523    2.9971 O.co2     1 ATP        -0.8759
      3 O2G        -7.4043    3.1175    4.1434 O.co2     1 ATP        -0.8759
      4 O3G        -5.0461    2.1395    3.9372 O.co2     1 ATP        -0.8759
      5 PB         -5.3869    2.5588    0.6202 P.3       1 ATP         1.7980
      6 O1B        -5.7613    1.2464   -0.0027 O.2       1 ATP        -0.9123
      7 O2B        -5.5324    3.8430   -0.3508 O.3       1 ATP        -0.7754
      8 O3B        -6.2605    2.9696    1.9178 O.3       1 ATP        -0.6996
      9 PA         -3.0702    3.8637    1.8801 P.3       1 ATP         1.7855
     10 O1A        -3.8863    4.6225    2.8860 O.2       1 ATP        -0.8495
     11 O2A        -2.5441    4.7561    0.6375 O.3       1 ATP        -0.8288
     12 O3A        -3.8670    2.6567    1.1582 O.3       1 ATP        -0.8018
     13 O5'        -1.7334    3.1724    2.4742 O.3       1 ATP        -0.5853
     14 C5'        -0.8811    2.4285    1.6206 C.3       1 ATP         0.1809
     15 C4'        -0.1994    1.3333    2.4288 C.3       1 ATP         0.1309
     16 O4'        -1.1285    0.2356    2.5840 O.3       1 ATP        -0.4224
     17 C3'         1.0324    0.7610    1.7344 C.3       1 ATP         0.0947
     18 O3'         1.9175    0.2377    2.7247 O.3       1 ATP        -0.5906
     19 C2'         0.4468   -0.3802    0.9263 C.3       1 ATP         0.0556
     20 O2'         1.3993   -1.3703    0.5961 O.3       1 ATP        -0.5838
     21 C1'        -0.6159   -0.9100    1.8769 C.3       1 ATP         0.4381
     22 N9         -1.7127   -1.6108    1.2130 N.pl3     1 ATP        -0.6883
     23 C8         -2.8641   -1.0399    0.7392 C.ar      1 ATP         0.5620
     24 N7         -3.6659   -1.9257    0.1858 N.2       1 ATP        -0.5584
     25 C5         -3.0053   -3.1223    0.3069 C.ar      1 ATP        -0.2164
     26 C6         -3.3321   -4.4178   -0.0813 C.ar      1 ATP         0.7376
     27 N6         -4.5476   -4.6866   -0.7335 N.pl3     1 ATP        -0.9514
     28 N1         -2.4608   -5.4225    0.1773 N.ar      1 ATP        -0.8054
     29 C2         -1.3053   -5.1020    0.8081 C.ar      1 ATP         0.6649
     30 N3         -0.8788   -3.8921    1.2315 N.ar      1 ATP        -0.7136
     31 C4         -1.7870   -2.9477    0.9438 C.ar      1 ATP         0.5805
     32 HOB2       -5.0096    3.8724   -1.1802 H         1 ATP         0.4367
     33 HOA2       -3.2012    5.2003    0.0605 H         1 ATP         0.4916
     34 H5'1       -1.4794    1.9921    0.8142 H         1 ATP         0.0552
     35 H5'2       -0.1361    3.1034    1.1867 H         1 ATP         0.0552
     36 H4'         0.0402    1.7079    3.4342 H         1 ATP         0.1061
     37 H3'         1.5907    1.4859    1.1353 H         1 ATP         0.0937
     38 HO3'        2.6839   -0.1150    2.2479 H         1 ATP         0.4070
     39 H2'        -0.0017    0.0018    0.0005 H         1 ATP         0.0758
     40 HO2'        2.0953   -0.9375    0.0709 H         1 ATP         0.4080
     41 H1'        -0.1998   -1.6319    2.6178 H         1 ATP         0.1071
     42 H8         -3.0609    0.0200    0.8250 H         1 ATP         0.1022
     43 HN61       -5.2046   -3.9433   -0.8775 H         1 ATP         0.4336
     44 HN62       -4.7849   -5.6332   -0.9625 H         1 ATP         0.4336
     45 H2         -0.6318   -5.9307    0.9993 H         1 ATP         0.0401
@<TRIPOS>BOND
     1    1    2 2
     2    1    3 1
     3    1    4 1
     4    1    8 1
     5    5    6 2
     6    5    7 1
     7    5    8 1
     8    5   12 1
     9    7   32 1
    10    9   10 2
    11    9   11 1
    12    9   12 1
    13    9   13 1
    14   11   33 1
    15   13   14 1
    16   14   15 1
    17   14   34 1
    18   14   35 1
    19   15   16 1
    20   15   17 1
    21   15   36 1
    22   16   21 1
    23   17   18 1
    24   17   19 1
    25   17   37 1
    26   18   38 1
    27   19   20 1
    28   19   21 1
    29   19   39 1
    30   20   40 1
    31   21   22 1
    32   21   41 1
    33   22   23 ar
    34   22   31 ar
    35   23   24 ar
    36   23   42 1
    37   24   25 ar
    38   25   26 ar
    39   25   31 ar
    40   26   27 1
    41   26   28 ar
    42   27   43 1
    43   27   44 1
    44   28   29 ar
    45   29   30 ar
    46   29   45 1
    47   30   31 ar
@<TRIPOS>SUBSTRUCTURE
     1 ATP         1 GROUP 0 A     ****
@<TRIPOS>MOLECULE
[[[5-(6-aminopurin-9-yl)-3,4-dihydroxy-tetrahydrofuran-2-yl]methoxy-hydroxy-phosphoryl]oxy-hydroxy-phosphoryl] phosphate
   45    47     1     0     0
SMALL
USER_CHARGES

@<TRIPOS>ATOM
      1 PG         -3.5518    3.9243   -4.0174 P.3       1 ATP         1.3364
      2 O1G        -5.0769    3.9346   -4.0064 O.co2     1 ATP        -0.8759
      3 O2G        -2.9362    2.7114   -4.7071 O.co2     1 ATP        -0.8759
      4 O3G        -2.9196    5.2554   -4.4106 O.co2     1 ATP        -0.8759
      5 PB         -3.4617    4.6701   -1.1459 P.3       1 ATP         1.7980
      6 O1B        -2.9406    6.0744   -1.2314 O.2       1 ATP        -0.9123
      7 O2B        -5.0655    4.5441   -0.9885 O.3       1 ATP        -0.7754
      8 O3B        -3.1378    3.7451   -2.4324 O.3       1 ATP        -0.6996
      9 PA         -2.9684    4.0281    1.6828 P.3       1 ATP         1.7855
     10 O1A        -4.3674    4.0793    2.2248 O.2       1 ATP        -0.8495
     11 O2A        -2.1165    5.3854    1.9045 O.3       1 ATP        -0.8288
     12 O3A        -2.8870    3.7964    0.0851 O.3       1 ATP        -0.8018
     13 O5'        -2.0396    2.8622    2.3120 O.3       1 ATP        -0.5853
     14 C5'        -0.8811    2.4285    1.6206 C.3       1 ATP         0.1809
     15 C4'        -0.1994    1.3333    2.4288 C.3       1 ATP         0.1309
     16 O4'        -1.1285    0.2356    2.5840 O.3       1 ATP        -0.4224
     17 C3'         1.0324    0.7610    1.7344 C.3       1 ATP         0.0947
     18 O3'         1.9175    0.2377    2.7247 O.3       1 ATP        -0.5906
     19 C2'         0.4468   -0.3802    0.9263 C.3       1 ATP         0.0556
     20 O2'         1.3993   -1.3703    0.5961 O.3       1 ATP        -0.5838
     21 C1'        -0.6159   -0.9100    1.8769 C.3       1 ATP         0.4381
     22 N9         -1.7127   -1.6108    1.2130 N.pl3     1 ATP        -0.6883
     23 C8         -1.7712   -2.9546    0.9544 C.ar      1 ATP         0.5620
     24 N7         -2.8883   -3.2948    0.3462 N.2       1 ATP        -0.5584
     25 C5         -3.5834   -2.1202    0.2043 C.ar      1 ATP        -0.2164
     26 C6         -4.8225   -1.8251   -0.3554 C.ar      1 ATP         0.7376
     27 N6         -5.6154   -2.8394   -0.9189 N.pl3     1 ATP        -0.9514
     28 N1         -5.2589   -0.5425   -0.3507 N.ar      1 ATP        -0.8054
     29 C2         -4.4510    0.3913    0.2069 C.ar      1 ATP         0.6649
     30 N3         -3.2368    0.2296    0.7767 N.ar      1 ATP        -0.7136
     31 C4         -2.8684   -1.0596    0.7376 C.ar      1 ATP         0.5805
     32 HOB2       -5.6418    4.9163   -1.6896 H         1 ATP         0.4367
     33 HOA2       -2.4468    6.2221    1.5135 H         1 ATP         0.4916
     34 H5'1       -1.1760    2.0498    0.6365 H         1 ATP         0.0552
     35 H5'2       -0.2072    3.2811    1.4873 H         1 ATP         0.0552
     36 H4'         0.0402    1.7079    3.4342 H         1 ATP         0.1061
     37 H3'         1.5907    1.4859    1.1353 H         1 ATP         0.0937
     38 HO3'        2.1521    0.9800    3.3017 H         1 ATP         0.4070
     39 H2'        -0.0017    0.0018    0.0005 H         1 ATP         0.0758
     40 HO2'        0.9369   -2.0558    0.0825 H         1 ATP         0.4080
     41 H1'        -0.1998   -1.6319    2.6178 H         1 ATP         0.1071
     42 H8         -0.9745   -3.6312    1.2318 H         1 ATP         0.1022
     43 HN61       -6.5251   -2.6138   -1.2745 H         1 ATP         0.4336
     44 HN62       -5.3033   -3.7910   -0.8740 H         1 ATP         0.4336
     45 H2         -4.8317    1.4071    0.1930 H         1 ATP         0.0401
@<TRIPOS>BOND
     1    1    2 2
     2    1    3 1
     3    1    4 1
     4    1    8 1
     5    5    6 2
     6    5    7 1
     7    5    8 1
     8    5   12 1
     9    7   32 1
    10    9   10 2
    11    9   11 1
    12    9   12 1
    13    9   13 1
    14   11   33 1
    15   13   14 1
    16   14   15 1
    17   14   34 1
    18   14   35 1
    19   15   16 1
    20   15   17 1
    21   15   36 1
    22   16   21 1
    23   17   18 1
    24   17   19 1
    25   17   37 1
    26   18   38 1
    27   19   20 1
    28   19   21 1
    29   19   39 1
    30   20   40 1
    31   21   22 1
    32   21   41 1
    33   22   23 ar
    34   22   31 ar
    35   23   24 ar
    36   23   42 1
    37   24   25 ar
    38   25   26 ar
    39   25   31 ar
    40   26   27 1
    41   26   28 ar
    42   27   43 1
    43   27   44 1
    44   28   29 ar
    45   29   30 ar
    46   29   45 1
    47   30   31 ar
@<TRIPOS>SUBSTRUCTURE
     1 ATP         1 GROUP 0 A     ****
@<TRIPOS>MOLECULE
[[[5-(6-aminopurin-9-yl)-3,4-dihydroxy-tetrahydrofuran-2-yl]methoxy-hydroxy-phosphoryl]oxy-hydroxy-phosphoryl] phosphate
   45    47     1     0     0
SMALL
USER_CHARGES

@<TRIPOS>ATOM
      1 PG         -1.2326    4.7196    5.4265 P.3       1 ATP         1.3364
      2 O1G        -0.3496    5.9301    5.7110 O.co2     1 ATP        -0.8759
      3 O2G        -0.5635    3.3759    5.6960 O.co2     1 ATP        -0.8759
      4 O3G        -2.6496    4.8348    5.9788 O.co2     1 ATP        -0.8759
      5 PB         -2.0939    5.8763    2.8323 P.3       1 ATP         1.7980
      6 O1B        -3.5270    6.2070    3.1283 O.2       1 ATP        -0.9123
      7 O2B        -1.0651    7.1165    2.9614 O.3       1 ATP        -0.7754
      8 O3B        -1.4438    4.7489    3.7924 O.3       1 ATP        -0.6996
      9 PA         -0.4418    4.8275    0.6351 P.3       1 ATP         1.7855
     10 O1A         0.6003    5.9036    0.5363 O.2       1 ATP        -0.8495
     11 O2A        -0.9460    4.2535   -0.7909 O.3       1 ATP        -0.8288
     12 O3A        -1.8126    5.2991    1.3501 O.3       1 ATP        -0.8018
     13 O5'         0.0170    3.5129    1.4592 O.3       1 ATP        -0.5853
     14 C5'        -0.8811    2.4285    1.6206 C.3       1 ATP         0.1809
     15 C4'        -0.1994    1.3333    2.4288 C.3       1 ATP         0.1309
     16 O4'        -1.1285    0.2356    2.5840 O.3       1 ATP        -0.4224
     17 C3'         1.0324    0.7610    1.7344 C.3       1 ATP         0.0947
     18 O3'         1.9175    0.2377    2.7247 O.3       1 ATP        -0.5906
     19 C2'         0.4468   -0.3802    0.9263 C.3       1 ATP         0.0556
     20 O2'         1.3993   -1.3703    0.5961 O.3       1 ATP        -0.5838
     21 C1'        -0.6159   -0.9100    1.8769 C.3       1 ATP         0.4381
     22 N9         -1.7127   -1.6108    1.2130 N.pl3     1 ATP        -0.6883
     23 C8         -1.7712   -2.9546    0.9544 C.ar      1 ATP         0.5620
     24 N7         -2.8883   -3.2948    0.3462 N.2       1 ATP        -0.5584
     25 C5         -3.5834   -2.1202    0.2043 C.ar      1 ATP        -0.2164
     26 C6         -4.8225   -1.8251   -0.3554 C.ar      1 ATP         0.7376
     27 N6         -5.6154   -2.8394   -0.9189 N.pl3     1 ATP        -0.9514
     28 N1         -5.2589   -0.5425   -0.3507 N.ar      1 ATP        -0.8054
     29 C2         -4.4510    0.3913    0.2069 C.ar      1 ATP         0.6649
     30 N3         -3.2368    0.2296    0.7767 N.ar      1 ATP        -0.7136
     31 C4         -2.8684   -1.0596    0.7376 C.ar      1 ATP         0.5805
     32 HOB2       -0.9784    7.5731    3.8252 H         1 ATP         0.4367
     33 HOA2       -0.2927    3.8378   -1.3929 H         1 ATP         0.4916
     34 H5'1       -1.7776    2.7841    2.1389 H         1 ATP         0.0552
     35 H5'2       -1.1659    2.0533    0.6322 H         1 ATP         0.0552
     36 H4'         0.0402    1.7079    3.4342 H         1 ATP         0.1061
     37 H3'         1.5907    1.4859    1.1353 H         1 ATP         0.0937
     38 HO3'        2.6839   -0.1150    2.2479 H         1 ATP         0.4070
     39 H2'        -0.0017    0.0018    0.0005 H         1 ATP         0.0758
     40 HO2'        2.0953   -0.9375    0.0709 H         1 ATP         0.4080
     41 H1'        -0.1998   -1.6319    2.6178 H         1 ATP         0.1071
     42 H8         -0.9745   -3.6312    1.2318 H         1 ATP         0.1022
     43 HN61       -5.2619   -3.7766   -0.9586 H         1 ATP         0.4336
     44 HN62       -6.4834   -2.5990   -1.3590 H         1 ATP         0.4336
     45 H2         -4.8317    1.4071    0.1930 H         1 ATP         0.0401
@<TRIPOS>BOND
     1    1    2 2
     2    1    3 1
     3    1    4 1
     4    1    8 1
     5    5    6 2
     6    5    7 1
     7    5    8 1
     8    5   12 1
     9    7   32 1
    10    9   10 2
    11    9   11 1
    12    9   12 1
    13    9   13 1
    14   11   33 1
    15   13   14 1
    16   14   15 1
    17   14   34 1
    18   14   35 1
    19   15   16 1
    20   15   17 1
    21   15   36 1
    22   16   21 1
    23   17   18 1
    24   17   19 1
    25   17   37 1
    26   18   38 1
    27   19   20 1
    28   19   21 1
    29   19   39 1
    30   20   40 1
    31   21   22 1
    32   21   41 1
    33   22   23 ar
    34   22   31 ar
    35   23   24 ar
    36   23   42 1
    37   24   25 ar
    38   25   26 ar
    39   25   31 ar
    40   26   27 1
    41   26   28 ar
    42   27   43 1
    43   27   44 1
    44   28   29 ar
    45   29   30 ar
    46   29   45 1
    47   30   31 ar
@<TRIPOS>SUBSTRUCTURE
     1 ATP         1 GROUP 0 A     ****
@<TRIPOS>MOLECULE
[[[5-(6-aminopurin-9-yl)-3,4-dihydroxy-tetrahydrofuran-2-yl]methoxy-hydroxy-phosphoryl]oxy-hydroxy-phosphoryl] phosphate
   45    47     1     0     0
SMALL
USER_CHARGES

@<TRIPOS>ATOM
      1 PG         -1.1897    5.1190   -2.4803 P.3       1 ATP         1.3364
      2 O1G        -0.3630    6.3869   -2.2928 O.co2     1 ATP        -0.8759
      3 O2G        -1.5128    4.7883   -3.9336 O.co2     1 ATP        -0.8759
      4 O3G        -0.7040    3.9280   -1.6607 O.co2     1 ATP        -0.8759
      5 PB         -3.0410    5.9271   -0.3056 P.3       1 ATP         1.7980
      6 O1B        -2.3870    7.1898    0.1723 O.2       1 ATP        -0.9123
      7 O2B        -4.6569    5.9618   -0.3329 O.3       1 ATP        -0.7754
      8 O3B        -2.6504    5.4869   -1.8120 O.3       1 ATP        -0.6996
      9 PA         -2.5519    4.3888    2.1545 P.3       1 ATP         1.7855
     10 O1A        -3.7885    4.7215    2.9377 O.2       1 ATP        -0.8495
     11 O2A        -1.2608    5.2879    2.5314 O.3       1 ATP        -0.8288
     12 O3A        -2.7016    4.6060    0.5597 O.3       1 ATP        -0.8018
     13 O5'        -2.0396    2.8622    2.3120 O.3       1 ATP        -0.5853
     14 C5'        -0.8811    2.4285    1.6206 C.3       1 ATP         0.1809
     15 C4'        -0.1994    1.3333    2.4288 C.3       1 ATP         0.1309
     16 O4'        -1.1285    0.2356    2.5840 O.3       1 ATP        -0.4224
     17 C3'         1.0324    0.7610    1.7344 C.3       1 ATP         0.0947
     18 O3'         1.9175    0.2377    2.7247 O.3       1 ATP        -0.5906
     19 C2'         0.4468   -0.3802    0.9263 C.3       1 ATP         0.0556
     20 O2'         1.3993   -1.3703    0.5961 O.3       1 ATP        -0.5838
     21 C1'        -0.6159   -0.9100    1.8769 C.3       1 ATP         0.4381
     22 N9         -1.7127   -1.6108    1.2130 N.pl3     1 ATP        -0.6883
     23 C8         -1.7712   -2.9546    0.9544 C.ar      1 ATP         0.5620
     24 N7         -2.8883   -3.2948    0.3462 N.2       1 ATP        -0.5584
     25 C5         -3.5834   -2.1202    0.2043 C.ar      1 ATP        -0.2164
     26 C6         -4.8225   -1.8251   -0.3554 C.ar      1 ATP         0.7376
     27 N6         -5.6154   -2.8394   -0.9189 N.pl3     1 ATP        -0.9514
     28 N1         -5.2589   -0.5425   -0.3507 N.ar      1 ATP        -0.8054
     29 C2         -4.4510    0.3913    0.2069 C.ar      1 ATP         0.6649
     30 N3         -3.2368    0.2296    0.7767 N.ar      1 ATP        -0.7136
     31 C4         -2.8684   -1.0596    0.7376 C.ar      1 ATP         0.5805
     32 HOB2       -5.1423    6.1198    0.5047 H         1 ATP         0.4367
     33 HOA2       -0.9207    5.2677    3.4511 H         1 ATP         0.4916
     34 H5'1       -1.1760    2.0498    0.6365 H         1 ATP         0.0552
     35 H5'2       -0.2072    3.2811    1.4873 H         1 ATP         0.0552
     36 H4'         0.0402    1.7079    3.4342 H         1 ATP         0.1061
     37 H3'         1.5907    1.4859    1.1353 H         1 ATP         0.0937
     38 HO3'        2.6839   -0.1150    2.2479 H         1 ATP         0.4070
     39 H2'        -0.0017    0.0018    0.0005 H         1 ATP         0.0758
     40 HO2'        2.0953   -0.9375    0.0709 H         1 ATP         0.4080
     41 H1'        -0.1998   -1.6319    2.6178 H         1 ATP         0.1071
     42 H8         -0.9745   -3.6312    1.2318 H         1 ATP         0.1022
     43 HN61       -5.2619   -3.7766   -0.9586 H         1 ATP         0.4336
     44 HN62       -6.4834   -2.5990   -1.3590 H         1 ATP         0.4336
     45 H2         -4.8317    1.4071    0.1930 H         1 ATP         0.0401
@<TRIPOS>BOND
     1    1    2 2
     2    1    3 1
     3    1    4 1
     4    1    8 1
     5    5    6 2
     6    5    7 1
     7    5    8 1
     8    5   12 1
     9    7   32 1
    10    9   10 2
    11    9   11 1
    12    9   12 1
    13    9   13 1
    14   11   33 1
    15   13   14 1
    16   14   15 1
    17   14   34 1
    18   14   35 1
    19   15   16 1
    20   15   17 1
    21   15   36 1
    22   16   21 1
    23   17   18 1
    24   17   19 1
    25   17   37 1
    26   18   38 1
    27   19   20 1
    28   19   21 1
    29   19   39 1
    30   20   40 1
    31   21   22 1
    32   21   41 1
    33   22   23 ar
    34   22   31 ar
    35   23   24 ar
    36   23   42 1
    37   24   25 ar
    38   25   26 ar
    39   25   31 ar
    40   26   27 1
    41   26   28 ar
    42   27   43 1
    43   27   44 1
    44   28   29 ar
    45   29   30 ar
    46   29   45 1
    47   30   31 ar
@<TRIPOS>SUBSTRUCTURE
     1 ATP         1 GROUP 0 A     ****
@<TRIPOS>MOLECULE
[[[5-(6-aminopurin-9-yl)-3,4-dihydroxy-tetrahydrofuran-2-yl]methoxy-hydroxy-phosphoryl]oxy-hydroxy-phosphoryl] phosphate
   45    47     1     0     0
SMALL
USER_CHARGES

@<TRIPOS>ATOM
      1 PG         -1.2771    8.5044    3.9441 P.3       1 ATP         1.3364
      2 O1G        -2.7336    8.9331    4.0890 O.co2     1 ATP        -0.8759
      3 O2G        -0.3693    9.5613    3.3240 O.co2     1 ATP        -0.8759
      4 O3G        -0.6968    7.8301    5.1829 O.co2     1 ATP        -0.8759
      5 PB         -2.0939    5.8763    2.8323 P.3       1 ATP         1.7980
      6 O1B        -1.7155    4.9596    3.9579 O.2       1 ATP        -0.9123
      7 O2B        -3.6537    6.2983    2.7888 O.3       1 ATP        -0.7754
      8 O3B        -1.3212    7.2971    2.8233 O.3       1 ATP        -0.6996
      9 PA         -0.4418    4.8275    0.6351 P.3       1 ATP         1.7855
     10 O1A         0.6003    5.9036    0.5363 O.2       1 ATP        -0.8495
     11 O2A        -0.9460    4.2535   -0.7909 O.3       1 ATP        -0.8288
     12 O3A        -1.8126    5.2991    1.3501 O.3       1 ATP        -0.8018
     13 O5'         0.0170    3.5129    1.4592 O.3       1 ATP        -0.5853
     14 C5'        -0.8811    2.4285    1.6206 C.3       1 ATP         0.1809
     15 C4'        -0.1994    1.3333    2.4288 C.3       1 ATP         0.1309
     16 O4'        -1.1285    0.2356    2.5840 O.3       1 ATP        -0.4224
     17 C3'         1.0324    0.7610    1.7344 C.3       1 ATP         0.0947
     18 O3'         1.9175    0.2377    2.7247 O.3       1 ATP        -0.5906
     19 C2'         0.4468   -0.3802    0.9263 C.3       1 ATP         0.0556
     20 O2'         1.3993   -1.3703    0.5961 O.3       1 ATP        -0.5838
     21 C1'        -0.6159   -0.9100    1.8769 C.3       1 ATP         0.4381
     22 N9         -1.7127   -1.6108    1.2130 N.pl3     1 ATP        -0.6883
     23 C8         -1.7712   -2.9546    0.9544 C.ar      1 ATP         0.5620
     24 N7         -2.8883   -3.2948    0.3462 N.2       1 ATP        -0.5584
     25 C5         -3.5834   -2.1202    0.2043 C.ar      1 ATP        -0.2164
     26 C6         -4.8225   -1.8251   -0.3554 C.ar      1 ATP         0.7376
     27 N6         -5.6154   -2.8394   -0.9189 N.pl3     1 ATP        -0.9514
     28 N1         -5.2589   -0.5425   -0.3507 N.ar      1 ATP        -0.8054
     29 C2         -4.4510    0.3913    0.2069 C.ar      1 ATP         0.6649
     30 N3         -3.2368    0.2296    0.7767 N.ar      1 ATP        -0.7136
     31 C4         -2.8684   -1.0596    0.7376 C.ar      1 ATP         0.5805
     32 HOB2       -4.0383    6.7735    3.5559 H         1 ATP         0.4367
     33 HOA2       -0.2927    3.8378   -1.3929 H         1 ATP         0.4916
     34 H5'1       -1.7776    2.7841    2.1389 H         1 ATP         0.0552
     35 H5'2       -1.1659    2.0533    0.6322 H         1 ATP         0.0552
     36 H4'         0.0402    1.7079    3.4342 H         1 ATP         0.1061
     37 H3'         1.5907    1.4859    1.1353 H         1 ATP         0.0937
     38 HO3'        2.6839   -0.1150    2.2479 H         1 ATP         0.4070
     39 H2'        -0.0017    0.0018    0.0005 H         1 ATP         0.0758
     40 HO2'        2.0953   -0.9375    0.0709 H         1 ATP         0.4080
     41 H1'        -0.1998   -1.6319    2.6178 H         1 ATP         0.1071
     42 H8         -0.9745   -3.6312    1.2318 H         1 ATP         0.1022
     43 HN61       -5.2619   -3.7766   -0.9586 H         1 ATP         0.4336
     44 HN62       -6.4834   -2.5990   -1.3590 H         1 ATP         0.4336
     45 H2         -4.8317    1.4071    0.1930 H         1 ATP         0.0401
@<TRIPOS>BOND
     1    1    2 2
     2    1    3 1
     3    1    4 1
     4    1    8 1
     5    5    6 2
     6    5    7 1
     7    5    8 1
     8    5   12 1
     9    7   32 1
    10    9   10 2
    11    9   11 1
    12    9   12 1
    13    9   13 1
    14   11   33 1
    15   13   14 1
    16   14   15 1
    17   14   34 1
    18   14   35 1
    19   15   16 1
    20   15   17 1
    21   15   36 1
    22   16   21 1
    23   17   18 1
    24   17   19 1
    25   17   37 1
    26   18   38 1
    27   19   20 1
    28   19   21 1
    29   19   39 1
    30   20   40 1
    31   21   22 1
    32   21   41 1
    33   22   23 ar
    34   22   31 ar
    35   23   24 ar
    36   23   42 1
    37   24   25 ar
    38   25   26 ar
    39   25   31 ar
    40   26   27 1
    41   26   28 ar
    42   27   43 1
    43   27   44 1
    44   28   29 ar
    45   29   30 ar
    46   29   45 1
    47   30   31 ar
@<TRIPOS>SUBSTRUCTURE
     1 ATP         1 GROUP 0 A     ****
@<TRIPOS>MOLECULE
[[[5-(6-aminopurin-9-yl)-3,4-dihydroxy-tetrahydrofuran-2-yl]methoxy-hydroxy-phosphoryl]oxy-hydroxy-phosphoryl] phosphate
   45    47     1     0     0
SMALL
USER_CHARGES

@<TRIPOS>ATOM
      1 PG         -4.7244    6.5195   -1.3557 P.3       1 ATP         1.3364
      2 O1G        -5.9357    6.4770   -0.4299 O.co2     1 ATP        -0.8759
      3 O2G        -4.8039    5.5613   -2.5395 O.co2     1 ATP        -0.8759
      4 O3G        -4.2640    7.9271   -1.7200 O.co2     1 ATP        -0.8759
      5 PB         -2.8703    6.4564    0.9613 P.3       1 ATP         1.7980
      6 O1B        -2.3087    7.8468    0.9161 O.2       1 ATP        -0.9123
      7 O2B        -4.0779    6.2403    2.0139 O.3       1 ATP        -0.7754
      8 O3B        -3.4919    5.9283   -0.4353 O.3       1 ATP        -0.6996
      9 PA         -0.4418    4.8275    0.6351 P.3       1 ATP         1.7855
     10 O1A         0.6003    5.9036    0.5363 O.2       1 ATP        -0.8495
     11 O2A        -0.9460    4.2535   -0.7909 O.3       1 ATP        -0.8288
     12 O3A        -1.8126    5.2991    1.3501 O.3       1 ATP        -0.8018
     13 O5'         0.0170    3.5129    1.4592 O.3       1 ATP        -0.5853
     14 C5'        -0.8811    2.4285    1.6206 C.3       1 ATP         0.1809
     15 C4'        -0.1994    1.3333    2.4288 C.3       1 ATP         0.1309
     16 O4'        -1.1285    0.2356    2.5840 O.3       1 ATP        -0.4224
     17 C3'         1.0324    0.7610    1.7344 C.3       1 ATP         0.0947
     18 O3'         1.9175    0.2377    2.7247 O.3       1 ATP        -0.5906
     19 C2'         0.4468   -0.3802    0.9263 C.3       1 ATP         0.0556
     20 O2'         1.3993   -1.3703    0.5961 O.3       1 ATP        -0.5838
     21 C1'        -0.6159   -0.9100    1.8769 C.3       1 ATP         0.4381
     22 N9         -1.7127   -1.6108    1.2130 N.pl3     1 ATP        -0.6883
     23 C8         -2.8641   -1.0399    0.7392 C.ar      1 ATP         0.5620
     24 N7         -3.6659   -1.9257    0.1858 N.2       1 ATP        -0.5584
     25 C5         -3.0053   -3.1223    0.3069 C.ar      1 ATP        -0.2164
     26 C6         -3.3321   -4.4178   -0.0813 C.ar      1 ATP         0.7376
     27 N6         -4.5476   -4.6866   -0.7335 N.pl3     1 ATP        -0.9514
     28 N1         -2.4608   -5.4225    0.1773 N.ar      1 ATP        -0.8054
     29 C2         -1.3053   -5.1020    0.8081 C.ar      1 ATP         0.6649
     30 N3         -0.8788   -3.8921    1.2315 N.ar      1 ATP        -0.7136
     31 C4         -1.7870   -2.9477    0.9438 C.ar      1 ATP         0.5805
     32 HOB2       -4.8967    6.7707    1.9121 H         1 ATP         0.4367
     33 HOA2       -0.2927    3.8378   -1.3929 H         1 ATP         0.4916
     34 H5'1       -1.7776    2.7841    2.1389 H         1 ATP         0.0552
     35 H5'2       -1.1659    2.0533    0.6322 H         1 ATP         0.0552
     36 H4'         0.0402    1.7079    3.4342 H         1 ATP         0.1061
     37 H3'         1.5907    1.4859    1.1353 H         1 ATP         0.0937
     38 HO3'        2.6839   -0.1150    2.2479 H         1 ATP         0.4070
     39 H2'        -0.0017    0.0018    0.0005 H         1 ATP         0.0758
     40 HO2'        2.0953   -0.9375    0.0709 H         1 ATP         0.4080
     41 H1'        -0.1998   -1.6319    2.6178 H         1 ATP         0.1071
     42 H8         -3.0609    0.0200    0.8250 H         1 ATP         0.1022
     43 HN61       -5.2046   -3.9433   -0.8775 H         1 ATP         0.4336
     44 HN62       -4.7849   -5.6332   -0.9625 H         1 ATP         0.4336
     45 H2         -0.6318   -5.9307    0.9993 H         1 ATP         0.0401
@<TRIPOS>BOND
     1    1    2 2
     2    1    3 1
     3    1    4 1
     4    1    8 1
     5    5    6 2
     6    5    7 1
     7    5    8 1
     8    5   12 1
     9    7   32 1
    10    9   10 2
    11    9   11 1
    12    9   12 1
    13    9   13 1
    14   11   33 1
    15   13   14 1
    16   14   15 1
    17   14   34 1
    18   14   35 1
    19   15   16 1
    20   15   17 1
    21   15   36 1
    22   16   21 1
    23   17   18 1
    24   17   19 1
    25   17   37 1
    26   18   38 1
    27   19   20 1
    28   19   21 1
    29   19   39 1
    30   20   40 1
    31   21   22 1
    32   21   41 1
    33   22   23 ar
    34   22   31 ar
    35   23   24 ar
    36   23   42 1
    37   24   25 ar
    38   25   26 ar
    39   25   31 ar
    40   26   27 1
    41   26   28 ar
    42   27   43 1
    43   27   44 1
    44   28   29 ar
    45   29   30 ar
    46   29   45 1
    47   30   31 ar
@<TRIPOS>SUBSTRUCTURE
     1 ATP         1 GROUP 0 A     ****
@<TRIPOS>MOLECULE
[[[5-(6-aminopurin-9-yl)-3,4-dihydroxy-tetrahydrofuran-2-yl]methoxy-hydroxy-phosphoryl]oxy-hydroxy-phosphoryl] phosphate
   45    47     1     0     0
SMALL
USER_CHARGES

@<TRIPOS>ATOM
      1 PG         -1.1897    5.1190   -2.4803 P.3       1 ATP         1.3364
      2 O1G        -0.3630    6.3869   -2.2928 O.co2     1 ATP        -0.8759
      3 O2G        -1.5128    4.7883   -3.9336 O.co2     1 ATP        -0.8759
      4 O3G        -0.7040    3.9280   -1.6607 O.co2     1 ATP        -0.8759
      5 PB         -3.0410    5.9271   -0.3056 P.3       1 ATP         1.7980
      6 O1B        -2.3870    7.1898    0.1723 O.2       1 ATP        -0.9123
      7 O2B        -4.6569    5.9618   -0.3329 O.3       1 ATP        -0.7754
      8 O3B        -2.6504    5.4869   -1.8120 O.3       1 ATP        -0.6996
      9 PA         -2.5519    4.3888    2.1545 P.3       1 ATP         1.7855
     10 O1A        -3.7885    4.7215    2.9377 O.2       1 ATP        -0.8495
     11 O2A        -1.2608    5.2879    2.5314 O.3       1 ATP        -0.8288
     12 O3A        -2.7016    4.6060    0.5597 O.3       1 ATP        -0.8018
     13 O5'        -2.0396    2.8622    2.3120 O.3       1 ATP        -0.5853
     14 C5'        -0.8811    2.4285    1.6206 C.3       1 ATP         0.1809
     15 C4'        -0.1994    1.3333    2.4288 C.3       1 ATP         0.1309
     16 O4'        -1.1285    0.2356    2.5840 O.3       1 ATP        -0.4224
     17 C3'         1.0324    0.7610    1.7344 C.3       1 ATP         0.0947
     18 O3'         1.9175    0.2377    2.7247 O.3       1 ATP        -0.5906
     19 C2'         0.4468   -0.3802    0.9263 C.3       1 ATP         0.0556
     20 O2'         1.3993   -1.3703    0.5961 O.3       1 ATP        -0.5838
     21 C1'        -0.6159   -0.9100    1.8769 C.3       1 ATP         0.4381
     22 N9         -1.7127   -1.6108    1.2130 N.pl3     1 ATP        -0.6883
     23 C8         -2.8641   -1.0399    0.7392 C.ar      1 ATP         0.5620
     24 N7         -3.6659   -1.9257    0.1858 N.2       1 ATP        -0.5584
     25 C5         -3.0053   -3.1223    0.3069 C.ar      1 ATP        -0.2164
     26 C6         -3.3321   -4.4178   -0.0813 C.ar      1 ATP         0.7376
     27 N6         -4.5476   -4.6866   -0.7335 N.pl3     1 ATP        -0.9514
     28 N1         -2.4608   -5.4225    0.1773 N.ar      1 ATP        -0.8054
     29 C2         -1.3053   -5.1020    0.8081 C.ar      1 ATP         0.6649
     30 N3         -0.8788   -3.8921    1.2315 N.ar      1 ATP        -0.7136
     31 C4         -1.7870   -2.9477    0.9438 C.ar      1 ATP         0.5805
     32 HOB2       -5.1423    6.1198    0.5047 H         1 ATP         0.4367
     33 HOA2       -0.9207    5.2677    3.4511 H         1 ATP         0.4916
     34 H5'1       -1.1760    2.0498    0.6365 H         1 ATP         0.0552
     35 H5'2       -0.2072    3.2811    1.4873 H         1 ATP         0.0552
     36 H4'         0.0402    1.7079    3.4342 H         1 ATP         0.1061
     37 H3'         1.5907    1.4859    1.1353 H         1 ATP         0.0937
     38 HO3'        2.6839   -0.1150    2.2479 H         1 ATP         0.4070
     39 H2'        -0.0017    0.0018    0.0005 H         1 ATP         0.0758
     40 HO2'        2.0953   -0.9375    0.0709 H         1 ATP         0.4080
     41 H1'        -0.1998   -1.6319    2.6178 H         1 ATP         0.1071
     42 H8         -3.0609    0.0200    0.8250 H         1 ATP         0.1022
     43 HN61       -5.2046   -3.9433   -0.8775 H         1 ATP         0.4336
     44 HN62       -4.7849   -5.6332   -0.9625 H         1 ATP         0.4336
     45 H2         -0.6318   -5.9307    0.9993 H         1 ATP         0.0401
@<TRIPOS>BOND
     1    1    2 2
     2    1    3 1
     3    1    4 1
     4    1    8 1
     5    5    6 2
     6    5    7 1
     7    5    8 1
     8    5   12 1
     9    7   32 1
    10    9   10 2
    11    9   11 1
    12    9   12 1
    13    9   13 1
    14   11   33 1
    15   13   14 1
    16   14   15 1
    17   14   34 1
    18   14   35 1
    19   15   16 1
    20   15   17 1
    21   15   36 1
    22   16   21 1
    23   17   18 1
    24   17   19 1
    25   17   37 1
    26   18   38 1
    27   19   20 1
    28   19   21 1
    29   19   39 1
    30   20   40 1
    31   21   22 1
    32   21   41 1
    33   22   23 ar
    34   22   31 ar
    35   23   24 ar
    36   23   42 1
    37   24   25 ar
    38   25   26 ar
    39   25   31 ar
    40   26   27 1
    41   26   28 ar
    42   27   43 1
    43   27   44 1
    44   28   29 ar
    45   29   30 ar
    46   29   45 1
    47   30   31 ar
@<TRIPOS>SUBSTRUCTURE
     1 ATP         1 GROUP 0 A     ****
@<TRIPOS>MOLECULE
[[[5-(6-aminopurin-9-yl)-3,4-dihydroxy-tetrahydrofuran-2-yl]methoxy-hydroxy-phosphoryl]oxy-hydroxy-phosphoryl] phosphate
   45    47     1     0     0
SMALL
USER_CHARGES

@<TRIPOS>ATOM
      1 PG         -5.1524    7.4503    2.5781 P.3       1 ATP         1.3364
      2 O1G        -4.5113    8.8292    2.6960 O.co2     1 ATP        -0.8759
      3 O2G        -5.7037    6.8992    3.8889 O.co2     1 ATP        -0.8759
      4 O3G        -6.0956    7.2980    1.3894 O.co2     1 ATP        -0.8759
      5 PB         -2.8703    6.4564    0.9613 P.3       1 ATP         1.7980
      6 O1B        -3.5171    6.3056   -0.3839 O.2       1 ATP        -0.9123
      7 O2B        -2.0341    7.8242    1.1686 O.3       1 ATP        -0.7754
      8 O3B        -3.8945    6.4502    2.2129 O.3       1 ATP        -0.6996
      9 PA         -0.4418    4.8275    0.6351 P.3       1 ATP         1.7855
     10 O1A         0.6003    5.9036    0.5363 O.2       1 ATP        -0.8495
     11 O2A        -0.9460    4.2535   -0.7909 O.3       1 ATP        -0.8288
     12 O3A        -1.8126    5.2991    1.3501 O.3       1 ATP        -0.8018
     13 O5'         0.0170    3.5129    1.4592 O.3       1 ATP        -0.5853
     14 C5'        -0.8811    2.4285    1.6206 C.3       1 ATP         0.1809
     15 C4'        -0.1994    1.3333    2.4288 C.3       1 ATP         0.1309
     16 O4'        -1.1285    0.2356    2.5840 O.3       1 ATP        -0.4224
     17 C3'         1.0324    0.7610    1.7344 C.3       1 ATP         0.0947
     18 O3'         1.9175    0.2377    2.7247 O.3       1 ATP        -0.5906
     19 C2'         0.4468   -0.3802    0.9263 C.3       1 ATP         0.0556
     20 O2'         1.3993   -1.3703    0.5961 O.3       1 ATP        -0.5838
     21 C1'        -0.6159   -0.9100    1.8769 C.3       1 ATP         0.4381
     22 N9         -1.7127   -1.6108    1.2130 N.pl3     1 ATP        -0.6883
     23 C8         -2.8641   -1.0399    0.7392 C.ar      1 ATP         0.5620
     24 N7         -3.6659   -1.9257    0.1858 N.2       1 ATP        -0.5584
     25 C5         -3.0053   -3.1223    0.3069 C.ar      1 ATP        -0.2164
     26 C6         -3.3321   -4.4178   -0.0813 C.ar      1 ATP         0.7376
     27 N6         -4.5476   -4.6866   -0.7335 N.pl3     1 ATP        -0.9514
     28 N1         -2.4608   -5.4225    0.1773 N.ar      1 ATP        -0.8054
     29 C2         -1.3053   -5.1020    0.8081 C.ar      1 ATP         0.6649
     30 N3         -0.8788   -3.8921    1.2315 N.ar      1 ATP        -0.7136
     31 C4         -1.7870   -2.9477    0.9438 C.ar      1 ATP         0.5805
     32 HOB2       -1.2773    8.0124    0.5737 H         1 ATP         0.4367
     33 HOA2       -0.2927    3.8378   -1.3929 H         1 ATP         0.4916
     34 H5'1       -1.7776    2.7841    2.1389 H         1 ATP         0.0552
     35 H5'2       -1.1659    2.0533    0.6322 H         1 ATP         0.0552
     36 H4'         0.0402    1.7079    3.4342 H         1 ATP         0.1061
     37 H3'         1.5907    1.4859    1.1353 H         1 ATP         0.0937
     38 HO3'        2.6839   -0.1150    2.2479 H         1 ATP         0.4070
     39 H2'        -0.0017    0.0018    0.0005 H         1 ATP         0.0758
     40 HO2'        2.0953   -0.9375    0.0709 H         1 ATP         0.4080
     41 H1'        -0.1998   -1.6319    2.6178 H         1 ATP         0.1071
     42 H8         -3.0609    0.0200    0.8250 H         1 ATP         0.1022
     43 HN61       -5.2046   -3.9433   -0.8775 H         1 ATP         0.4336
     44 HN62       -4.7849   -5.6332   -0.9625 H         1 ATP         0.4336
     45 H2         -0.6318   -5.9307    0.9993 H         1 ATP         0.0401
@<TRIPOS>BOND
     1    1    2 2
     2    1    3 1
     3    1    4 1
     4    1    8 1
     5    5    6 2
     6    5    7 1
     7    5    8 1
     8    5   12 1
     9    7   32 1
    10    9   10 2
    11    9   11 1
    12    9   12 1
    13    9   13 1
    14   11   33 1
    15   13   14 1
    16   14   15 1
    17   14   34 1
    18   14   35 1
    19   15   16 1
    20   15   17 1
    21   15   36 1
    22   16   21 1
    23   17   18 1
    24   17   19 1
    25   17   37 1
    26   18   38 1
    27   19   20 1
    28   19   21 1
    29   19   39 1
    30   20   40 1
    31   21   22 1
    32   21   41 1
    33   22   23 ar
    34   22   31 ar
    35   23   24 ar
    36   23   42 1
    37   24   25 ar
    38   25   26 ar
    39   25   31 ar
    40   26   27 1
    41   26   28 ar
    42   27   43 1
    43   27   44 1
    44   28   29 ar
    45   29   30 ar
    46   29   45 1
    47   30   31 ar
@<TRIPOS>SUBSTRUCTURE
     1 ATP         1 GROUP 0 A     ****
@<TRIPOS>MOLECULE
[[[5-(6-aminopurin-9-yl)-3,4-dihydroxy-tetrahydrofuran-2-yl]methoxy-hydroxy-phosphoryl]oxy-hydroxy-phosphoryl] phosphate
   45    47     1     0     0
SMALL
USER_CHARGES

@<TRIPOS>ATOM
      1 PG         -3.8694    4.7459    5.0560 P.3       1 ATP         1.3364
      2 O1G        -5.2003    4.9449    4.3382 O.co2     1 ATP        -0.8759
      3 O2G        -3.9393    4.9194    6.5695 O.co2     1 ATP        -0.8759
      4 O3G        -3.0914    3.5150    4.6025 O.co2     1 ATP        -0.8759
      5 PB         -2.4657    6.4333    3.0579 P.3       1 ATP         1.7980
      6 O1B        -3.5807    6.7276    2.0983 O.2       1 ATP        -0.9123
      7 O2B        -1.4525    7.6638    3.3272 O.3       1 ATP        -0.7754
      8 O3B        -2.9418    6.0081    4.5439 O.3       1 ATP        -0.6996
      9 PA         -0.5521    5.0215    1.3252 P.3       1 ATP         1.7855
     10 O1A         0.5008    6.0787    1.1591 O.2       1 ATP        -0.8495
     11 O2A        -1.6176    4.9438    0.1104 O.3       1 ATP        -0.8288
     12 O3A        -1.4889    5.2211    2.6273 O.3       1 ATP        -0.8018
     13 O5'         0.0170    3.5129    1.4592 O.3       1 ATP        -0.5853
     14 C5'        -0.8811    2.4285    1.6206 C.3       1 ATP         0.1809
     15 C4'        -0.1994    1.3333    2.4288 C.3       1 ATP         0.1309
     16 O4'        -1.1285    0.2356    2.5840 O.3       1 ATP        -0.4224
     17 C3'         1.0324    0.7610    1.7344 C.3       1 ATP         0.0947
     18 O3'         1.9175    0.2377    2.7247 O.3       1 ATP        -0.5906
     19 C2'         0.4468   -0.3802    0.9263 C.3       1 ATP         0.0556
     20 O2'         1.3993   -1.3703    0.5961 O.3       1 ATP        -0.5838
     21 C1'        -0.6159   -0.9100    1.8769 C.3       1 ATP         0.4381
     22 N9         -1.7127   -1.6108    1.2130 N.pl3     1 ATP        -0.6883
     23 C8         -2.8641   -1.0399    0.7392 C.ar      1 ATP         0.5620
     24 N7         -3.6659   -1.9257    0.1858 N.2       1 ATP        -0.5584
     25 C5         -3.0053   -3.1223    0.3069 C.ar      1 ATP        -0.2164
     26 C6         -3.3321   -4.4178   -0.0813 C.ar      1 ATP         0.7376
     27 N6         -4.5476   -4.6866   -0.7335 N.pl3     1 ATP        -0.9514
     28 N1         -2.4608   -5.4225    0.1773 N.ar      1 ATP        -0.8054
     29 C2         -1.3053   -5.1020    0.8081 C.ar      1 ATP         0.6649
     30 N3         -0.8788   -3.8921    1.2315 N.ar      1 ATP        -0.7136
     31 C4         -1.7870   -2.9477    0.9438 C.ar      1 ATP         0.5805
     32 HOB2       -0.9553    8.0431    2.5716 H         1 ATP         0.4367
     33 HOA2       -2.1636    5.7327   -0.0931 H         1 ATP         0.4916
     34 H5'1       -1.7776    2.7841    2.1389 H         1 ATP         0.0552
     35 H5'2       -1.1659    2.0533    0.6322 H         1 ATP         0.0552
     36 H4'         0.0402    1.7079    3.4342 H         1 ATP         0.1061
     37 H3'         1.5907    1.4859    1.1353 H         1 ATP         0.0937
     38 HO3'        2.6839   -0.1150    2.2479 H         1 ATP         0.4070
     39 H2'        -0.0017    0.0018    0.0005 H         1 ATP         0.0758
     40 HO2'        2.0953   -0.9375    0.0709 H         1 ATP         0.4080
     41 H1'        -0.1998   -1.6319    2.6178 H         1 ATP         0.1071
     42 H8         -3.0609    0.0200    0.8250 H         1 ATP         0.1022
     43 HN61       -5.2046   -3.9433   -0.8775 H         1 ATP         0.4336
     44 HN62       -4.7849   -5.6332   -0.9625 H         1 ATP         0.4336
     45 H2         -0.6318   -5.9307    0.9993 H         1 ATP         0.0401
@<TRIPOS>BOND
     1    1    2 2
     2    1    3 1
     3    1    4 1
     4    1    8 1
     5    5    6 2
     6    5    7 1
     7    5    8 1
     8    5   12 1
     9    7   32 1
    10    9   10 2
    11    9   11 1
    12    9   12 1
    13    9   13 1
    14   11   33 1
    15   13   14 1
    16   14   15 1
    17   14   34 1
    18   14   35 1
    19   15   16 1
    20   15   17 1
    21   15   36 1
    22   16   21 1
    23   17   18 1
    24   17   19 1
    25   17   37 1
    26   18   38 1
    27   19   20 1
    28   19   21 1
    29   19   39 1
    30   20   40 1
    31   21   22 1
    32   21   41 1
    33   22   23 ar
    34   22   31 ar
    35   23   24 ar
    36   23   42 1
    37   24   25 ar
    38   25   26 ar
    39   25   31 ar
    40   26   27 1
    41   26   28 ar
    42   27   43 1
    43   27   44 1
    44   28   29 ar
    45   29   30 ar
    46   29   45 1
    47   30   31 ar
@<TRIPOS>SUBSTRUCTURE
     1 ATP         1 GROUP 0 A     ****
@<TRIPOS>MOLECULE
[[[5-(6-aminopurin-9-yl)-3,4-dihydroxy-tetrahydrofuran-2-yl]methoxy-hydroxy-phosphoryl]oxy-hydroxy-phosphoryl] phosphate
   45    47     1     0     0
SMALL
USER_CHARGES

@<TRIPOS>ATOM
      1 PG         -4.9227    6.6425    1.9105 P.3       1 ATP         1.3364
      2 O1G        -4.7197    8.1498    1.7973 O.co2     1 ATP        -0.8759
      3 O2G        -6.1685    6.2325    2.6887 O.co2     1 ATP        -0.8759
      4 O3G        -4.7245    5.8841    0.6022 O.co2     1 ATP        -0.8759
      5 PB         -2.0707    6.2476    2.6319 P.3       1 ATP         1.7980
      6 O1B        -1.5475    7.6480    2.5067 O.2       1 ATP        -0.9123
      7 O2B        -1.4624    5.3979    3.8652 O.3       1 ATP        -0.7754
      8 O3B        -3.6690    6.1360    2.8525 O.3       1 ATP        -0.6996
      9 PA         -0.4418    4.8275    0.6351 P.3       1 ATP         1.7855
     10 O1A         0.6003    5.9036    0.5363 O.2       1 ATP        -0.8495
     11 O2A        -0.9460    4.2535   -0.7909 O.3       1 ATP        -0.8288
     12 O3A        -1.8126    5.2991    1.3501 O.3       1 ATP        -0.8018
     13 O5'         0.0170    3.5129    1.4592 O.3       1 ATP        -0.5853
     14 C5'        -0.8811    2.4285    1.6206 C.3       1 ATP         0.1809
     15 C4'        -0.1994    1.3333    2.4288 C.3       1 ATP         0.1309
     16 O4'        -1.1285    0.2356    2.5840 O.3       1 ATP        -0.4224
     17 C3'         1.0324    0.7610    1.7344 C.3       1 ATP         0.0947
     18 O3'         1.9175    0.2377    2.7247 O.3       1 ATP        -0.5906
     19 C2'         0.4468   -0.3802    0.9263 C.3       1 ATP         0.0556
     20 O2'         1.3993   -1.3703    0.5961 O.3       1 ATP        -0.5838
     21 C1'        -0.6159   -0.9100    1.8769 C.3       1 ATP         0.4381
     22 N9         -1.7127   -1.6108    1.2130 N.pl3     1 ATP        -0.6883
     23 C8         -2.8641   -1.0399    0.7392 C.ar      1 ATP         0.5620
     24 N7         -3.6659   -1.9257    0.1858 N.2       1 ATP        -0.5584
     25 C5         -3.0053   -3.1223    0.3069 C.ar      1 ATP        -0.2164
     26 C6         -3.3321   -4.4178   -0.0813 C.ar      1 ATP         0.7376
     27 N6         -4.5476   -4.6866   -0.7335 N.pl3     1 ATP        -0.9514
     28 N1         -2.4608   -5.4225    0.1773 N.ar      1 ATP        -0.8054
     29 C2         -1.3053   -5.1020    0.8081 C.ar      1 ATP         0.6649
     30 N3         -0.8788   -3.8921    1.2315 N.ar      1 ATP        -0.7136
     31 C4         -1.7870   -2.9477    0.9438 C.ar      1 ATP         0.5805
     32 HOB2       -0.4947    5.2412    3.9019 H         1 ATP         0.4367
     33 HOA2       -1.3621    4.8699   -1.4303 H         1 ATP         0.4916
     34 H5'1       -1.7776    2.7841    2.1389 H         1 ATP         0.0552
     35 H5'2       -1.1659    2.0533    0.6322 H         1 ATP         0.0552
     36 H4'         0.0402    1.7079    3.4342 H         1 ATP         0.1061
     37 H3'         1.5907    1.4859    1.1353 H         1 ATP         0.0937
     38 HO3'        2.6839   -0.1150    2.2479 H         1 ATP         0.4070
     39 H2'        -0.0017    0.0018    0.0005 H         1 ATP         0.0758
     40 HO2'        2.0953   -0.9375    0.0709 H         1 ATP         0.4080
     41 H1'        -0.1998   -1.6319    2.6178 H         1 ATP         0.1071
     42 H8         -3.0609    0.0200    0.8250 H         1 ATP         0.1022
     43 HN61       -5.2046   -3.9433   -0.8775 H         1 ATP         0.4336
     44 HN62       -4.7849   -5.6332   -0.9625 H         1 ATP         0.4336
     45 H2         -0.6318   -5.9307    0.9993 H         1 ATP         0.0401
@<TRIPOS>BOND
     1    1    2 2
     2    1    3 1
     3    1    4 1
     4    1    8 1
     5    5    6 2
     6    5    7 1
     7    5    8 1
     8    5   12 1
     9    7   32 1
    10    9   10 2
    11    9   11 1
    12    9   12 1
    13    9   13 1
    14   11   33 1
    15   13   14 1
    16   14   15 1
    17   14   34 1
    18   14   35 1
    19   15   16 1
    20   15   17 1
    21   15   36 1
    22   16   21 1
    23   17   18 1
    24   17   19 1
    25   17   37 1
    26   18   38 1
    27   19   20 1
    28   19   21 1
    29   19   39 1
    30   20   40 1
    31   21   22 1
    32   21   41 1
    33   22   23 ar
    34   22   31 ar
    35   23   24 ar
    36   23   42 1
    37   24   25 ar
    38   25   26 ar
    39   25   31 ar
    40   26   27 1
    41   26   28 ar
    42   27   43 1
    43   27   44 1
    44   28   29 ar
    45   29   30 ar
    46   29   45 1
    47   30   31 ar
@<TRIPOS>SUBSTRUCTURE
     1 ATP         1 GROUP 0 A     ****
@<TRIPOS>MOLECULE
[[[5-(6-aminopurin-9-yl)-3,4-dihydroxy-tetrahydrofuran-2-yl]methoxy-hydroxy-phosphoryl]oxy-hydroxy-phosphoryl] phosphate
   45    47     1     0     0
SMALL
USER_CHARGES

@<TRIPOS>ATOM
      1 PG         -4.7244    6.5195   -1.3557 P.3       1 ATP         1.3364
      2 O1G        -5.9357    6.4770   -0.4299 O.co2     1 ATP        -0.8759
      3 O2G        -4.8039    5.5613   -2.5395 O.co2     1 ATP        -0.8759
      4 O3G        -4.2640    7.9271   -1.7200 O.co2     1 ATP        -0.8759
      5 PB         -2.8703    6.4564    0.9613 P.3       1 ATP         1.7980
      6 O1B        -2.3087    7.8468    0.9161 O.2       1 ATP        -0.9123
      7 O2B        -4.0779    6.2403    2.0139 O.3       1 ATP        -0.7754
      8 O3B        -3.4919    5.9283   -0.4353 O.3       1 ATP        -0.6996
      9 PA         -0.4418    4.8275    0.6351 P.3       1 ATP         1.7855
     10 O1A         0.6003    5.9036    0.5363 O.2       1 ATP        -0.8495
     11 O2A        -0.9460    4.2535   -0.7909 O.3       1 ATP        -0.8288
     12 O3A        -1.8126    5.2991    1.3501 O.3       1 ATP        -0.8018
     13 O5'         0.0170    3.5129    1.4592 O.3       1 ATP        -0.5853
     14 C5'        -0.8811    2.4285    1.6206 C.3       1 ATP         0.1809
     15 C4'        -0.1994    1.3333    2.4288 C.3       1 ATP         0.1309
     16 O4'        -1.1285    0.2356    2.5840 O.3       1 ATP        -0.4224
     17 C3'         1.0324    0.7610    1.7344 C.3       1 ATP         0.0947
     18 O3'         1.9175    0.2377    2.7247 O.3       1 ATP        -0.5906
     19 C2'         0.4468   -0.3802    0.9263 C.3       1 ATP         0.0556
     20 O2'         1.3993   -1.3703    0.5961 O.3       1 ATP        -0.5838
     21 C1'        -0.6159   -0.9100    1.8769 C.3       1 ATP         0.4381
     22 N9         -1.7127   -1.6108    1.2130 N.pl3     1 ATP        -0.6883
     23 C8         -1.7712   -2.9546    0.9544 C.ar      1 ATP         0.5620
     24 N7         -2.8883   -3.2948    0.3462 N.2       1 ATP        -0.5584
     25 C5         -3.5834   -2.1202    0.2043 C.ar      1 ATP        -0.2164
     26 C6         -4.8225   -1.8251   -0.3554 C.ar      1 ATP         0.7376
     27 N6         -5.6154   -2.8394   -0.9189 N.pl3     1 ATP        -0.9514
     28 N1         -5.2589   -0.5425   -0.3507 N.ar      1 ATP        -0.8054
     29 C2         -4.4510    0.3913    0.2069 C.ar      1 ATP         0.6649
     30 N3         -3.2368    0.2296    0.7767 N.ar      1 ATP        -0.7136
     31 C4         -2.8684   -1.0596    0.7376 C.ar      1 ATP         0.5805
     32 HOB2       -4.8967    6.7707    1.9121 H         1 ATP         0.4367
     33 HOA2       -0.2927    3.8378   -1.3929 H         1 ATP         0.4916
     34 H5'1       -1.7776    2.7841    2.1389 H         1 ATP         0.0552
     35 H5'2       -1.1659    2.0533    0.6322 H         1 ATP         0.0552
     36 H4'         0.0402    1.7079    3.4342 H         1 ATP         0.1061
     37 H3'         1.5907    1.4859    1.1353 H         1 ATP         0.0937
     38 HO3'        2.6839   -0.1150    2.2479 H         1 ATP         0.4070
     39 H2'        -0.0017    0.0018    0.0005 H         1 ATP         0.0758
     40 HO2'        2.0953   -0.9375    0.0709 H         1 ATP         0.4080
     41 H1'        -0.1998   -1.6319    2.6178 H         1 ATP         0.1071
     42 H8         -0.9745   -3.6312    1.2318 H         1 ATP         0.1022
     43 HN61       -5.2619   -3.7766   -0.9586 H         1 ATP         0.4336
     44 HN62       -6.4834   -2.5990   -1.3590 H         1 ATP         0.4336
     45 H2         -4.8317    1.4071    0.1930 H         1 ATP         0.0401
@<TRIPOS>BOND
     1    1    2 2
     2    1    3 1
     3    1    4 1
     4    1    8 1
     5    5    6 2
     6    5    7 1
     7    5    8 1
     8    5   12 1
     9    7   32 1
    10    9   10 2
    11    9   11 1
    12    9   12 1
    13    9   13 1
    14   11   33 1
    15   13   14 1
    16   14   15 1
    17   14   34 1
    18   14   35 1
    19   15   16 1
    20   15   17 1
    21   15   36 1
    22   16   21 1
    23   17   18 1
    24   17   19 1
    25   17   37 1
    26   18   38 1
    27   19   20 1
    28   19   21 1
    29   19   39 1
    30   20   40 1
    31   21   22 1
    32   21   41 1
    33   22   23 ar
    34   22   31 ar
    35   23   24 ar
    36   23   42 1
    37   24   25 ar
    38   25   26 ar
    39   25   31 ar
    40   26   27 1
    41   26   28 ar
    42   27   43 1
    43   27   44 1
    44   28   29 ar
    45   29   30 ar
    46   29   45 1
    47   30   31 ar
@<TRIPOS>SUBSTRUCTURE
     1 ATP         1 GROUP 0 A     ****
@<TRIPOS>MOLECULE
[[[5-(6-aminopurin-9-yl)-3,4-dihydroxy-tetrahydrofuran-2-yl]methoxy-hydroxy-phosphoryl]oxy-hydroxy-phosphoryl] phosphate
   45    47     1     0     0
SMALL
USER_CHARGES

@<TRIPOS>ATOM
      1 PG         -1.3333    8.3202   -0.7137 P.3       1 ATP         1.3364
      2 O1G        -1.2256    8.0298   -2.2070 O.co2     1 ATP        -0.8759
      3 O2G        -0.0087    8.6716   -0.0444 O.co2     1 ATP        -0.8759
      4 O3G        -2.4885    9.2419   -0.3369 O.co2     1 ATP        -0.8759
      5 PB         -3.0410    5.9271   -0.3056 P.3       1 ATP         1.7980
      6 O1B        -4.3633    6.5676   -0.0024 O.2       1 ATP        -0.9123
      7 O2B        -2.8511    5.4414   -1.8356 O.3       1 ATP        -0.7754
      8 O3B        -1.7533    6.8715   -0.0499 O.3       1 ATP        -0.6996
      9 PA         -2.5519    4.3888    2.1545 P.3       1 ATP         1.7855
     10 O1A        -3.7885    4.7215    2.9377 O.2       1 ATP        -0.8495
     11 O2A        -1.2608    5.2879    2.5314 O.3       1 ATP        -0.8288
     12 O3A        -2.7016    4.6060    0.5597 O.3       1 ATP        -0.8018
     13 O5'        -2.0396    2.8622    2.3120 O.3       1 ATP        -0.5853
     14 C5'        -0.8811    2.4285    1.6206 C.3       1 ATP         0.1809
     15 C4'        -0.1994    1.3333    2.4288 C.3       1 ATP         0.1309
     16 O4'        -1.1285    0.2356    2.5840 O.3       1 ATP        -0.4224
     17 C3'         1.0324    0.7610    1.7344 C.3       1 ATP         0.0947
     18 O3'         1.9175    0.2377    2.7247 O.3       1 ATP        -0.5906
     19 C2'         0.4468   -0.3802    0.9263 C.3       1 ATP         0.0556
     20 O2'         1.3993   -1.3703    0.5961 O.3       1 ATP        -0.5838
     21 C1'        -0.6159   -0.9100    1.8769 C.3       1 ATP         0.4381
     22 N9         -1.7127   -1.6108    1.2130 N.pl3     1 ATP        -0.6883
     23 C8         -1.7712   -2.9546    0.9544 C.ar      1 ATP         0.5620
     24 N7         -2.8883   -3.2948    0.3462 N.2       1 ATP        -0.5584
     25 C5         -3.5834   -2.1202    0.2043 C.ar      1 ATP        -0.2164
     26 C6         -4.8225   -1.8251   -0.3554 C.ar      1 ATP         0.7376
     27 N6         -5.6154   -2.8394   -0.9189 N.pl3     1 ATP        -0.9514
     28 N1         -5.2589   -0.5425   -0.3507 N.ar      1 ATP        -0.8054
     29 C2         -4.4510    0.3913    0.2069 C.ar      1 ATP         0.6649
     30 N3         -3.2368    0.2296    0.7767 N.ar      1 ATP        -0.7136
     31 C4         -2.8684   -1.0596    0.7376 C.ar      1 ATP         0.5805
     32 HOB2       -2.9075    6.1060   -2.5549 H         1 ATP         0.4367
     33 HOA2       -1.3097    6.2606    2.4151 H         1 ATP         0.4916
     34 H5'1       -1.1760    2.0498    0.6365 H         1 ATP         0.0552
     35 H5'2       -0.2072    3.2811    1.4873 H         1 ATP         0.0552
     36 H4'         0.0402    1.7079    3.4342 H         1 ATP         0.1061
     37 H3'         1.5907    1.4859    1.1353 H         1 ATP         0.0937
     38 HO3'        2.6839   -0.1150    2.2479 H         1 ATP         0.4070
     39 H2'        -0.0017    0.0018    0.0005 H         1 ATP         0.0758
     40 HO2'        0.9369   -2.0558    0.0825 H         1 ATP         0.4080
     41 H1'        -0.1998   -1.6319    2.6178 H         1 ATP         0.1071
     42 H8         -0.9745   -3.6312    1.2318 H         1 ATP         0.1022
     43 HN61       -5.2619   -3.7766   -0.9586 H         1 ATP         0.4336
     44 HN62       -6.4834   -2.5990   -1.3590 H         1 ATP         0.4336
     45 H2         -4.8317    1.4071    0.1930 H         1 ATP         0.0401
@<TRIPOS>BOND
     1    1    2 2
     2    1    3 1
     3    1    4 1
     4    1    8 1
     5    5    6 2
     6    5    7 1
     7    5    8 1
     8    5   12 1
     9    7   32 1
    10    9   10 2
    11    9   11 1
    12    9   12 1
    13    9   13 1
    14   11   33 1
    15   13   14 1
    16   14   15 1
    17   14   34 1
    18   14   35 1
    19   15   16 1
    20   15   17 1
    21   15   36 1
    22   16   21 1
    23   17   18 1
    24   17   19 1
    25   17   37 1
    26   18   38 1
    27   19   20 1
    28   19   21 1
    29   19   39 1
    30   20   40 1
    31   21   22 1
    32   21   41 1
    33   22   23 ar
    34   22   31 ar
    35   23   24 ar
    36   23   42 1
    37   24   25 ar
    38   25   26 ar
    39   25   31 ar
    40   26   27 1
    41   26   28 ar
    42   27   43 1
    43   27   44 1
    44   28   29 ar
    45   29   30 ar
    46   29   45 1
    47   30   31 ar
@<TRIPOS>SUBSTRUCTURE
     1 ATP         1 GROUP 0 A     ****
@<TRIPOS>MOLECULE
[[[5-(6-aminopurin-9-yl)-3,4-dihydroxy-tetrahydrofuran-2-yl]methoxy-hydroxy-phosphoryl]oxy-hydroxy-phosphoryl] phosphate
   45    47     1     0     0
SMALL
USER_CHARGES

@<TRIPOS>ATOM
      1 PG         -3.6464    6.0933   -3.2066 P.3       1 ATP         1.3364
      2 O1G        -5.0628    6.5790   -2.9170 O.co2     1 ATP        -0.8759
      3 O2G        -3.5615    4.9962   -4.2626 O.co2     1 ATP        -0.8759
      4 O3G        -2.6247    7.2118   -3.3830 O.co2     1 ATP        -0.8759
      5 PB         -3.0410    5.9271   -0.3056 P.3       1 ATP         1.7980
      6 O1B        -2.0695    7.0597   -0.1509 O.2       1 ATP        -0.9123
      7 O2B        -4.5655    6.2727    0.1059 O.3       1 ATP        -0.7754
      8 O3B        -3.1806    5.3517   -1.8106 O.3       1 ATP        -0.6996
      9 PA         -2.5519    4.3888    2.1545 P.3       1 ATP         1.7855
     10 O1A        -3.7885    4.7215    2.9377 O.2       1 ATP        -0.8495
     11 O2A        -1.2608    5.2879    2.5314 O.3       1 ATP        -0.8288
     12 O3A        -2.7016    4.6060    0.5597 O.3       1 ATP        -0.8018
     13 O5'        -2.0396    2.8622    2.3120 O.3       1 ATP        -0.5853
     14 C5'        -0.8811    2.4285    1.6206 C.3       1 ATP         0.1809
     15 C4'        -0.1994    1.3333    2.4288 C.3       1 ATP         0.1309
     16 O4'        -1.1285    0.2356    2.5840 O.3       1 ATP        -0.4224
     17 C3'         1.0324    0.7610    1.7344 C.3       1 ATP         0.0947
     18 O3'         1.9175    0.2377    2.7247 O.3       1 ATP        -0.5906
     19 C2'         0.4468   -0.3802    0.9263 C.3       1 ATP         0.0556
     20 O2'         1.3993   -1.3703    0.5961 O.3       1 ATP        -0.5838
     21 C1'        -0.6159   -0.9100    1.8769 C.3       1 ATP         0.4381
     22 N9         -1.7127   -1.6108    1.2130 N.pl3     1 ATP        -0.6883
     23 C8         -2.8641   -1.0399    0.7392 C.ar      1 ATP         0.5620
     24 N7         -3.6659   -1.9257    0.1858 N.2       1 ATP        -0.5584
     25 C5         -3.0053   -3.1223    0.3069 C.ar      1 ATP        -0.2164
     26 C6         -3.3321   -4.4178   -0.0813 C.ar      1 ATP         0.7376
     27 N6         -4.5476   -4.6866   -0.7335 N.pl3     1 ATP        -0.9514
     28 N1         -2.4608   -5.4225    0.1773 N.ar      1 ATP        -0.8054
     29 C2         -1.3053   -5.1020    0.8081 C.ar      1 ATP         0.6649
     30 N3         -0.8788   -3.8921    1.2315 N.ar      1 ATP        -0.7136
     31 C4         -1.7870   -2.9477    0.9438 C.ar      1 ATP         0.5805
     32 HOB2       -5.0349    6.9897   -0.3712 H         1 ATP         0.4367
     33 HOA2       -0.9207    5.2677    3.4511 H         1 ATP         0.4916
     34 H5'1       -1.1760    2.0498    0.6365 H         1 ATP         0.0552
     35 H5'2       -0.2072    3.2811    1.4873 H         1 ATP         0.0552
     36 H4'         0.0402    1.7079    3.4342 H         1 ATP         0.1061
     37 H3'         1.5907    1.4859    1.1353 H         1 ATP         0.0937
     38 HO3'        2.6839   -0.1150    2.2479 H         1 ATP         0.4070
     39 H2'        -0.0017    0.0018    0.0005 H         1 ATP         0.0758
     40 HO2'        2.0953   -0.9375    0.0709 H         1 ATP         0.4080
     41 H1'        -0.1998   -1.6319    2.6178 H         1 ATP         0.1071
     42 H8         -3.0609    0.0200    0.8250 H         1 ATP         0.1022
     43 HN61       -5.2046   -3.9433   -0.8775 H         1 ATP         0.4336
     44 HN62       -4.7849   -5.6332   -0.9625 H         1 ATP         0.4336
     45 H2         -0.6318   -5.9307    0.9993 H         1 ATP         0.0401
@<TRIPOS>BOND
     1    1    2 2
     2    1    3 1
     3    1    4 1
     4    1    8 1
     5    5    6 2
     6    5    7 1
     7    5    8 1
     8    5   12 1
     9    7   32 1
    10    9   10 2
    11    9   11 1
    12    9   12 1
    13    9   13 1
    14   11   33 1
    15   13   14 1
    16   14   15 1
    17   14   34 1
    18   14   35 1
    19   15   16 1
    20   15   17 1
    21   15   36 1
    22   16   21 1
    23   17   18 1
    24   17   19 1
    25   17   37 1
    26   18   38 1
    27   19   20 1
    28   19   21 1
    29   19   39 1
    30   20   40 1
    31   21   22 1
    32   21   41 1
    33   22   23 ar
    34   22   31 ar
    35   23   24 ar
    36   23   42 1
    37   24   25 ar
    38   25   26 ar
    39   25   31 ar
    40   26   27 1
    41   26   28 ar
    42   27   43 1
    43   27   44 1
    44   28   29 ar
    45   29   30 ar
    46   29   45 1
    47   30   31 ar
@<TRIPOS>SUBSTRUCTURE
     1 ATP         1 GROUP 0 A     ****
@<TRIPOS>MOLECULE
[[[5-(6-aminopurin-9-yl)-3,4-dihydroxy-tetrahydrofuran-2-yl]methoxy-hydroxy-phosphoryl]oxy-hydroxy-phosphoryl] phosphate
   45    47     1     0     0
SMALL
USER_CHARGES

@<TRIPOS>ATOM
      1 PG         -6.7436    5.5842   -0.9480 P.3       1 ATP         1.3364
      2 O1G        -6.0978    6.9242   -1.2849 O.co2     1 ATP        -0.8759
      3 O2G        -7.7545    5.6424    0.1924 O.co2     1 ATP        -0.8759
      4 O3G        -7.2166    4.7940   -2.1637 O.co2     1 ATP        -0.8759
      5 PB         -4.1076    4.2219   -1.0231 P.3       1 ATP         1.7980
      6 O1B        -4.2486    3.3944   -2.2665 O.2       1 ATP        -0.9123
      7 O2B        -3.3117    5.6156   -1.2157 O.3       1 ATP        -0.7754
      8 O3B        -5.5045    4.6785   -0.3480 O.3       1 ATP        -0.6996
      9 PA         -2.9684    4.0281    1.6828 P.3       1 ATP         1.7855
     10 O1A        -4.1644    4.3960    2.5121 O.2       1 ATP        -0.8495
     11 O2A        -1.9467    5.2513    1.4052 O.3       1 ATP        -0.8288
     12 O3A        -3.3306    3.5036    0.1973 O.3       1 ATP        -0.8018
     13 O5'        -2.0396    2.8622    2.3120 O.3       1 ATP        -0.5853
     14 C5'        -0.8811    2.4285    1.6206 C.3       1 ATP         0.1809
     15 C4'        -0.1994    1.3333    2.4288 C.3       1 ATP         0.1309
     16 O4'        -1.1285    0.2356    2.5840 O.3       1 ATP        -0.4224
     17 C3'         1.0324    0.7610    1.7344 C.3       1 ATP         0.0947
     18 O3'         1.9175    0.2377    2.7247 O.3       1 ATP        -0.5906
     19 C2'         0.4468   -0.3802    0.9263 C.3       1 ATP         0.0556
     20 O2'         1.3993   -1.3703    0.5961 O.3       1 ATP        -0.5838
     21 C1'        -0.6159   -0.9100    1.8769 C.3       1 ATP         0.4381
     22 N9         -1.7127   -1.6108    1.2130 N.pl3     1 ATP        -0.6883
     23 C8         -2.5476   -1.0844    0.2632 C.ar      1 ATP         0.5620
     24 N7         -3.4391   -1.9591   -0.1536 N.2       1 ATP        -0.5584
     25 C5         -3.1701   -3.1016    0.5574 C.ar      1 ATP        -0.2164
     26 C6         -3.7593   -4.3620    0.5656 C.ar      1 ATP         0.7376
     27 N6         -4.8512   -4.6493   -0.2712 N.pl3     1 ATP        -0.9514
     28 N1         -3.2659   -5.3144    1.3932 N.ar      1 ATP        -0.8054
     29 C2         -2.2122   -4.9785    2.1759 C.ar      1 ATP         0.6649
     30 N3         -1.5595   -3.7985    2.2572 N.ar      1 ATP        -0.7136
     31 C4         -2.0986   -2.9054    1.4140 C.ar      1 ATP         0.5805
     32 HOB2       -3.6643    6.2803   -1.8451 H         1 ATP         0.4367
     33 HOA2       -2.2748    6.0457    0.9328 H         1 ATP         0.4916
     34 H5'1       -1.1760    2.0498    0.6365 H         1 ATP         0.0552
     35 H5'2       -0.2072    3.2811    1.4873 H         1 ATP         0.0552
     36 H4'         0.0402    1.7079    3.4342 H         1 ATP         0.1061
     37 H3'         1.5907    1.4859    1.1353 H         1 ATP         0.0937
     38 HO3'        2.6839   -0.1150    2.2479 H         1 ATP         0.4070
     39 H2'        -0.0017    0.0018    0.0005 H         1 ATP         0.0758
     40 HO2'        0.9369   -2.0558    0.0825 H         1 ATP         0.4080
     41 H1'        -0.1998   -1.6319    2.6178 H         1 ATP         0.1071
     42 H8         -2.4576   -0.0639   -0.0831 H         1 ATP         0.1022
     43 HN61       -5.2371   -3.9234   -0.8448 H         1 ATP         0.4336
     44 HN62       -5.2909   -5.5485   -0.2160 H         1 ATP         0.4336
     45 H2         -1.8433   -5.7650    2.8259 H         1 ATP         0.0401
@<TRIPOS>BOND
     1    1    2 2
     2    1    3 1
     3    1    4 1
     4    1    8 1
     5    5    6 2
     6    5    7 1
     7    5    8 1
     8    5   12 1
     9    7   32 1
    10    9   10 2
    11    9   11 1
    12    9   12 1
    13    9   13 1
    14   11   33 1
    15   13   14 1
    16   14   15 1
    17   14   34 1
    18   14   35 1
    19   15   16 1
    20   15   17 1
    21   15   36 1
    22   16   21 1
    23   17   18 1
    24   17   19 1
    25   17   37 1
    26   18   38 1
    27   19   20 1
    28   19   21 1
    29   19   39 1
    30   20   40 1
    31   21   22 1
    32   21   41 1
    33   22   23 ar
    34   22   31 ar
    35   23   24 ar
    36   23   42 1
    37   24   25 ar
    38   25   26 ar
    39   25   31 ar
    40   26   27 1
    41   26   28 ar
    42   27   43 1
    43   27   44 1
    44   28   29 ar
    45   29   30 ar
    46   29   45 1
    47   30   31 ar
@<TRIPOS>SUBSTRUCTURE
     1 ATP         1 GROUP 0 A     ****
@<TRIPOS>MOLECULE
[[[5-(6-aminopurin-9-yl)-3,4-dihydroxy-tetrahydrofuran-2-yl]methoxy-hydroxy-phosphoryl]oxy-hydroxy-phosphoryl] phosphate
   45    47     1     0     0
SMALL
USER_CHARGES

@<TRIPOS>ATOM
      1 PG         -3.8694    4.7459    5.0560 P.3       1 ATP         1.3364
      2 O1G        -5.2003    4.9449    4.3382 O.co2     1 ATP        -0.8759
      3 O2G        -3.9393    4.9194    6.5695 O.co2     1 ATP        -0.8759
      4 O3G        -3.0914    3.5150    4.6025 O.co2     1 ATP        -0.8759
      5 PB         -2.4657    6.4333    3.0579 P.3       1 ATP         1.7980
      6 O1B        -3.5807    6.7276    2.0983 O.2       1 ATP        -0.9123
      7 O2B        -1.4525    7.6638    3.3272 O.3       1 ATP        -0.7754
      8 O3B        -2.9418    6.0081    4.5439 O.3       1 ATP        -0.6996
      9 PA         -0.5521    5.0215    1.3252 P.3       1 ATP         1.7855
     10 O1A         0.5008    6.0787    1.1591 O.2       1 ATP        -0.8495
     11 O2A        -1.6176    4.9438    0.1104 O.3       1 ATP        -0.8288
     12 O3A        -1.4889    5.2211    2.6273 O.3       1 ATP        -0.8018
     13 O5'         0.0170    3.5129    1.4592 O.3       1 ATP        -0.5853
     14 C5'        -0.8811    2.4285    1.6206 C.3       1 ATP         0.1809
     15 C4'        -0.1994    1.3333    2.4288 C.3       1 ATP         0.1309
     16 O4'        -1.1285    0.2356    2.5840 O.3       1 ATP        -0.4224
     17 C3'         1.0324    0.7610    1.7344 C.3       1 ATP         0.0947
     18 O3'         1.9175    0.2377    2.7247 O.3       1 ATP        -0.5906
     19 C2'         0.4468   -0.3802    0.9263 C.3       1 ATP         0.0556
     20 O2'         1.3993   -1.3703    0.5961 O.3       1 ATP        -0.5838
     21 C1'        -0.6159   -0.9100    1.8769 C.3       1 ATP         0.4381
     22 N9         -1.7127   -1.6108    1.2130 N.pl3     1 ATP        -0.6883
     23 C8         -1.7712   -2.9546    0.9544 C.ar      1 ATP         0.5620
     24 N7         -2.8883   -3.2948    0.3462 N.2       1 ATP        -0.5584
     25 C5         -3.5834   -2.1202    0.2043 C.ar      1 ATP        -0.2164
     26 C6         -4.8225   -1.8251   -0.3554 C.ar      1 ATP         0.7376
     27 N6         -5.6154   -2.8394   -0.9189 N.pl3     1 ATP        -0.9514
     28 N1         -5.2589   -0.5425   -0.3507 N.ar      1 ATP        -0.8054
     29 C2         -4.4510    0.3913    0.2069 C.ar      1 ATP         0.6649
     30 N3         -3.2368    0.2296    0.7767 N.ar      1 ATP        -0.7136
     31 C4         -2.8684   -1.0596    0.7376 C.ar      1 ATP         0.5805
     32 HOB2       -0.9553    8.0431    2.5716 H         1 ATP         0.4367
     33 HOA2       -1.2919    4.7542   -0.7951 H         1 ATP         0.4916
     34 H5'1       -1.7776    2.7841    2.1389 H         1 ATP         0.0552
     35 H5'2       -1.1659    2.0533    0.6322 H         1 ATP         0.0552
     36 H4'         0.0402    1.7079    3.4342 H         1 ATP         0.1061
     37 H3'         1.5907    1.4859    1.1353 H         1 ATP         0.0937
     38 HO3'        2.6839   -0.1150    2.2479 H         1 ATP         0.4070
     39 H2'        -0.0017    0.0018    0.0005 H         1 ATP         0.0758
     40 HO2'        2.0953   -0.9375    0.0709 H         1 ATP         0.4080
     41 H1'        -0.1998   -1.6319    2.6178 H         1 ATP         0.1071
     42 H8         -0.9745   -3.6312    1.2318 H         1 ATP         0.1022
     43 HN61       -6.5251   -2.6138   -1.2745 H         1 ATP         0.4336
     44 HN62       -5.3033   -3.7910   -0.8740 H         1 ATP         0.4336
     45 H2         -4.8317    1.4071    0.1930 H         1 ATP         0.0401
@<TRIPOS>BOND
     1    1    2 2
     2    1    3 1
     3    1    4 1
     4    1    8 1
     5    5    6 2
     6    5    7 1
     7    5    8 1
     8    5   12 1
     9    7   32 1
    10    9   10 2
    11    9   11 1
    12    9   12 1
    13    9   13 1
    14   11   33 1
    15   13   14 1
    16   14   15 1
    17   14   34 1
    18   14   35 1
    19   15   16 1
    20   15   17 1
    21   15   36 1
    22   16   21 1
    23   17   18 1
    24   17   19 1
    25   17   37 1
    26   18   38 1
    27   19   20 1
    28   19   21 1
    29   19   39 1
    30   20   40 1
    31   21   22 1
    32   21   41 1
    33   22   23 ar
    34   22   31 ar
    35   23   24 ar
    36   23   42 1
    37   24   25 ar
    38   25   26 ar
    39   25   31 ar
    40   26   27 1
    41   26   28 ar
    42   27   43 1
    43   27   44 1
    44   28   29 ar
    45   29   30 ar
    46   29   45 1
    47   30   31 ar
@<TRIPOS>SUBSTRUCTURE
     1 ATP         1 GROUP 0 A     ****
@<TRIPOS>MOLECULE
[[[5-(6-aminopurin-9-yl)-3,4-dihydroxy-tetrahydrofuran-2-yl]methoxy-hydroxy-phosphoryl]oxy-hydroxy-phosphoryl] phosphate
   45    47     1     0     0
SMALL
USER_CHARGES

@<TRIPOS>ATOM
      1 PG         -2.3035    9.3049    0.3489 P.3       1 ATP         1.3364
      2 O1G        -2.7936    9.1287   -1.0846 O.co2     1 ATP        -0.8759
      3 O2G        -0.9863   10.0631    0.4743 O.co2     1 ATP        -0.8759
      4 O3G        -3.3818    9.7576    1.3279 O.co2     1 ATP        -0.8759
      5 PB         -2.8703    6.4564    0.9613 P.3       1 ATP         1.7980
      6 O1B        -4.0409    6.5909    1.8898 O.2       1 ATP        -0.9123
      7 O2B        -3.2502    6.1268   -0.5750 O.3       1 ATP        -0.7754
      8 O3B        -1.9413    7.7749    0.8427 O.3       1 ATP        -0.6996
      9 PA         -0.4418    4.8275    0.6351 P.3       1 ATP         1.7855
     10 O1A         0.6003    5.9036    0.5363 O.2       1 ATP        -0.8495
     11 O2A        -0.9460    4.2535   -0.7909 O.3       1 ATP        -0.8288
     12 O3A        -1.8126    5.2991    1.3501 O.3       1 ATP        -0.8018
     13 O5'         0.0170    3.5129    1.4592 O.3       1 ATP        -0.5853
     14 C5'        -0.8811    2.4285    1.6206 C.3       1 ATP         0.1809
     15 C4'        -0.1994    1.3333    2.4288 C.3       1 ATP         0.1309
     16 O4'        -1.1285    0.2356    2.5840 O.3       1 ATP        -0.4224
     17 C3'         1.0324    0.7610    1.7344 C.3       1 ATP         0.0947
     18 O3'         1.9175    0.2377    2.7247 O.3       1 ATP        -0.5906
     19 C2'         0.4468   -0.3802    0.9263 C.3       1 ATP         0.0556
     20 O2'         1.3993   -1.3703    0.5961 O.3       1 ATP        -0.5838
     21 C1'        -0.6159   -0.9100    1.8769 C.3       1 ATP         0.4381
     22 N9         -1.7127   -1.6108    1.2130 N.pl3     1 ATP        -0.6883
     23 C8         -2.8641   -1.0399    0.7392 C.ar      1 ATP         0.5620
     24 N7         -3.6659   -1.9257    0.1858 N.2       1 ATP        -0.5584
     25 C5         -3.0053   -3.1223    0.3069 C.ar      1 ATP        -0.2164
     26 C6         -3.3321   -4.4178   -0.0813 C.ar      1 ATP         0.7376
     27 N6         -4.5476   -4.6866   -0.7335 N.pl3     1 ATP        -0.9514
     28 N1         -2.4608   -5.4225    0.1773 N.ar      1 ATP        -0.8054
     29 C2         -1.3053   -5.1020    0.8081 C.ar      1 ATP         0.6649
     30 N3         -0.8788   -3.8921    1.2315 N.ar      1 ATP        -0.7136
     31 C4         -1.7870   -2.9477    0.9438 C.ar      1 ATP         0.5805
     32 HOB2       -3.7449    5.3038   -0.7754 H         1 ATP         0.4367
     33 HOA2       -0.2927    3.8378   -1.3929 H         1 ATP         0.4916
     34 H5'1       -1.7776    2.7841    2.1389 H         1 ATP         0.0552
     35 H5'2       -1.1659    2.0533    0.6322 H         1 ATP         0.0552
     36 H4'         0.0402    1.7079    3.4342 H         1 ATP         0.1061
     37 H3'         1.5907    1.4859    1.1353 H         1 ATP         0.0937
     38 HO3'        2.6839   -0.1150    2.2479 H         1 ATP         0.4070
     39 H2'        -0.0017    0.0018    0.0005 H         1 ATP         0.0758
     40 HO2'        2.0953   -0.9375    0.0709 H         1 ATP         0.4080
     41 H1'        -0.1998   -1.6319    2.6178 H         1 ATP         0.1071
     42 H8         -3.0609    0.0200    0.8250 H         1 ATP         0.1022
     43 HN61       -5.2046   -3.9433   -0.8775 H         1 ATP         0.4336
     44 HN62       -4.7849   -5.6332   -0.9625 H         1 ATP         0.4336
     45 H2         -0.6318   -5.9307    0.9993 H         1 ATP         0.0401
@<TRIPOS>BOND
     1    1    2 2
     2    1    3 1
     3    1    4 1
     4    1    8 1
     5    5    6 2
     6    5    7 1
     7    5    8 1
     8    5   12 1
     9    7   32 1
    10    9   10 2
    11    9   11 1
    12    9   12 1
    13    9   13 1
    14   11   33 1
    15   13   14 1
    16   14   15 1
    17   14   34 1
    18   14   35 1
    19   15   16 1
    20   15   17 1
    21   15   36 1
    22   16   21 1
    23   17   18 1
    24   17   19 1
    25   17   37 1
    26   18   38 1
    27   19   20 1
    28   19   21 1
    29   19   39 1
    30   20   40 1
    31   21   22 1
    32   21   41 1
    33   22   23 ar
    34   22   31 ar
    35   23   24 ar
    36   23   42 1
    37   24   25 ar
    38   25   26 ar
    39   25   31 ar
    40   26   27 1
    41   26   28 ar
    42   27   43 1
    43   27   44 1
    44   28   29 ar
    45   29   30 ar
    46   29   45 1
    47   30   31 ar
@<TRIPOS>SUBSTRUCTURE
     1 ATP         1 GROUP 0 A     ****
@<TRIPOS>MOLECULE
[[[5-(6-aminopurin-9-yl)-3,4-dihydroxy-tetrahydrofuran-2-yl]methoxy-hydroxy-phosphoryl]oxy-hydroxy-phosphoryl] phosphate
   45    47     1     0     0
SMALL
USER_CHARGES

@<TRIPOS>ATOM
      1 PG         -4.9227    6.6425    1.9105 P.3       1 ATP         1.3364
      2 O1G        -4.7197    8.1498    1.7973 O.co2     1 ATP        -0.8759
      3 O2G        -6.1685    6.2325    2.6887 O.co2     1 ATP        -0.8759
      4 O3G        -4.7245    5.8841    0.6022 O.co2     1 ATP        -0.8759
      5 PB         -2.0707    6.2476    2.6319 P.3       1 ATP         1.7980
      6 O1B        -1.5475    7.6480    2.5067 O.2       1 ATP        -0.9123
      7 O2B        -1.4624    5.3979    3.8652 O.3       1 ATP        -0.7754
      8 O3B        -3.6690    6.1360    2.8525 O.3       1 ATP        -0.6996
      9 PA         -0.4418    4.8275    0.6351 P.3       1 ATP         1.7855
     10 O1A         0.6003    5.9036    0.5363 O.2       1 ATP        -0.8495
     11 O2A        -0.9460    4.2535   -0.7909 O.3       1 ATP        -0.8288
     12 O3A        -1.8126    5.2991    1.3501 O.3       1 ATP        -0.8018
     13 O5'         0.0170    3.5129    1.4592 O.3       1 ATP        -0.5853
     14 C5'        -0.8811    2.4285    1.6206 C.3       1 ATP         0.1809
     15 C4'        -0.1994    1.3333    2.4288 C.3       1 ATP         0.1309
     16 O4'        -1.1285    0.2356    2.5840 O.3       1 ATP        -0.4224
     17 C3'         1.0324    0.7610    1.7344 C.3       1 ATP         0.0947
     18 O3'         1.9175    0.2377    2.7247 O.3       1 ATP        -0.5906
     19 C2'         0.4468   -0.3802    0.9263 C.3       1 ATP         0.0556
     20 O2'         1.3993   -1.3703    0.5961 O.3       1 ATP        -0.5838
     21 C1'        -0.6159   -0.9100    1.8769 C.3       1 ATP         0.4381
     22 N9         -1.7127   -1.6108    1.2130 N.pl3     1 ATP        -0.6883
     23 C8         -1.7712   -2.9546    0.9544 C.ar      1 ATP         0.5620
     24 N7         -2.8883   -3.2948    0.3462 N.2       1 ATP        -0.5584
     25 C5         -3.5834   -2.1202    0.2043 C.ar      1 ATP        -0.2164
     26 C6         -4.8225   -1.8251   -0.3554 C.ar      1 ATP         0.7376
     27 N6         -5.6154   -2.8394   -0.9189 N.pl3     1 ATP        -0.9514
     28 N1         -5.2589   -0.5425   -0.3507 N.ar      1 ATP        -0.8054
     29 C2         -4.4510    0.3913    0.2069 C.ar      1 ATP         0.6649
     30 N3         -3.2368    0.2296    0.7767 N.ar      1 ATP        -0.7136
     31 C4         -2.8684   -1.0596    0.7376 C.ar      1 ATP         0.5805
     32 HOB2       -0.4947    5.2412    3.9019 H         1 ATP         0.4367
     33 HOA2       -1.3621    4.8699   -1.4303 H         1 ATP         0.4916
     34 H5'1       -1.7776    2.7841    2.1389 H         1 ATP         0.0552
     35 H5'2       -1.1659    2.0533    0.6322 H         1 ATP         0.0552
     36 H4'         0.0402    1.7079    3.4342 H         1 ATP         0.1061
     37 H3'         1.5907    1.4859    1.1353 H         1 ATP         0.0937
     38 HO3'        2.6839   -0.1150    2.2479 H         1 ATP         0.4070
     39 H2'        -0.0017    0.0018    0.0005 H         1 ATP         0.0758
     40 HO2'        2.0953   -0.9375    0.0709 H         1 ATP         0.4080
     41 H1'        -0.1998   -1.6319    2.6178 H         1 ATP         0.1071
     42 H8         -0.9745   -3.6312    1.2318 H         1 ATP         0.1022
     43 HN61       -5.2619   -3.7766   -0.9586 H         1 ATP         0.4336
     44 HN62       -6.4834   -2.5990   -1.3590 H         1 ATP         0.4336
     45 H2         -4.8317    1.4071    0.1930 H         1 ATP         0.0401
@<TRIPOS>BOND
     1    1    2 2
     2    1    3 1
     3    1    4 1
     4    1    8 1
     5    5    6 2
     6    5    7 1
     7    5    8 1
     8    5   12 1
     9    7   32 1
    10    9   10 2
    11    9   11 1
    12    9   12 1
    13    9   13 1
    14   11   33 1
    15   13   14 1
    16   14   15 1
    17   14   34 1
    18   14   35 1
    19   15   16 1
    20   15   17 1
    21   15   36 1
    22   16   21 1
    23   17   18 1
    24   17   19 1
    25   17   37 1
    26   18   38 1
    27   19   20 1
    28   19   21 1
    29   19   39 1
    30   20   40 1
    31   21   22 1
    32   21   41 1
    33   22   23 ar
    34   22   31 ar
    35   23   24 ar
    36   23   42 1
    37   24   25 ar
    38   25   26 ar
    39   25   31 ar
    40   26   27 1
    41   26   28 ar
    42   27   43 1
    43   27   44 1
    44   28   29 ar
    45   29   30 ar
    46   29   45 1
    47   30   31 ar
@<TRIPOS>SUBSTRUCTURE
     1 ATP         1 GROUP 0 A     ****
@<TRIPOS>MOLECULE
[[[5-(6-aminopurin-9-yl)-3,4-dihydroxy-tetrahydrofuran-2-yl]methoxy-hydroxy-phosphoryl]oxy-hydroxy-phosphoryl] phosphate
   45    47     1     0     0
SMALL
USER_CHARGES

@<TRIPOS>ATOM
      1 PG         -6.3067    3.8250   -1.1067 P.3       1 ATP         1.3364
      2 O1G        -6.3343    3.7313   -2.6287 O.co2     1 ATP        -0.8759
      3 O2G        -7.5065    4.5442   -0.4992 O.co2     1 ATP        -0.8759
      4 O3G        -5.9377    2.5217   -0.4057 O.co2     1 ATP        -0.8759
      5 PB         -3.4617    4.6701   -1.1459 P.3       1 ATP         1.7980
      6 O1B        -3.1766    4.1165   -2.5108 O.2       1 ATP        -0.9123
      7 O2B        -2.8733    6.1505   -0.8718 O.3       1 ATP        -0.7754
      8 O3B        -5.0315    4.8186   -0.7865 O.3       1 ATP        -0.6996
      9 PA         -2.9684    4.0281    1.6828 P.3       1 ATP         1.7855
     10 O1A        -4.3674    4.0793    2.2248 O.2       1 ATP        -0.8495
     11 O2A        -2.1165    5.3854    1.9045 O.3       1 ATP        -0.8288
     12 O3A        -2.8870    3.7964    0.0851 O.3       1 ATP        -0.8018
     13 O5'        -2.0396    2.8622    2.3120 O.3       1 ATP        -0.5853
     14 C5'        -0.8811    2.4285    1.6206 C.3       1 ATP         0.1809
     15 C4'        -0.1994    1.3333    2.4288 C.3       1 ATP         0.1309
     16 O4'        -1.1285    0.2356    2.5840 O.3       1 ATP        -0.4224
     17 C3'         1.0324    0.7610    1.7344 C.3       1 ATP         0.0947
     18 O3'         1.9175    0.2377    2.7247 O.3       1 ATP        -0.5906
     19 C2'         0.4468   -0.3802    0.9263 C.3       1 ATP         0.0556
     20 O2'         1.3993   -1.3703    0.5961 O.3       1 ATP        -0.5838
     21 C1'        -0.6159   -0.9100    1.8769 C.3       1 ATP         0.4381
     22 N9         -1.7127   -1.6108    1.2130 N.pl3     1 ATP        -0.6883
     23 C8         -2.0877   -2.9101    1.4304 C.ar      1 ATP         0.5620
     24 N7         -3.1152   -3.2613    0.6857 N.2       1 ATP        -0.5584
     25 C5         -3.4186   -2.1409   -0.0462 C.ar      1 ATP        -0.2164
     26 C6         -4.3953   -1.8809   -1.0023 C.ar      1 ATP         0.7376
     27 N6         -5.3118   -2.8767   -1.3812 N.pl3     1 ATP        -0.9514
     28 N1         -4.4538   -0.6507   -1.5667 N.ar      1 ATP        -0.8054
     29 C2         -3.5442    0.2679   -1.1609 C.ar      1 ATP         0.6649
     30 N3         -2.5561    0.1361   -0.2491 N.ar      1 ATP        -0.7136
     31 C4         -2.5568   -1.1019    0.2674 C.ar      1 ATP         0.5805
     32 HOB2       -1.9053    6.2957   -0.9353 H         1 ATP         0.4367
     33 HOA2       -2.4468    6.2221    1.5135 H         1 ATP         0.4916
     34 H5'1       -1.1760    2.0498    0.6365 H         1 ATP         0.0552
     35 H5'2       -0.2072    3.2811    1.4873 H         1 ATP         0.0552
     36 H4'         0.0402    1.7079    3.4342 H         1 ATP         0.1061
     37 H3'         1.5907    1.4859    1.1353 H         1 ATP         0.0937
     38 HO3'        2.6839   -0.1150    2.2479 H         1 ATP         0.4070
     39 H2'        -0.0017    0.0018    0.0005 H         1 ATP         0.0758
     40 HO2'        0.9369   -2.0558    0.0825 H         1 ATP         0.4080
     41 H1'        -0.1998   -1.6319    2.6178 H         1 ATP         0.1071
     42 H8         -1.5778   -3.5473    2.1399 H         1 ATP         0.1022
     43 HN61       -5.2294   -3.7965   -0.9914 H         1 ATP         0.4336
     44 HN62       -5.9774   -2.6837   -2.1055 H         1 ATP         0.4336
     45 H2         -3.6201    1.2414   -1.6336 H         1 ATP         0.0401
@<TRIPOS>BOND
     1    1    2 2
     2    1    3 1
     3    1    4 1
     4    1    8 1
     5    5    6 2
     6    5    7 1
     7    5    8 1
     8    5   12 1
     9    7   32 1
    10    9   10 2
    11    9   11 1
    12    9   12 1
    13    9   13 1
    14   11   33 1
    15   13   14 1
    16   14   15 1
    17   14   34 1
    18   14   35 1
    19   15   16 1
    20   15   17 1
    21   15   36 1
    22   16   21 1
    23   17   18 1
    24   17   19 1
    25   17   37 1
    26   18   38 1
    27   19   20 1
    28   19   21 1
    29   19   39 1
    30   20   40 1
    31   21   22 1
    32   21   41 1
    33   22   23 ar
    34   22   31 ar
    35   23   24 ar
    36   23   42 1
    37   24   25 ar
    38   25   26 ar
    39   25   31 ar
    40   26   27 1
    41   26   28 ar
    42   27   43 1
    43   27   44 1
    44   28   29 ar
    45   29   30 ar
    46   29   45 1
    47   30   31 ar
@<TRIPOS>SUBSTRUCTURE
     1 ATP         1 GROUP 0 A     ****
@<TRIPOS>MOLECULE
[[[5-(6-aminopurin-9-yl)-3,4-dihydroxy-tetrahydrofuran-2-yl]methoxy-hydroxy-phosphoryl]oxy-hydroxy-phosphoryl] phosphate
   45    47     1     0     0
SMALL
USER_CHARGES

@<TRIPOS>ATOM
      1 PG         -5.1524    7.4503    2.5781 P.3       1 ATP         1.3364
      2 O1G        -4.5113    8.8292    2.6960 O.co2     1 ATP        -0.8759
      3 O2G        -5.7037    6.8992    3.8889 O.co2     1 ATP        -0.8759
      4 O3G        -6.0956    7.2980    1.3894 O.co2     1 ATP        -0.8759
      5 PB         -2.8703    6.4564    0.9613 P.3       1 ATP         1.7980
      6 O1B        -3.5171    6.3056   -0.3839 O.2       1 ATP        -0.9123
      7 O2B        -2.0341    7.8242    1.1686 O.3       1 ATP        -0.7754
      8 O3B        -3.8945    6.4502    2.2129 O.3       1 ATP        -0.6996
      9 PA         -0.4418    4.8275    0.6351 P.3       1 ATP         1.7855
     10 O1A         0.6003    5.9036    0.5363 O.2       1 ATP        -0.8495
     11 O2A        -0.9460    4.2535   -0.7909 O.3       1 ATP        -0.8288
     12 O3A        -1.8126    5.2991    1.3501 O.3       1 ATP        -0.8018
     13 O5'         0.0170    3.5129    1.4592 O.3       1 ATP        -0.5853
     14 C5'        -0.8811    2.4285    1.6206 C.3       1 ATP         0.1809
     15 C4'        -0.1994    1.3333    2.4288 C.3       1 ATP         0.1309
     16 O4'        -1.1285    0.2356    2.5840 O.3       1 ATP        -0.4224
     17 C3'         1.0324    0.7610    1.7344 C.3       1 ATP         0.0947
     18 O3'         1.9175    0.2377    2.7247 O.3       1 ATP        -0.5906
     19 C2'         0.4468   -0.3802    0.9263 C.3       1 ATP         0.0556
     20 O2'         1.3993   -1.3703    0.5961 O.3       1 ATP        -0.5838
     21 C1'        -0.6159   -0.9100    1.8769 C.3       1 ATP         0.4381
     22 N9         -1.7127   -1.6108    1.2130 N.pl3     1 ATP        -0.6883
     23 C8         -1.7712   -2.9546    0.9544 C.ar      1 ATP         0.5620
     24 N7         -2.8883   -3.2948    0.3462 N.2       1 ATP        -0.5584
     25 C5         -3.5834   -2.1202    0.2043 C.ar      1 ATP        -0.2164
     26 C6         -4.8225   -1.8251   -0.3554 C.ar      1 ATP         0.7376
     27 N6         -5.6154   -2.8394   -0.9189 N.pl3     1 ATP        -0.9514
     28 N1         -5.2589   -0.5425   -0.3507 N.ar      1 ATP        -0.8054
     29 C2         -4.4510    0.3913    0.2069 C.ar      1 ATP         0.6649
     30 N3         -3.2368    0.2296    0.7767 N.ar      1 ATP        -0.7136
     31 C4         -2.8684   -1.0596    0.7376 C.ar      1 ATP         0.5805
     32 HOB2       -1.2773    8.0124    0.5737 H         1 ATP         0.4367
     33 HOA2       -0.2927    3.8378   -1.3929 H         1 ATP         0.4916
     34 H5'1       -1.7776    2.7841    2.1389 H         1 ATP         0.0552
     35 H5'2       -1.1659    2.0533    0.6322 H         1 ATP         0.0552
     36 H4'         0.0402    1.7079    3.4342 H         1 ATP         0.1061
     37 H3'         1.5907    1.4859    1.1353 H         1 ATP         0.0937
     38 HO3'        2.6839   -0.1150    2.2479 H         1 ATP         0.4070
     39 H2'        -0.0017    0.0018    0.0005 H         1 ATP         0.0758
     40 HO2'        2.0953   -0.9375    0.0709 H         1 ATP         0.4080
     41 H1'        -0.1998   -1.6319    2.6178 H         1 ATP         0.1071
     42 H8         -0.9745   -3.6312    1.2318 H         1 ATP         0.1022
     43 HN61       -5.2619   -3.7766   -0.9586 H         1 ATP         0.4336
     44 HN62       -6.4834   -2.5990   -1.3590 H         1 ATP         0.4336
     45 H2         -4.8317    1.4071    0.1930 H         1 ATP         0.0401
@<TRIPOS>BOND
     1    1    2 2
     2    1    3 1
     3    1    4 1
     4    1    8 1
     5    5    6 2
     6    5    7 1
     7    5    8 1
     8    5   12 1
     9    7   32 1
    10    9   10 2
    11    9   11 1
    12    9   12 1
    13    9   13 1
    14   11   33 1
    15   13   14 1
    16   14   15 1
    17   14   34 1
    18   14   35 1
    19   15   16 1
    20   15   17 1
    21   15   36 1
    22   16   21 1
    23   17   18 1
    24   17   19 1
    25   17   37 1
    26   18   38 1
    27   19   20 1
    28   19   21 1
    29   19   39 1
    30   20   40 1
    31   21   22 1
    32   21   41 1
    33   22   23 ar
    34   22   31 ar
    35   23   24 ar
    36   23   42 1
    37   24   25 ar
    38   25   26 ar
    39   25   31 ar
    40   26   27 1
    41   26   28 ar
    42   27   43 1
    43   27   44 1
    44   28   29 ar
    45   29   30 ar
    46   29   45 1
    47   30   31 ar
@<TRIPOS>SUBSTRUCTURE
     1 ATP         1 GROUP 0 A     ****
@<TRIPOS>MOLECULE
[[[5-(6-aminopurin-9-yl)-3,4-dihydroxy-tetrahydrofuran-2-yl]methoxy-hydroxy-phosphoryl]oxy-hydroxy-phosphoryl] phosphate
   45    47     1     0     0
SMALL
USER_CHARGES

@<TRIPOS>ATOM
      1 PG         -3.2032    5.7778   -2.5706 P.3       1 ATP         1.3364
      2 O1G        -4.2397    6.8867   -2.4222 O.co2     1 ATP        -0.8759
      3 O2G        -3.1695    5.1292   -3.9505 O.co2     1 ATP        -0.8759
      4 O3G        -1.8285    6.1265   -2.0095 O.co2     1 ATP        -0.8759
      5 PB         -4.0159    4.5827    0.0219 P.3       1 ATP         1.7980
      6 O1B        -5.0367    5.5782    0.4882 O.2       1 ATP        -0.9123
      7 O2B        -4.3714    3.0383    0.3404 O.3       1 ATP        -0.7754
      8 O3B        -3.7441    4.5834   -1.5723 O.3       1 ATP        -0.6996
      9 PA         -2.0144    4.7371    2.1731 P.3       1 ATP         1.7855
     10 O1A        -2.9335    5.4107    3.1504 O.2       1 ATP        -0.8495
     11 O2A        -0.5417    5.3996    2.0761 O.3       1 ATP        -0.8288
     12 O3A        -2.5370    4.7706    0.6438 O.3       1 ATP        -0.8018
     13 O5'        -1.7334    3.1724    2.4742 O.3       1 ATP        -0.5853
     14 C5'        -0.8811    2.4285    1.6206 C.3       1 ATP         0.1809
     15 C4'        -0.1994    1.3333    2.4288 C.3       1 ATP         0.1309
     16 O4'        -1.1285    0.2356    2.5840 O.3       1 ATP        -0.4224
     17 C3'         1.0324    0.7610    1.7344 C.3       1 ATP         0.0947
     18 O3'         1.9175    0.2377    2.7247 O.3       1 ATP        -0.5906
     19 C2'         0.4468   -0.3802    0.9263 C.3       1 ATP         0.0556
     20 O2'         1.3993   -1.3703    0.5961 O.3       1 ATP        -0.5838
     21 C1'        -0.6159   -0.9100    1.8769 C.3       1 ATP         0.4381
     22 N9         -1.7127   -1.6108    1.2130 N.pl3     1 ATP        -0.6883
     23 C8         -2.8641   -1.0399    0.7392 C.ar      1 ATP         0.5620
     24 N7         -3.6659   -1.9257    0.1858 N.2       1 ATP        -0.5584
     25 C5         -3.0053   -3.1223    0.3069 C.ar      1 ATP        -0.2164
     26 C6         -3.3321   -4.4178   -0.0813 C.ar      1 ATP         0.7376
     27 N6         -4.5476   -4.6866   -0.7335 N.pl3     1 ATP        -0.9514
     28 N1         -2.4608   -5.4225    0.1773 N.ar      1 ATP        -0.8054
     29 C2         -1.3053   -5.1020    0.8081 C.ar      1 ATP         0.6649
     30 N3         -0.8788   -3.8921    1.2315 N.ar      1 ATP        -0.7136
     31 C4         -1.7870   -2.9477    0.9438 C.ar      1 ATP         0.5805
     32 HOB2       -4.4913    2.7617    1.2738 H         1 ATP         0.4367
     33 HOA2       -0.4607    6.3386    1.8048 H         1 ATP         0.4916
     34 H5'1       -1.4794    1.9921    0.8142 H         1 ATP         0.0552
     35 H5'2       -0.1361    3.1034    1.1867 H         1 ATP         0.0552
     36 H4'         0.0402    1.7079    3.4342 H         1 ATP         0.1061
     37 H3'         1.5907    1.4859    1.1353 H         1 ATP         0.0937
     38 HO3'        2.6839   -0.1150    2.2479 H         1 ATP         0.4070
     39 H2'        -0.0017    0.0018    0.0005 H         1 ATP         0.0758
     40 HO2'        0.9369   -2.0558    0.0825 H         1 ATP         0.4080
     41 H1'        -0.1998   -1.6319    2.6178 H         1 ATP         0.1071
     42 H8         -3.0609    0.0200    0.8250 H         1 ATP         0.1022
     43 HN61       -5.2046   -3.9433   -0.8775 H         1 ATP         0.4336
     44 HN62       -4.7849   -5.6332   -0.9625 H         1 ATP         0.4336
     45 H2         -0.6318   -5.9307    0.9993 H         1 ATP         0.0401
@<TRIPOS>BOND
     1    1    2 2
     2    1    3 1
     3    1    4 1
     4    1    8 1
     5    5    6 2
     6    5    7 1
     7    5    8 1
     8    5   12 1
     9    7   32 1
    10    9   10 2
    11    9   11 1
    12    9   12 1
    13    9   13 1
    14   11   33 1
    15   13   14 1
    16   14   15 1
    17   14   34 1
    18   14   35 1
    19   15   16 1
    20   15   17 1
    21   15   36 1
    22   16   21 1
    23   17   18 1
    24   17   19 1
    25   17   37 1
    26   18   38 1
    27   19   20 1
    28   19   21 1
    29   19   39 1
    30   20   40 1
    31   21   22 1
    32   21   41 1
    33   22   23 ar
    34   22   31 ar
    35   23   24 ar
    36   23   42 1
    37   24   25 ar
    38   25   26 ar
    39   25   31 ar
    40   26   27 1
    41   26   28 ar
    42   27   43 1
    43   27   44 1
    44   28   29 ar
    45   29   30 ar
    46   29   45 1
    47   30   31 ar
@<TRIPOS>SUBSTRUCTURE
     1 ATP         1 GROUP 0 A     ****
@<TRIPOS>MOLECULE
[[[5-(6-aminopurin-9-yl)-3,4-dihydroxy-tetrahydrofuran-2-yl]methoxy-hydroxy-phosphoryl]oxy-hydroxy-phosphoryl] phosphate
   45    47     1     0     0
SMALL
USER_CHARGES

@<TRIPOS>ATOM
      1 PG         -6.5813    3.6943    1.9480 P.3       1 ATP         1.3364
      2 O1G        -7.3597    2.7688    1.0187 O.co2     1 ATP        -0.8759
      3 O2G        -7.4527    4.6392    2.7687 O.co2     1 ATP        -0.8759
      4 O3G        -5.4851    2.9995    2.7492 O.co2     1 ATP        -0.8759
      5 PB         -4.6567    4.3521   -0.2137 P.3       1 ATP         1.7980
      6 O1B        -5.1451    3.4566   -1.3137 O.2       1 ATP        -0.9123
      7 O2B        -4.1554    5.8124   -0.6924 O.3       1 ATP        -0.7754
      8 O3B        -5.7528    4.6878    0.9271 O.3       1 ATP        -0.6996
      9 PA         -2.5921    4.4092    1.8820 P.3       1 ATP         1.7855
     10 O1A        -3.4549    5.1148    2.8877 O.2       1 ATP        -0.8495
     11 O2A        -1.4936    5.3553    1.1641 O.3       1 ATP        -0.8288
     12 O3A        -3.4087    3.7795    0.6372 O.3       1 ATP        -0.8018
     13 O5'        -1.7334    3.1724    2.4742 O.3       1 ATP        -0.5853
     14 C5'        -0.8811    2.4285    1.6206 C.3       1 ATP         0.1809
     15 C4'        -0.1994    1.3333    2.4288 C.3       1 ATP         0.1309
     16 O4'        -1.1285    0.2356    2.5840 O.3       1 ATP        -0.4224
     17 C3'         1.0324    0.7610    1.7344 C.3       1 ATP         0.0947
     18 O3'         1.9175    0.2377    2.7247 O.3       1 ATP        -0.5906
     19 C2'         0.4468   -0.3802    0.9263 C.3       1 ATP         0.0556
     20 O2'         1.3993   -1.3703    0.5961 O.3       1 ATP        -0.5838
     21 C1'        -0.6159   -0.9100    1.8769 C.3       1 ATP         0.4381
     22 N9         -1.7127   -1.6108    1.2130 N.pl3     1 ATP        -0.6883
     23 C8         -1.7712   -2.9546    0.9544 C.ar      1 ATP         0.5620
     24 N7         -2.8883   -3.2948    0.3462 N.2       1 ATP        -0.5584
     25 C5         -3.5834   -2.1202    0.2043 C.ar      1 ATP        -0.2164
     26 C6         -4.8225   -1.8251   -0.3554 C.ar      1 ATP         0.7376
     27 N6         -5.6154   -2.8394   -0.9189 N.pl3     1 ATP        -0.9514
     28 N1         -5.2589   -0.5425   -0.3507 N.ar      1 ATP        -0.8054
     29 C2         -4.4510    0.3913    0.2069 C.ar      1 ATP         0.6649
     30 N3         -3.2368    0.2296    0.7767 N.ar      1 ATP        -0.7136
     31 C4         -2.8684   -1.0596    0.7376 C.ar      1 ATP         0.5805
     32 HOB2       -4.7889    6.4051   -1.1502 H         1 ATP         0.4367
     33 HOA2       -0.8203    5.8049    1.7177 H         1 ATP         0.4916
     34 H5'1       -1.4794    1.9921    0.8142 H         1 ATP         0.0552
     35 H5'2       -0.1361    3.1034    1.1867 H         1 ATP         0.0552
     36 H4'         0.0402    1.7079    3.4342 H         1 ATP         0.1061
     37 H3'         1.5907    1.4859    1.1353 H         1 ATP         0.0937
     38 HO3'        2.6839   -0.1150    2.2479 H         1 ATP         0.4070
     39 H2'        -0.0017    0.0018    0.0005 H         1 ATP         0.0758
     40 HO2'        2.0953   -0.9375    0.0709 H         1 ATP         0.4080
     41 H1'        -0.1998   -1.6319    2.6178 H         1 ATP         0.1071
     42 H8         -0.9745   -3.6312    1.2318 H         1 ATP         0.1022
     43 HN61       -5.2619   -3.7766   -0.9586 H         1 ATP         0.4336
     44 HN62       -6.4834   -2.5990   -1.3590 H         1 ATP         0.4336
     45 H2         -4.8317    1.4071    0.1930 H         1 ATP         0.0401
@<TRIPOS>BOND
     1    1    2 2
     2    1    3 1
     3    1    4 1
     4    1    8 1
     5    5    6 2
     6    5    7 1
     7    5    8 1
     8    5   12 1
     9    7   32 1
    10    9   10 2
    11    9   11 1
    12    9   12 1
    13    9   13 1
    14   11   33 1
    15   13   14 1
    16   14   15 1
    17   14   34 1
    18   14   35 1
    19   15   16 1
    20   15   17 1
    21   15   36 1
    22   16   21 1
    23   17   18 1
    24   17   19 1
    25   17   37 1
    26   18   38 1
    27   19   20 1
    28   19   21 1
    29   19   39 1
    30   20   40 1
    31   21   22 1
    32   21   41 1
    33   22   23 ar
    34   22   31 ar
    35   23   24 ar
    36   23   42 1
    37   24   25 ar
    38   25   26 ar
    39   25   31 ar
    40   26   27 1
    41   26   28 ar
    42   27   43 1
    43   27   44 1
    44   28   29 ar
    45   29   30 ar
    46   29   45 1
    47   30   31 ar
@<TRIPOS>SUBSTRUCTURE
     1 ATP         1 GROUP 0 A     ****
@<TRIPOS>MOLECULE
[[[5-(6-aminopurin-9-yl)-3,4-dihydroxy-tetrahydrofuran-2-yl]methoxy-hydroxy-phosphoryl]oxy-hydroxy-phosphoryl] phosphate
   45    47     1     0     0
SMALL
USER_CHARGES

@<TRIPOS>ATOM
      1 PG         -5.9856    6.0449    0.0488 P.3       1 ATP         1.3364
      2 O1G        -6.1816    6.3999   -1.4215 O.co2     1 ATP        -0.8759
      3 O2G        -6.7959    6.9017    1.0159 O.co2     1 ATP        -0.8759
      4 O3G        -6.0368    4.5495    0.3440 O.co2     1 ATP        -0.8759
      5 PB         -3.0410    5.9271   -0.3056 P.3       1 ATP         1.7980
      6 O1B        -3.0932    5.7226   -1.7909 O.2       1 ATP        -0.9123
      7 O2B        -1.9475    7.0057    0.1983 O.3       1 ATP        -0.7754
      8 O3B        -4.4191    6.4534    0.3573 O.3       1 ATP        -0.6996
      9 PA         -2.5519    4.3888    2.1545 P.3       1 ATP         1.7855
     10 O1A        -3.7885    4.7215    2.9377 O.2       1 ATP        -0.8495
     11 O2A        -1.2608    5.2879    2.5314 O.3       1 ATP        -0.8288
     12 O3A        -2.7016    4.6060    0.5597 O.3       1 ATP        -0.8018
     13 O5'        -2.0396    2.8622    2.3120 O.3       1 ATP        -0.5853
     14 C5'        -0.8811    2.4285    1.6206 C.3       1 ATP         0.1809
     15 C4'        -0.1994    1.3333    2.4288 C.3       1 ATP         0.1309
     16 O4'        -1.1285    0.2356    2.5840 O.3       1 ATP        -0.4224
     17 C3'         1.0324    0.7610    1.7344 C.3       1 ATP         0.0947
     18 O3'         1.9175    0.2377    2.7247 O.3       1 ATP        -0.5906
     19 C2'         0.4468   -0.3802    0.9263 C.3       1 ATP         0.0556
     20 O2'         1.3993   -1.3703    0.5961 O.3       1 ATP        -0.5838
     21 C1'        -0.6159   -0.9100    1.8769 C.3       1 ATP         0.4381
     22 N9         -1.7127   -1.6108    1.2130 N.pl3     1 ATP        -0.6883
     23 C8         -2.8641   -1.0399    0.7392 C.ar      1 ATP         0.5620
     24 N7         -3.6659   -1.9257    0.1858 N.2       1 ATP        -0.5584
     25 C5         -3.0053   -3.1223    0.3069 C.ar      1 ATP        -0.2164
     26 C6         -3.3321   -4.4178   -0.0813 C.ar      1 ATP         0.7376
     27 N6         -4.5476   -4.6866   -0.7335 N.pl3     1 ATP        -0.9514
     28 N1         -2.4608   -5.4225    0.1773 N.ar      1 ATP        -0.8054
     29 C2         -1.3053   -5.1020    0.8081 C.ar      1 ATP         0.6649
     30 N3         -0.8788   -3.8921    1.2315 N.ar      1 ATP        -0.7136
     31 C4         -1.7870   -2.9477    0.9438 C.ar      1 ATP         0.5805
     32 HOB2       -1.0002    6.8508   -0.0038 H         1 ATP         0.4367
     33 HOA2       -0.9207    5.2677    3.4511 H         1 ATP         0.4916
     34 H5'1       -1.1760    2.0498    0.6365 H         1 ATP         0.0552
     35 H5'2       -0.2072    3.2811    1.4873 H         1 ATP         0.0552
     36 H4'         0.0402    1.7079    3.4342 H         1 ATP         0.1061
     37 H3'         1.5907    1.4859    1.1353 H         1 ATP         0.0937
     38 HO3'        2.1521    0.9800    3.3017 H         1 ATP         0.4070
     39 H2'        -0.0017    0.0018    0.0005 H         1 ATP         0.0758
     40 HO2'        2.0953   -0.9375    0.0709 H         1 ATP         0.4080
     41 H1'        -0.1998   -1.6319    2.6178 H         1 ATP         0.1071
     42 H8         -3.0609    0.0200    0.8250 H         1 ATP         0.1022
     43 HN61       -5.2046   -3.9433   -0.8775 H         1 ATP         0.4336
     44 HN62       -4.7849   -5.6332   -0.9625 H         1 ATP         0.4336
     45 H2         -0.6318   -5.9307    0.9993 H         1 ATP         0.0401
@<TRIPOS>BOND
     1    1    2 2
     2    1    3 1
     3    1    4 1
     4    1    8 1
     5    5    6 2
     6    5    7 1
     7    5    8 1
     8    5   12 1
     9    7   32 1
    10    9   10 2
    11    9   11 1
    12    9   12 1
    13    9   13 1
    14   11   33 1
    15   13   14 1
    16   14   15 1
    17   14   34 1
    18   14   35 1
    19   15   16 1
    20   15   17 1
    21   15   36 1
    22   16   21 1
    23   17   18 1
    24   17   19 1
    25   17   37 1
    26   18   38 1
    27   19   20 1
    28   19   21 1
    29   19   39 1
    30   20   40 1
    31   21   22 1
    32   21   41 1
    33   22   23 ar
    34   22   31 ar
    35   23   24 ar
    36   23   42 1
    37   24   25 ar
    38   25   26 ar
    39   25   31 ar
    40   26   27 1
    41   26   28 ar
    42   27   43 1
    43   27   44 1
    44   28   29 ar
    45   29   30 ar
    46   29   45 1
    47   30   31 ar
@<TRIPOS>SUBSTRUCTURE
     1 ATP         1 GROUP 0 A     ****
@<TRIPOS>MOLECULE
[[[5-(6-aminopurin-9-yl)-3,4-dihydroxy-tetrahydrofuran-2-yl]methoxy-hydroxy-phosphoryl]oxy-hydroxy-phosphoryl] phosphate
   45    47     1     0     0
SMALL
USER_CHARGES

@<TRIPOS>ATOM
      1 PG         -2.3035    9.3049    0.3489 P.3       1 ATP         1.3364
      2 O1G        -2.7936    9.1287   -1.0846 O.co2     1 ATP        -0.8759
      3 O2G        -0.9863   10.0631    0.4743 O.co2     1 ATP        -0.8759
      4 O3G        -3.3818    9.7576    1.3279 O.co2     1 ATP        -0.8759
      5 PB         -2.8703    6.4564    0.9613 P.3       1 ATP         1.7980
      6 O1B        -4.0409    6.5909    1.8898 O.2       1 ATP        -0.9123
      7 O2B        -3.2502    6.1268   -0.5750 O.3       1 ATP        -0.7754
      8 O3B        -1.9413    7.7749    0.8427 O.3       1 ATP        -0.6996
      9 PA         -0.4418    4.8275    0.6351 P.3       1 ATP         1.7855
     10 O1A         0.6003    5.9036    0.5363 O.2       1 ATP        -0.8495
     11 O2A        -0.9460    4.2535   -0.7909 O.3       1 ATP        -0.8288
     12 O3A        -1.8126    5.2991    1.3501 O.3       1 ATP        -0.8018
     13 O5'         0.0170    3.5129    1.4592 O.3       1 ATP        -0.5853
     14 C5'        -0.8811    2.4285    1.6206 C.3       1 ATP         0.1809
     15 C4'        -0.1994    1.3333    2.4288 C.3       1 ATP         0.1309
     16 O4'        -1.1285    0.2356    2.5840 O.3       1 ATP        -0.4224
     17 C3'         1.0324    0.7610    1.7344 C.3       1 ATP         0.0947
     18 O3'         1.9175    0.2377    2.7247 O.3       1 ATP        -0.5906
     19 C2'         0.4468   -0.3802    0.9263 C.3       1 ATP         0.0556
     20 O2'         1.3993   -1.3703    0.5961 O.3       1 ATP        -0.5838
     21 C1'        -0.6159   -0.9100    1.8769 C.3       1 ATP         0.4381
     22 N9         -1.7127   -1.6108    1.2130 N.pl3     1 ATP        -0.6883
     23 C8         -1.7712   -2.9546    0.9544 C.ar      1 ATP         0.5620
     24 N7         -2.8883   -3.2948    0.3462 N.2       1 ATP        -0.5584
     25 C5         -3.5834   -2.1202    0.2043 C.ar      1 ATP        -0.2164
     26 C6         -4.8225   -1.8251   -0.3554 C.ar      1 ATP         0.7376
     27 N6         -5.6154   -2.8394   -0.9189 N.pl3     1 ATP        -0.9514
     28 N1         -5.2589   -0.5425   -0.3507 N.ar      1 ATP        -0.8054
     29 C2         -4.4510    0.3913    0.2069 C.ar      1 ATP         0.6649
     30 N3         -3.2368    0.2296    0.7767 N.ar      1 ATP        -0.7136
     31 C4         -2.8684   -1.0596    0.7376 C.ar      1 ATP         0.5805
     32 HOB2       -3.7449    5.3038   -0.7754 H         1 ATP         0.4367
     33 HOA2       -0.2927    3.8378   -1.3929 H         1 ATP         0.4916
     34 H5'1       -1.7776    2.7841    2.1389 H         1 ATP         0.0552
     35 H5'2       -1.1659    2.0533    0.6322 H         1 ATP         0.0552
     36 H4'         0.0402    1.7079    3.4342 H         1 ATP         0.1061
     37 H3'         1.5907    1.4859    1.1353 H         1 ATP         0.0937
     38 HO3'        2.6839   -0.1150    2.2479 H         1 ATP         0.4070
     39 H2'        -0.0017    0.0018    0.0005 H         1 ATP         0.0758
     40 HO2'        2.0953   -0.9375    0.0709 H         1 ATP         0.4080
     41 H1'        -0.1998   -1.6319    2.6178 H         1 ATP         0.1071
     42 H8         -0.9745   -3.6312    1.2318 H         1 ATP         0.1022
     43 HN61       -5.2619   -3.7766   -0.9586 H         1 ATP         0.4336
     44 HN62       -6.4834   -2.5990   -1.3590 H         1 ATP         0.4336
     45 H2         -4.8317    1.4071    0.1930 H         1 ATP         0.0401
@<TRIPOS>BOND
     1    1    2 2
     2    1    3 1
     3    1    4 1
     4    1    8 1
     5    5    6 2
     6    5    7 1
     7    5    8 1
     8    5   12 1
     9    7   32 1
    10    9   10 2
    11    9   11 1
    12    9   12 1
    13    9   13 1
    14   11   33 1
    15   13   14 1
    16   14   15 1
    17   14   34 1
    18   14   35 1
    19   15   16 1
    20   15   17 1
    21   15   36 1
    22   16   21 1
    23   17   18 1
    24   17   19 1
    25   17   37 1
    26   18   38 1
    27   19   20 1
    28   19   21 1
    29   19   39 1
    30   20   40 1
    31   21   22 1
    32   21   41 1
    33   22   23 ar
    34   22   31 ar
    35   23   24 ar
    36   23   42 1
    37   24   25 ar
    38   25   26 ar
    39   25   31 ar
    40   26   27 1
    41   26   28 ar
    42   27   43 1
    43   27   44 1
    44   28   29 ar
    45   29   30 ar
    46   29   45 1
    47   30   31 ar
@<TRIPOS>SUBSTRUCTURE
     1 ATP         1 GROUP 0 A     ****
@<TRIPOS>MOLECULE
[[[5-(6-aminopurin-9-yl)-3,4-dihydroxy-tetrahydrofuran-2-yl]methoxy-hydroxy-phosphoryl]oxy-hydroxy-phosphoryl] phosphate
   45    47     1     0     0
SMALL
USER_CHARGES

@<TRIPOS>ATOM
      1 PG         -1.3333    8.3202   -0.7137 P.3       1 ATP         1.3364
      2 O1G        -1.2256    8.0298   -2.2070 O.co2     1 ATP        -0.8759
      3 O2G        -0.0087    8.6716   -0.0444 O.co2     1 ATP        -0.8759
      4 O3G        -2.4885    9.2419   -0.3369 O.co2     1 ATP        -0.8759
      5 PB         -3.0410    5.9271   -0.3056 P.3       1 ATP         1.7980
      6 O1B        -4.3633    6.5676   -0.0024 O.2       1 ATP        -0.9123
      7 O2B        -2.8511    5.4414   -1.8356 O.3       1 ATP        -0.7754
      8 O3B        -1.7533    6.8715   -0.0499 O.3       1 ATP        -0.6996
      9 PA         -2.5519    4.3888    2.1545 P.3       1 ATP         1.7855
     10 O1A        -3.7885    4.7215    2.9377 O.2       1 ATP        -0.8495
     11 O2A        -1.2608    5.2879    2.5314 O.3       1 ATP        -0.8288
     12 O3A        -2.7016    4.6060    0.5597 O.3       1 ATP        -0.8018
     13 O5'        -2.0396    2.8622    2.3120 O.3       1 ATP        -0.5853
     14 C5'        -0.8811    2.4285    1.6206 C.3       1 ATP         0.1809
     15 C4'        -0.1994    1.3333    2.4288 C.3       1 ATP         0.1309
     16 O4'        -1.1285    0.2356    2.5840 O.3       1 ATP        -0.4224
     17 C3'         1.0324    0.7610    1.7344 C.3       1 ATP         0.0947
     18 O3'         1.9175    0.2377    2.7247 O.3       1 ATP        -0.5906
     19 C2'         0.4468   -0.3802    0.9263 C.3       1 ATP         0.0556
     20 O2'         1.3993   -1.3703    0.5961 O.3       1 ATP        -0.5838
     21 C1'        -0.6159   -0.9100    1.8769 C.3       1 ATP         0.4381
     22 N9         -1.7127   -1.6108    1.2130 N.pl3     1 ATP        -0.6883
     23 C8         -2.5476   -1.0844    0.2632 C.ar      1 ATP         0.5620
     24 N7         -3.4391   -1.9591   -0.1536 N.2       1 ATP        -0.5584
     25 C5         -3.1701   -3.1016    0.5574 C.ar      1 ATP        -0.2164
     26 C6         -3.7593   -4.3620    0.5656 C.ar      1 ATP         0.7376
     27 N6         -4.8512   -4.6493   -0.2712 N.pl3     1 ATP        -0.9514
     28 N1         -3.2659   -5.3144    1.3932 N.ar      1 ATP        -0.8054
     29 C2         -2.2122   -4.9785    2.1759 C.ar      1 ATP         0.6649
     30 N3         -1.5595   -3.7985    2.2572 N.ar      1 ATP        -0.7136
     31 C4         -2.0986   -2.9054    1.4140 C.ar      1 ATP         0.5805
     32 HOB2       -2.9075    6.1060   -2.5549 H         1 ATP         0.4367
     33 HOA2       -1.3097    6.2606    2.4151 H         1 ATP         0.4916
     34 H5'1       -1.1760    2.0498    0.6365 H         1 ATP         0.0552
     35 H5'2       -0.2072    3.2811    1.4873 H         1 ATP         0.0552
     36 H4'         0.0402    1.7079    3.4342 H         1 ATP         0.1061
     37 H3'         1.5907    1.4859    1.1353 H         1 ATP         0.0937
     38 HO3'        2.6839   -0.1150    2.2479 H         1 ATP         0.4070
     39 H2'        -0.0017    0.0018    0.0005 H         1 ATP         0.0758
     40 HO2'        2.0953   -0.9375    0.0709 H         1 ATP         0.4080
     41 H1'        -0.1998   -1.6319    2.6178 H         1 ATP         0.1071
     42 H8         -2.4576   -0.0639   -0.0831 H         1 ATP         0.1022
     43 HN61       -5.2371   -3.9234   -0.8448 H         1 ATP         0.4336
     44 HN62       -5.2909   -5.5485   -0.2160 H         1 ATP         0.4336
     45 H2         -1.8433   -5.7650    2.8259 H         1 ATP         0.0401
@<TRIPOS>BOND
     1    1    2 2
     2    1    3 1
     3    1    4 1
     4    1    8 1
     5    5    6 2
     6    5    7 1
     7    5    8 1
     8    5   12 1
     9    7   32 1
    10    9   10 2
    11    9   11 1
    12    9   12 1
    13    9   13 1
    14   11   33 1
    15   13   14 1
    16   14   15 1
    17   14   34 1
    18   14   35 1
    19   15   16 1
    20   15   17 1
    21   15   36 1
    22   16   21 1
    23   17   18 1
    24   17   19 1
    25   17   37 1
    26   18   38 1
    27   19   20 1
    28   19   21 1
    29   19   39 1
    30   20   40 1
    31   21   22 1
    32   21   41 1
    33   22   23 ar
    34   22   31 ar
    35   23   24 ar
    36   23   42 1
    37   24   25 ar
    38   25   26 ar
    39   25   31 ar
    40   26   27 1
    41   26   28 ar
    42   27   43 1
    43   27   44 1
    44   28   29 ar
    45   29   30 ar
    46   29   45 1
    47   30   31 ar
@<TRIPOS>SUBSTRUCTURE
     1 ATP         1 GROUP 0 A     ****
@<TRIPOS>MOLECULE
[[[5-(6-aminopurin-9-yl)-3,4-dihydroxy-tetrahydrofuran-2-yl]methoxy-hydroxy-phosphoryl]oxy-hydroxy-phosphoryl] phosphate
   45    47     1     0     0
SMALL
USER_CHARGES

@<TRIPOS>ATOM
      1 PG          1.8467    3.8150    5.3731 P.3       1 ATP         1.3364
      2 O1G         2.9518    4.8435    5.1566 O.co2     1 ATP        -0.8759
      3 O2G         2.2174    2.3962    4.9544 O.co2     1 ATP        -0.8759
      4 O3G         1.1630    3.9075    6.7333 O.co2     1 ATP        -0.8759
      5 PB         -0.1702    5.6350    4.1774 P.3       1 ATP         1.7980
      6 O1B        -0.9793    5.9995    5.3871 O.2       1 ATP        -0.9123
      7 O2B         0.9524    6.7181    3.7538 O.3       1 ATP        -0.7754
      8 O3B         0.6684    4.2585    4.3097 O.3       1 ATP        -0.6996
      9 PA         -0.5521    5.0215    1.3252 P.3       1 ATP         1.7855
     10 O1A         0.4009    6.0005    0.7030 O.2       1 ATP        -0.8495
     11 O2A        -1.9515    4.8552    0.5308 O.3       1 ATP        -0.8288
     12 O3A        -1.0201    5.4152    2.8215 O.3       1 ATP        -0.8018
     13 O5'         0.0170    3.5129    1.4592 O.3       1 ATP        -0.5853
     14 C5'        -0.8811    2.4285    1.6206 C.3       1 ATP         0.1809
     15 C4'        -0.1994    1.3333    2.4288 C.3       1 ATP         0.1309
     16 O4'        -1.1285    0.2356    2.5840 O.3       1 ATP        -0.4224
     17 C3'         1.0324    0.7610    1.7344 C.3       1 ATP         0.0947
     18 O3'         1.9175    0.2377    2.7247 O.3       1 ATP        -0.5906
     19 C2'         0.4468   -0.3802    0.9263 C.3       1 ATP         0.0556
     20 O2'         1.3993   -1.3703    0.5961 O.3       1 ATP        -0.5838
     21 C1'        -0.6159   -0.9100    1.8769 C.3       1 ATP         0.4381
     22 N9         -1.7127   -1.6108    1.2130 N.pl3     1 ATP        -0.6883
     23 C8         -2.8641   -1.0399    0.7392 C.ar      1 ATP         0.5620
     24 N7         -3.6659   -1.9257    0.1858 N.2       1 ATP        -0.5584
     25 C5         -3.0053   -3.1223    0.3069 C.ar      1 ATP        -0.2164
     26 C6         -3.3321   -4.4178   -0.0813 C.ar      1 ATP         0.7376
     27 N6         -4.5476   -4.6866   -0.7335 N.pl3     1 ATP        -0.9514
     28 N1         -2.4608   -5.4225    0.1773 N.ar      1 ATP        -0.8054
     29 C2         -1.3053   -5.1020    0.8081 C.ar      1 ATP         0.6649
     30 N3         -0.8788   -3.8921    1.2315 N.ar      1 ATP        -0.7136
     31 C4         -1.7870   -2.9477    0.9438 C.ar      1 ATP         0.5805
     32 HOB2        1.6613    6.9419    4.3938 H         1 ATP         0.4367
     33 HOA2       -1.9350    4.5467   -0.4001 H         1 ATP         0.4916
     34 H5'1       -1.7776    2.7841    2.1389 H         1 ATP         0.0552
     35 H5'2       -1.1659    2.0533    0.6322 H         1 ATP         0.0552
     36 H4'         0.0402    1.7079    3.4342 H         1 ATP         0.1061
     37 H3'         1.5907    1.4859    1.1353 H         1 ATP         0.0937
     38 HO3'        2.1521    0.9800    3.3017 H         1 ATP         0.4070
     39 H2'        -0.0017    0.0018    0.0005 H         1 ATP         0.0758
     40 HO2'        0.9369   -2.0558    0.0825 H         1 ATP         0.4080
     41 H1'        -0.1998   -1.6319    2.6178 H         1 ATP         0.1071
     42 H8         -3.0609    0.0200    0.8250 H         1 ATP         0.1022
     43 HN61       -5.2046   -3.9433   -0.8775 H         1 ATP         0.4336
     44 HN62       -4.7849   -5.6332   -0.9625 H         1 ATP         0.4336
     45 H2         -0.6318   -5.9307    0.9993 H         1 ATP         0.0401
@<TRIPOS>BOND
     1    1    2 2
     2    1    3 1
     3    1    4 1
     4    1    8 1
     5    5    6 2
     6    5    7 1
     7    5    8 1
     8    5   12 1
     9    7   32 1
    10    9   10 2
    11    9   11 1
    12    9   12 1
    13    9   13 1
    14   11   33 1
    15   13   14 1
    16   14   15 1
    17   14   34 1
    18   14   35 1
    19   15   16 1
    20   15   17 1
    21   15   36 1
    22   16   21 1
    23   17   18 1
    24   17   19 1
    25   17   37 1
    26   18   38 1
    27   19   20 1
    28   19   21 1
    29   19   39 1
    30   20   40 1
    31   21   22 1
    32   21   41 1
    33   22   23 ar
    34   22   31 ar
    35   23   24 ar
    36   23   42 1
    37   24   25 ar
    38   25   26 ar
    39   25   31 ar
    40   26   27 1
    41   26   28 ar
    42   27   43 1
    43   27   44 1
    44   28   29 ar
    45   29   30 ar
    46   29   45 1
    47   30   31 ar
@<TRIPOS>SUBSTRUCTURE
     1 ATP         1 GROUP 0 A     ****
@<TRIPOS>MOLECULE
[[[5-(6-aminopurin-9-yl)-3,4-dihydroxy-tetrahydrofuran-2-yl]methoxy-hydroxy-phosphoryl]oxy-hydroxy-phosphoryl] phosphate
   45    47     1     0     0
SMALL
USER_CHARGES

@<TRIPOS>ATOM
      1 PG         -7.1449    1.6493   -0.2323 P.3       1 ATP         1.3364
      2 O1G        -7.1294    0.3455    0.5588 O.co2     1 ATP        -0.8759
      3 O2G        -7.1448    1.4661   -1.7463 O.co2     1 ATP        -0.8759
      4 O3G        -8.1524    2.6766    0.2736 O.co2     1 ATP        -0.8759
      5 PB         -5.0250    2.7995    1.4976 P.3       1 ATP         1.7980
      6 O1B        -5.9753    3.4567    2.4546 O.2       1 ATP        -0.9123
      7 O2B        -4.3268    1.4488    2.0463 O.3       1 ATP        -0.7754
      8 O3B        -5.6836    2.3374    0.0947 O.3       1 ATP        -0.6996
      9 PA         -2.5921    4.4092    1.8820 P.3       1 ATP         1.7855
     10 O1A        -3.0718    5.3918    2.9106 O.2       1 ATP        -0.8495
     11 O2A        -1.6420    5.0490    0.7396 O.3       1 ATP        -0.8288
     12 O3A        -3.7768    3.7125    1.0310 O.3       1 ATP        -0.8018
     13 O5'        -1.7334    3.1724    2.4742 O.3       1 ATP        -0.5853
     14 C5'        -0.8811    2.4285    1.6206 C.3       1 ATP         0.1809
     15 C4'        -0.1994    1.3333    2.4288 C.3       1 ATP         0.1309
     16 O4'        -1.1285    0.2356    2.5840 O.3       1 ATP        -0.4224
     17 C3'         1.0324    0.7610    1.7344 C.3       1 ATP         0.0947
     18 O3'         1.9175    0.2377    2.7247 O.3       1 ATP        -0.5906
     19 C2'         0.4468   -0.3802    0.9263 C.3       1 ATP         0.0556
     20 O2'         1.3993   -1.3703    0.5961 O.3       1 ATP        -0.5838
     21 C1'        -0.6159   -0.9100    1.8769 C.3       1 ATP         0.4381
     22 N9         -1.7127   -1.6108    1.2130 N.pl3     1 ATP        -0.6883
     23 C8         -2.5476   -1.0844    0.2632 C.ar      1 ATP         0.5620
     24 N7         -3.4391   -1.9591   -0.1536 N.2       1 ATP        -0.5584
     25 C5         -3.1701   -3.1016    0.5574 C.ar      1 ATP        -0.2164
     26 C6         -3.7593   -4.3620    0.5656 C.ar      1 ATP         0.7376
     27 N6         -4.8512   -4.6493   -0.2712 N.pl3     1 ATP        -0.9514
     28 N1         -3.2659   -5.3144    1.3932 N.ar      1 ATP        -0.8054
     29 C2         -2.2122   -4.9785    2.1759 C.ar      1 ATP         0.6649
     30 N3         -1.5595   -3.7985    2.2572 N.ar      1 ATP        -0.7136
     31 C4         -2.0986   -2.9054    1.4140 C.ar      1 ATP         0.5805
     32 HOB2       -4.8947    0.6898    2.2985 H         1 ATP         0.4367
     33 HOA2       -0.8013    5.4777    1.0069 H         1 ATP         0.4916
     34 H5'1       -1.4794    1.9921    0.8142 H         1 ATP         0.0552
     35 H5'2       -0.1361    3.1034    1.1867 H         1 ATP         0.0552
     36 H4'         0.0402    1.7079    3.4342 H         1 ATP         0.1061
     37 H3'         1.5907    1.4859    1.1353 H         1 ATP         0.0937
     38 HO3'        2.1521    0.9800    3.3017 H         1 ATP         0.4070
     39 H2'        -0.0017    0.0018    0.0005 H         1 ATP         0.0758
     40 HO2'        0.9369   -2.0558    0.0825 H         1 ATP         0.4080
     41 H1'        -0.1998   -1.6319    2.6178 H         1 ATP         0.1071
     42 H8         -2.4576   -0.0639   -0.0831 H         1 ATP         0.1022
     43 HN61       -5.2371   -3.9234   -0.8448 H         1 ATP         0.4336
     44 HN62       -5.2909   -5.5485   -0.2160 H         1 ATP         0.4336
     45 H2         -1.8433   -5.7650    2.8259 H         1 ATP         0.0401
@<TRIPOS>BOND
     1    1    2 2
     2    1    3 1
     3    1    4 1
     4    1    8 1
     5    5    6 2
     6    5    7 1
     7    5    8 1
     8    5   12 1
     9    7   32 1
    10    9   10 2
    11    9   11 1
    12    9   12 1
    13    9   13 1
    14   11   33 1
    15   13   14 1
    16   14   15 1
    17   14   34 1
    18   14   35 1
    19   15   16 1
    20   15   17 1
    21   15   36 1
    22   16   21 1
    23   17   18 1
    24   17   19 1
    25   17   37 1
    26   18   38 1
    27   19   20 1
    28   19   21 1
    29   19   39 1
    30   20   40 1
    31   21   22 1
    32   21   41 1
    33   22   23 ar
    34   22   31 ar
    35   23   24 ar
    36   23   42 1
    37   24   25 ar
    38   25   26 ar
    39   25   31 ar
    40   26   27 1
    41   26   28 ar
    42   27   43 1
    43   27   44 1
    44   28   29 ar
    45   29   30 ar
    46   29   45 1
    47   30   31 ar
@<TRIPOS>SUBSTRUCTURE
     1 ATP         1 GROUP 0 A     ****
@<TRIPOS>MOLECULE
[[[5-(6-aminopurin-9-yl)-3,4-dihydroxy-tetrahydrofuran-2-yl]methoxy-hydroxy-phosphoryl]oxy-hydroxy-phosphoryl] phosphate
   45    47     1     0     0
SMALL
USER_CHARGES

@<TRIPOS>ATOM
      1 PG         -2.9015    5.6582    6.5136 P.3       1 ATP         1.3364
      2 O1G        -2.0065    4.6340    7.2037 O.co2     1 ATP        -0.8759
      3 O2G        -4.3918    5.3438    6.5901 O.co2     1 ATP        -0.8759
      4 O3G        -2.5511    7.1088    6.8284 O.co2     1 ATP        -0.8759
      5 PB         -1.1327    5.6937    4.1303 P.3       1 ATP         1.7980
      6 O1B        -0.5274    7.0617    4.2437 O.2       1 ATP        -0.9123
      7 O2B        -0.2168    4.4910    4.7025 O.3       1 ATP        -0.7754
      8 O3B        -2.5341    5.5030    4.9146 O.3       1 ATP        -0.6996
      9 PA         -0.5521    5.0215    1.3252 P.3       1 ATP         1.7855
     10 O1A         0.5008    6.0787    1.1591 O.2       1 ATP        -0.8495
     11 O2A        -1.6176    4.9438    0.1104 O.3       1 ATP        -0.8288
     12 O3A        -1.4889    5.2211    2.6273 O.3       1 ATP        -0.8018
     13 O5'         0.0170    3.5129    1.4592 O.3       1 ATP        -0.5853
     14 C5'        -0.8811    2.4285    1.6206 C.3       1 ATP         0.1809
     15 C4'        -0.1994    1.3333    2.4288 C.3       1 ATP         0.1309
     16 O4'        -1.1285    0.2356    2.5840 O.3       1 ATP        -0.4224
     17 C3'         1.0324    0.7610    1.7344 C.3       1 ATP         0.0947
     18 O3'         1.9175    0.2377    2.7247 O.3       1 ATP        -0.5906
     19 C2'         0.4468   -0.3802    0.9263 C.3       1 ATP         0.0556
     20 O2'         1.3993   -1.3703    0.5961 O.3       1 ATP        -0.5838
     21 C1'        -0.6159   -0.9100    1.8769 C.3       1 ATP         0.4381
     22 N9         -1.7127   -1.6108    1.2130 N.pl3     1 ATP        -0.6883
     23 C8         -2.8641   -1.0399    0.7392 C.ar      1 ATP         0.5620
     24 N7         -3.6659   -1.9257    0.1858 N.2       1 ATP        -0.5584
     25 C5         -3.0053   -3.1223    0.3069 C.ar      1 ATP        -0.2164
     26 C6         -3.3321   -4.4178   -0.0813 C.ar      1 ATP         0.7376
     27 N6         -4.5476   -4.6866   -0.7335 N.pl3     1 ATP        -0.9514
     28 N1         -2.4608   -5.4225    0.1773 N.ar      1 ATP        -0.8054
     29 C2         -1.3053   -5.1020    0.8081 C.ar      1 ATP         0.6649
     30 N3         -0.8788   -3.8921    1.2315 N.ar      1 ATP        -0.7136
     31 C4         -1.7870   -2.9477    0.9438 C.ar      1 ATP         0.5805
     32 HOB2        0.6679    4.3387    4.3070 H         1 ATP         0.4367
     33 HOA2       -2.1636    5.7327   -0.0931 H         1 ATP         0.4916
     34 H5'1       -1.7776    2.7841    2.1389 H         1 ATP         0.0552
     35 H5'2       -1.1659    2.0533    0.6322 H         1 ATP         0.0552
     36 H4'         0.0402    1.7079    3.4342 H         1 ATP         0.1061
     37 H3'         1.5907    1.4859    1.1353 H         1 ATP         0.0937
     38 HO3'        2.6839   -0.1150    2.2479 H         1 ATP         0.4070
     39 H2'        -0.0017    0.0018    0.0005 H         1 ATP         0.0758
     40 HO2'        2.0953   -0.9375    0.0709 H         1 ATP         0.4080
     41 H1'        -0.1998   -1.6319    2.6178 H         1 ATP         0.1071
     42 H8         -3.0609    0.0200    0.8250 H         1 ATP         0.1022
     43 HN61       -5.2046   -3.9433   -0.8775 H         1 ATP         0.4336
     44 HN62       -4.7849   -5.6332   -0.9625 H         1 ATP         0.4336
     45 H2         -0.6318   -5.9307    0.9993 H         1 ATP         0.0401
@<TRIPOS>BOND
     1    1    2 2
     2    1    3 1
     3    1    4 1
     4    1    8 1
     5    5    6 2
     6    5    7 1
     7    5    8 1
     8    5   12 1
     9    7   32 1
    10    9   10 2
    11    9   11 1
    12    9   12 1
    13    9   13 1
    14   11   33 1
    15   13   14 1
    16   14   15 1
    17   14   34 1
    18   14   35 1
    19   15   16 1
    20   15   17 1
    21   15   36 1
    22   16   21 1
    23   17   18 1
    24   17   19 1
    25   17   37 1
    26   18   38 1
    27   19   20 1
    28   19   21 1
    29   19   39 1
    30   20   40 1
    31   21   22 1
    32   21   41 1
    33   22   23 ar
    34   22   31 ar
    35   23   24 ar
    36   23   42 1
    37   24   25 ar
    38   25   26 ar
    39   25   31 ar
    40   26   27 1
    41   26   28 ar
    42   27   43 1
    43   27   44 1
    44   28   29 ar
    45   29   30 ar
    46   29   45 1
    47   30   31 ar
@<TRIPOS>SUBSTRUCTURE
     1 ATP         1 GROUP 0 A     ****
@<TRIPOS>MOLECULE
[[[5-(6-aminopurin-9-yl)-3,4-dihydroxy-tetrahydrofuran-2-yl]methoxy-hydroxy-phosphoryl]oxy-hydroxy-phosphoryl] phosphate
   45    47     1     0     0
SMALL
USER_CHARGES

@<TRIPOS>ATOM
      1 PG         -0.7261    8.1110    2.9946 P.3       1 ATP         1.3364
      2 O1G        -1.8258    8.4176    4.0058 O.co2     1 ATP        -0.8759
      3 O2G         0.1674    9.3000    2.6575 O.co2     1 ATP        -0.8759
      4 O3G         0.0321    6.8161    3.2675 O.co2     1 ATP        -0.8759
      5 PB         -2.6470    6.6781    1.2432 P.3       1 ATP         1.7980
      6 O1B        -3.8931    6.7377    2.0764 O.2       1 ATP        -0.9123
      7 O2B        -2.8774    6.8635   -0.3460 O.3       1 ATP        -0.7754
      8 O3B        -1.5394    7.8029    1.5947 O.3       1 ATP        -0.6996
      9 PA         -0.4418    4.8275    0.6351 P.3       1 ATP         1.7855
     10 O1A         0.6003    5.9036    0.5363 O.2       1 ATP        -0.8495
     11 O2A        -0.9460    4.2535   -0.7909 O.3       1 ATP        -0.8288
     12 O3A        -1.8126    5.2991    1.3501 O.3       1 ATP        -0.8018
     13 O5'         0.0170    3.5129    1.4592 O.3       1 ATP        -0.5853
     14 C5'        -0.8811    2.4285    1.6206 C.3       1 ATP         0.1809
     15 C4'        -0.1994    1.3333    2.4288 C.3       1 ATP         0.1309
     16 O4'        -1.1285    0.2356    2.5840 O.3       1 ATP        -0.4224
     17 C3'         1.0324    0.7610    1.7344 C.3       1 ATP         0.0947
     18 O3'         1.9175    0.2377    2.7247 O.3       1 ATP        -0.5906
     19 C2'         0.4468   -0.3802    0.9263 C.3       1 ATP         0.0556
     20 O2'         1.3993   -1.3703    0.5961 O.3       1 ATP        -0.5838
     21 C1'        -0.6159   -0.9100    1.8769 C.3       1 ATP         0.4381
     22 N9         -1.7127   -1.6108    1.2130 N.pl3     1 ATP        -0.6883
     23 C8         -2.8641   -1.0399    0.7392 C.ar      1 ATP         0.5620
     24 N7         -3.6659   -1.9257    0.1858 N.2       1 ATP        -0.5584
     25 C5         -3.0053   -3.1223    0.3069 C.ar      1 ATP        -0.2164
     26 C6         -3.3321   -4.4178   -0.0813 C.ar      1 ATP         0.7376
     27 N6         -4.5476   -4.6866   -0.7335 N.pl3     1 ATP        -0.9514
     28 N1         -2.4608   -5.4225    0.1773 N.ar      1 ATP        -0.8054
     29 C2         -1.3053   -5.1020    0.8081 C.ar      1 ATP         0.6649
     30 N3         -0.8788   -3.8921    1.2315 N.ar      1 ATP        -0.7136
     31 C4         -1.7870   -2.9477    0.9438 C.ar      1 ATP         0.5805
     32 HOB2       -3.4514    6.2247   -0.8200 H         1 ATP         0.4367
     33 HOA2       -0.2927    3.8378   -1.3929 H         1 ATP         0.4916
     34 H5'1       -1.7776    2.7841    2.1389 H         1 ATP         0.0552
     35 H5'2       -1.1659    2.0533    0.6322 H         1 ATP         0.0552
     36 H4'         0.0402    1.7079    3.4342 H         1 ATP         0.1061
     37 H3'         1.5907    1.4859    1.1353 H         1 ATP         0.0937
     38 HO3'        2.6839   -0.1150    2.2479 H         1 ATP         0.4070
     39 H2'        -0.0017    0.0018    0.0005 H         1 ATP         0.0758
     40 HO2'        0.9369   -2.0558    0.0825 H         1 ATP         0.4080
     41 H1'        -0.1998   -1.6319    2.6178 H         1 ATP         0.1071
     42 H8         -3.0609    0.0200    0.8250 H         1 ATP         0.1022
     43 HN61       -5.2046   -3.9433   -0.8775 H         1 ATP         0.4336
     44 HN62       -4.7849   -5.6332   -0.9625 H         1 ATP         0.4336
     45 H2         -0.6318   -5.9307    0.9993 H         1 ATP         0.0401
@<TRIPOS>BOND
     1    1    2 2
     2    1    3 1
     3    1    4 1
     4    1    8 1
     5    5    6 2
     6    5    7 1
     7    5    8 1
     8    5   12 1
     9    7   32 1
    10    9   10 2
    11    9   11 1
    12    9   12 1
    13    9   13 1
    14   11   33 1
    15   13   14 1
    16   14   15 1
    17   14   34 1
    18   14   35 1
    19   15   16 1
    20   15   17 1
    21   15   36 1
    22   16   21 1
    23   17   18 1
    24   17   19 1
    25   17   37 1
    26   18   38 1
    27   19   20 1
    28   19   21 1
    29   19   39 1
    30   20   40 1
    31   21   22 1
    32   21   41 1
    33   22   23 ar
    34   22   31 ar
    35   23   24 ar
    36   23   42 1
    37   24   25 ar
    38   25   26 ar
    39   25   31 ar
    40   26   27 1
    41   26   28 ar
    42   27   43 1
    43   27   44 1
    44   28   29 ar
    45   29   30 ar
    46   29   45 1
    47   30   31 ar
@<TRIPOS>SUBSTRUCTURE
     1 ATP         1 GROUP 0 A     ****
@<TRIPOS>MOLECULE
[[[5-(6-aminopurin-9-yl)-3,4-dihydroxy-tetrahydrofuran-2-yl]methoxy-hydroxy-phosphoryl]oxy-hydroxy-phosphoryl] phosphate
   45    47     1     0     0
SMALL
USER_CHARGES

@<TRIPOS>ATOM
      1 PG         -6.0803    3.1373   -2.4837 P.3       1 ATP         1.3364
      2 O1G        -7.3337    3.7235   -1.8422 O.co2     1 ATP        -0.8759
      3 O2G        -6.1807    1.6527   -2.8181 O.co2     1 ATP        -0.8759
      4 O3G        -5.4907    3.9918   -3.6009 O.co2     1 ATP        -0.8759
      5 PB         -4.3496    4.4743   -0.4769 P.3       1 ATP         1.7980
      6 O1B        -3.6759    5.5115   -1.3260 O.2       1 ATP        -0.9123
      7 O2B        -5.6194    5.0043    0.3714 O.3       1 ATP        -0.7754
      8 O3B        -4.9448    3.2103   -1.2916 O.3       1 ATP        -0.6996
      9 PA         -2.5921    4.4092    1.8820 P.3       1 ATP         1.7855
     10 O1A        -3.4549    5.1148    2.8877 O.2       1 ATP        -0.8495
     11 O2A        -1.4936    5.3553    1.1641 O.3       1 ATP        -0.8288
     12 O3A        -3.4087    3.7795    0.6372 O.3       1 ATP        -0.8018
     13 O5'        -1.7334    3.1724    2.4742 O.3       1 ATP        -0.5853
     14 C5'        -0.8811    2.4285    1.6206 C.3       1 ATP         0.1809
     15 C4'        -0.1994    1.3333    2.4288 C.3       1 ATP         0.1309
     16 O4'        -1.1285    0.2356    2.5840 O.3       1 ATP        -0.4224
     17 C3'         1.0324    0.7610    1.7344 C.3       1 ATP         0.0947
     18 O3'         1.9175    0.2377    2.7247 O.3       1 ATP        -0.5906
     19 C2'         0.4468   -0.3802    0.9263 C.3       1 ATP         0.0556
     20 O2'         1.3993   -1.3703    0.5961 O.3       1 ATP        -0.5838
     21 C1'        -0.6159   -0.9100    1.8769 C.3       1 ATP         0.4381
     22 N9         -1.7127   -1.6108    1.2130 N.pl3     1 ATP        -0.6883
     23 C8         -1.7712   -2.9546    0.9544 C.ar      1 ATP         0.5620
     24 N7         -2.8883   -3.2948    0.3462 N.2       1 ATP        -0.5584
     25 C5         -3.5834   -2.1202    0.2043 C.ar      1 ATP        -0.2164
     26 C6         -4.8225   -1.8251   -0.3554 C.ar      1 ATP         0.7376
     27 N6         -5.6154   -2.8394   -0.9189 N.pl3     1 ATP        -0.9514
     28 N1         -5.2589   -0.5425   -0.3507 N.ar      1 ATP        -0.8054
     29 C2         -4.4510    0.3913    0.2069 C.ar      1 ATP         0.6649
     30 N3         -3.2368    0.2296    0.7767 N.ar      1 ATP        -0.7136
     31 C4         -2.8684   -1.0596    0.7376 C.ar      1 ATP         0.5805
     32 HOB2       -5.4869    5.7246    1.0240 H         1 ATP         0.4367
     33 HOA2       -0.8203    5.8049    1.7177 H         1 ATP         0.4916
     34 H5'1       -1.4794    1.9921    0.8142 H         1 ATP         0.0552
     35 H5'2       -0.1361    3.1034    1.1867 H         1 ATP         0.0552
     36 H4'         0.0402    1.7079    3.4342 H         1 ATP         0.1061
     37 H3'         1.5907    1.4859    1.1353 H         1 ATP         0.0937
     38 HO3'        2.6839   -0.1150    2.2479 H         1 ATP         0.4070
     39 H2'        -0.0017    0.0018    0.0005 H         1 ATP         0.0758
     40 HO2'        2.0953   -0.9375    0.0709 H         1 ATP         0.4080
     41 H1'        -0.1998   -1.6319    2.6178 H         1 ATP         0.1071
     42 H8         -0.9745   -3.6312    1.2318 H         1 ATP         0.1022
     43 HN61       -5.2619   -3.7766   -0.9586 H         1 ATP         0.4336
     44 HN62       -6.4834   -2.5990   -1.3590 H         1 ATP         0.4336
     45 H2         -4.8317    1.4071    0.1930 H         1 ATP         0.0401
@<TRIPOS>BOND
     1    1    2 2
     2    1    3 1
     3    1    4 1
     4    1    8 1
     5    5    6 2
     6    5    7 1
     7    5    8 1
     8    5   12 1
     9    7   32 1
    10    9   10 2
    11    9   11 1
    12    9   12 1
    13    9   13 1
    14   11   33 1
    15   13   14 1
    16   14   15 1
    17   14   34 1
    18   14   35 1
    19   15   16 1
    20   15   17 1
    21   15   36 1
    22   16   21 1
    23   17   18 1
    24   17   19 1
    25   17   37 1
    26   18   38 1
    27   19   20 1
    28   19   21 1
    29   19   39 1
    30   20   40 1
    31   21   22 1
    32   21   41 1
    33   22   23 ar
    34   22   31 ar
    35   23   24 ar
    36   23   42 1
    37   24   25 ar
    38   25   26 ar
    39   25   31 ar
    40   26   27 1
    41   26   28 ar
    42   27   43 1
    43   27   44 1
    44   28   29 ar
    45   29   30 ar
    46   29   45 1
    47   30   31 ar
@<TRIPOS>SUBSTRUCTURE
     1 ATP         1 GROUP 0 A     ****
@<TRIPOS>MOLECULE
[[[5-(6-aminopurin-9-yl)-3,4-dihydroxy-tetrahydrofuran-2-yl]methoxy-hydroxy-phosphoryl]oxy-hydroxy-phosphoryl] phosphate
   45    47     1     0     0
SMALL
USER_CHARGES

@<TRIPOS>ATOM
      1 PG         -4.6011    8.3552    0.2203 P.3       1 ATP         1.3364
      2 O1G        -3.4086    9.3005    0.1188 O.co2     1 ATP        -0.8759
      3 O2G        -5.5042    8.6091    1.4228 O.co2     1 ATP        -0.8759
      4 O3G        -5.3501    8.1490   -1.0922 O.co2     1 ATP        -0.8759
      5 PB         -2.8711    6.0088   -0.3381 P.3       1 ATP         1.7980
      6 O1B        -3.3408    5.6275   -1.7109 O.2       1 ATP        -0.9123
      7 O2B        -1.5242    6.9018   -0.2995 O.3       1 ATP        -0.7754
      8 O3B        -3.9248    6.8831    0.5227 O.3       1 ATP        -0.6996
      9 PA         -2.0144    4.7371    2.1731 P.3       1 ATP         1.7855
     10 O1A        -2.9335    5.4107    3.1504 O.2       1 ATP        -0.8495
     11 O2A        -0.5417    5.3996    2.0761 O.3       1 ATP        -0.8288
     12 O3A        -2.5370    4.7706    0.6438 O.3       1 ATP        -0.8018
     13 O5'        -1.7334    3.1724    2.4742 O.3       1 ATP        -0.5853
     14 C5'        -0.8811    2.4285    1.6206 C.3       1 ATP         0.1809
     15 C4'        -0.1994    1.3333    2.4288 C.3       1 ATP         0.1309
     16 O4'        -1.1285    0.2356    2.5840 O.3       1 ATP        -0.4224
     17 C3'         1.0324    0.7610    1.7344 C.3       1 ATP         0.0947
     18 O3'         1.9175    0.2377    2.7247 O.3       1 ATP        -0.5906
     19 C2'         0.4468   -0.3802    0.9263 C.3       1 ATP         0.0556
     20 O2'         1.3993   -1.3703    0.5961 O.3       1 ATP        -0.5838
     21 C1'        -0.6159   -0.9100    1.8769 C.3       1 ATP         0.4381
     22 N9         -1.7127   -1.6108    1.2130 N.pl3     1 ATP        -0.6883
     23 C8         -2.8641   -1.0399    0.7392 C.ar      1 ATP         0.5620
     24 N7         -3.6659   -1.9257    0.1858 N.2       1 ATP        -0.5584
     25 C5         -3.0053   -3.1223    0.3069 C.ar      1 ATP        -0.2164
     26 C6         -3.3321   -4.4178   -0.0813 C.ar      1 ATP         0.7376
     27 N6         -4.5476   -4.6866   -0.7335 N.pl3     1 ATP        -0.9514
     28 N1         -2.4608   -5.4225    0.1773 N.ar      1 ATP        -0.8054
     29 C2         -1.3053   -5.1020    0.8081 C.ar      1 ATP         0.6649
     30 N3         -0.8788   -3.8921    1.2315 N.ar      1 ATP        -0.7136
     31 C4         -1.7870   -2.9477    0.9438 C.ar      1 ATP         0.5805
     32 HOB2       -1.5199    7.7737   -0.7488 H         1 ATP         0.4367
     33 HOA2        0.0183    5.4312    2.8807 H         1 ATP         0.4916
     34 H5'1       -1.4794    1.9921    0.8142 H         1 ATP         0.0552
     35 H5'2       -0.1361    3.1034    1.1867 H         1 ATP         0.0552
     36 H4'         0.0402    1.7079    3.4342 H         1 ATP         0.1061
     37 H3'         1.5907    1.4859    1.1353 H         1 ATP         0.0937
     38 HO3'        2.6839   -0.1150    2.2479 H         1 ATP         0.4070
     39 H2'        -0.0017    0.0018    0.0005 H         1 ATP         0.0758
     40 HO2'        2.0953   -0.9375    0.0709 H         1 ATP         0.4080
     41 H1'        -0.1998   -1.6319    2.6178 H         1 ATP         0.1071
     42 H8         -3.0609    0.0200    0.8250 H         1 ATP         0.1022
     43 HN61       -5.2046   -3.9433   -0.8775 H         1 ATP         0.4336
     44 HN62       -4.7849   -5.6332   -0.9625 H         1 ATP         0.4336
     45 H2         -0.6318   -5.9307    0.9993 H         1 ATP         0.0401
@<TRIPOS>BOND
     1    1    2 2
     2    1    3 1
     3    1    4 1
     4    1    8 1
     5    5    6 2
     6    5    7 1
     7    5    8 1
     8    5   12 1
     9    7   32 1
    10    9   10 2
    11    9   11 1
    12    9   12 1
    13    9   13 1
    14   11   33 1
    15   13   14 1
    16   14   15 1
    17   14   34 1
    18   14   35 1
    19   15   16 1
    20   15   17 1
    21   15   36 1
    22   16   21 1
    23   17   18 1
    24   17   19 1
    25   17   37 1
    26   18   38 1
    27   19   20 1
    28   19   21 1
    29   19   39 1
    30   20   40 1
    31   21   22 1
    32   21   41 1
    33   22   23 ar
    34   22   31 ar
    35   23   24 ar
    36   23   42 1
    37   24   25 ar
    38   25   26 ar
    39   25   31 ar
    40   26   27 1
    41   26   28 ar
    42   27   43 1
    43   27   44 1
    44   28   29 ar
    45   29   30 ar
    46   29   45 1
    47   30   31 ar
@<TRIPOS>SUBSTRUCTURE
     1 ATP         1 GROUP 0 A     ****
@<TRIPOS>MOLECULE
[[[5-(6-aminopurin-9-yl)-3,4-dihydroxy-tetrahydrofuran-2-yl]methoxy-hydroxy-phosphoryl]oxy-hydroxy-phosphoryl] phosphate
   45    47     1     0     0
SMALL
USER_CHARGES

@<TRIPOS>ATOM
      1 PG         -2.4024    4.2089   -4.2946 P.3       1 ATP         1.3364
      2 O1G        -3.8889    3.8737   -4.2331 O.co2     1 ATP        -0.8759
      3 O2G        -1.5394    3.1253   -4.9325 O.co2     1 ATP        -0.8759
      4 O3G        -2.0987    5.6204   -4.7859 O.co2     1 ATP        -0.8759
      5 PB         -2.4295    5.1395   -1.4763 P.3       1 ATP         1.7980
      6 O1B        -2.2448    6.6168   -1.6611 O.2       1 ATP        -0.9123
      7 O2B        -3.9588    4.6635   -1.2580 O.3       1 ATP        -0.7754
      8 O3B        -1.9278    4.2310   -2.7166 O.3       1 ATP        -0.6996
      9 PA         -0.0712    4.4471    0.1412 P.3       1 ATP         1.7855
     10 O1A         0.5719    5.7962    0.2821 O.2       1 ATP        -0.8495
     11 O2A         0.5467    3.5334   -1.0423 O.3       1 ATP        -0.8288
     12 O3A        -1.6467    4.5003   -0.2162 O.3       1 ATP        -0.8018
     13 O5'         0.0170    3.5129    1.4592 O.3       1 ATP        -0.5853
     14 C5'        -0.8811    2.4285    1.6206 C.3       1 ATP         0.1809
     15 C4'        -0.1994    1.3333    2.4288 C.3       1 ATP         0.1309
     16 O4'        -1.1285    0.2356    2.5840 O.3       1 ATP        -0.4224
     17 C3'         1.0324    0.7610    1.7344 C.3       1 ATP         0.0947
     18 O3'         1.9175    0.2377    2.7247 O.3       1 ATP        -0.5906
     19 C2'         0.4468   -0.3802    0.9263 C.3       1 ATP         0.0556
     20 O2'         1.3993   -1.3703    0.5961 O.3       1 ATP        -0.5838
     21 C1'        -0.6159   -0.9100    1.8769 C.3       1 ATP         0.4381
     22 N9         -1.7127   -1.6108    1.2130 N.pl3     1 ATP        -0.6883
     23 C8         -1.7712   -2.9546    0.9544 C.ar      1 ATP         0.5620
     24 N7         -2.8883   -3.2948    0.3462 N.2       1 ATP        -0.5584
     25 C5         -3.5834   -2.1202    0.2043 C.ar      1 ATP        -0.2164
     26 C6         -4.8225   -1.8251   -0.3554 C.ar      1 ATP         0.7376
     27 N6         -5.6154   -2.8394   -0.9189 N.pl3     1 ATP        -0.9514
     28 N1         -5.2589   -0.5425   -0.3507 N.ar      1 ATP        -0.8054
     29 C2         -4.4510    0.3913    0.2069 C.ar      1 ATP         0.6649
     30 N3         -3.2368    0.2296    0.7767 N.ar      1 ATP        -0.7136
     31 C4         -2.8684   -1.0596    0.7376 C.ar      1 ATP         0.5805
     32 HOB2       -4.6183    4.8492   -1.9600 H         1 ATP         0.4367
     33 HOA2        0.5107    3.8640   -1.9650 H         1 ATP         0.4916
     34 H5'1       -1.7776    2.7841    2.1389 H         1 ATP         0.0552
     35 H5'2       -1.1659    2.0533    0.6322 H         1 ATP         0.0552
     36 H4'         0.0402    1.7079    3.4342 H         1 ATP         0.1061
     37 H3'         1.5907    1.4859    1.1353 H         1 ATP         0.0937
     38 HO3'        2.6839   -0.1150    2.2479 H         1 ATP         0.4070
     39 H2'        -0.0017    0.0018    0.0005 H         1 ATP         0.0758
     40 HO2'        2.0953   -0.9375    0.0709 H         1 ATP         0.4080
     41 H1'        -0.1998   -1.6319    2.6178 H         1 ATP         0.1071
     42 H8         -0.9745   -3.6312    1.2318 H         1 ATP         0.1022
     43 HN61       -5.2619   -3.7766   -0.9586 H         1 ATP         0.4336
     44 HN62       -6.4834   -2.5990   -1.3590 H         1 ATP         0.4336
     45 H2         -4.8317    1.4071    0.1930 H         1 ATP         0.0401
@<TRIPOS>BOND
     1    1    2 2
     2    1    3 1
     3    1    4 1
     4    1    8 1
     5    5    6 2
     6    5    7 1
     7    5    8 1
     8    5   12 1
     9    7   32 1
    10    9   10 2
    11    9   11 1
    12    9   12 1
    13    9   13 1
    14   11   33 1
    15   13   14 1
    16   14   15 1
    17   14   34 1
    18   14   35 1
    19   15   16 1
    20   15   17 1
    21   15   36 1
    22   16   21 1
    23   17   18 1
    24   17   19 1
    25   17   37 1
    26   18   38 1
    27   19   20 1
    28   19   21 1
    29   19   39 1
    30   20   40 1
    31   21   22 1
    32   21   41 1
    33   22   23 ar
    34   22   31 ar
    35   23   24 ar
    36   23   42 1
    37   24   25 ar
    38   25   26 ar
    39   25   31 ar
    40   26   27 1
    41   26   28 ar
    42   27   43 1
    43   27   44 1
    44   28   29 ar
    45   29   30 ar
    46   29   45 1
    47   30   31 ar
@<TRIPOS>SUBSTRUCTURE
     1 ATP         1 GROUP 0 A     ****
@<TRIPOS>MOLECULE
[[[5-(6-aminopurin-9-yl)-3,4-dihydroxy-tetrahydrofuran-2-yl]methoxy-hydroxy-phosphoryl]oxy-hydroxy-phosphoryl] phosphate
   45    47     1     0     0
SMALL
USER_CHARGES

@<TRIPOS>ATOM
      1 PG         -0.7261    8.1110    2.9946 P.3       1 ATP         1.3364
      2 O1G        -1.8258    8.4176    4.0058 O.co2     1 ATP        -0.8759
      3 O2G         0.1674    9.3000    2.6575 O.co2     1 ATP        -0.8759
      4 O3G         0.0321    6.8161    3.2675 O.co2     1 ATP        -0.8759
      5 PB         -2.6470    6.6781    1.2432 P.3       1 ATP         1.7980
      6 O1B        -3.8931    6.7377    2.0764 O.2       1 ATP        -0.9123
      7 O2B        -2.8774    6.8635   -0.3460 O.3       1 ATP        -0.7754
      8 O3B        -1.5394    7.8029    1.5947 O.3       1 ATP        -0.6996
      9 PA         -0.4418    4.8275    0.6351 P.3       1 ATP         1.7855
     10 O1A         0.6003    5.9036    0.5363 O.2       1 ATP        -0.8495
     11 O2A        -0.9460    4.2535   -0.7909 O.3       1 ATP        -0.8288
     12 O3A        -1.8126    5.2991    1.3501 O.3       1 ATP        -0.8018
     13 O5'         0.0170    3.5129    1.4592 O.3       1 ATP        -0.5853
     14 C5'        -0.8811    2.4285    1.6206 C.3       1 ATP         0.1809
     15 C4'        -0.1994    1.3333    2.4288 C.3       1 ATP         0.1309
     16 O4'        -1.1285    0.2356    2.5840 O.3       1 ATP        -0.4224
     17 C3'         1.0324    0.7610    1.7344 C.3       1 ATP         0.0947
     18 O3'         1.9175    0.2377    2.7247 O.3       1 ATP        -0.5906
     19 C2'         0.4468   -0.3802    0.9263 C.3       1 ATP         0.0556
     20 O2'         1.3993   -1.3703    0.5961 O.3       1 ATP        -0.5838
     21 C1'        -0.6159   -0.9100    1.8769 C.3       1 ATP         0.4381
     22 N9         -1.7127   -1.6108    1.2130 N.pl3     1 ATP        -0.6883
     23 C8         -1.7712   -2.9546    0.9544 C.ar      1 ATP         0.5620
     24 N7         -2.8883   -3.2948    0.3462 N.2       1 ATP        -0.5584
     25 C5         -3.5834   -2.1202    0.2043 C.ar      1 ATP        -0.2164
     26 C6         -4.8225   -1.8251   -0.3554 C.ar      1 ATP         0.7376
     27 N6         -5.6154   -2.8394   -0.9189 N.pl3     1 ATP        -0.9514
     28 N1         -5.2589   -0.5425   -0.3507 N.ar      1 ATP        -0.8054
     29 C2         -4.4510    0.3913    0.2069 C.ar      1 ATP         0.6649
     30 N3         -3.2368    0.2296    0.7767 N.ar      1 ATP        -0.7136
     31 C4         -2.8684   -1.0596    0.7376 C.ar      1 ATP         0.5805
     32 HOB2       -3.4514    6.2247   -0.8200 H         1 ATP         0.4367
     33 HOA2       -1.3621    4.8699   -1.4303 H         1 ATP         0.4916
     34 H5'1       -1.7776    2.7841    2.1389 H         1 ATP         0.0552
     35 H5'2       -1.1659    2.0533    0.6322 H         1 ATP         0.0552
     36 H4'         0.0402    1.7079    3.4342 H         1 ATP         0.1061
     37 H3'         1.5907    1.4859    1.1353 H         1 ATP         0.0937
     38 HO3'        2.6839   -0.1150    2.2479 H         1 ATP         0.4070
     39 H2'        -0.0017    0.0018    0.0005 H         1 ATP         0.0758
     40 HO2'        2.0953   -0.9375    0.0709 H         1 ATP         0.4080
     41 H1'        -0.1998   -1.6319    2.6178 H         1 ATP         0.1071
     42 H8         -0.9745   -3.6312    1.2318 H         1 ATP         0.1022
     43 HN61       -5.2619   -3.7766   -0.9586 H         1 ATP         0.4336
     44 HN62       -6.4834   -2.5990   -1.3590 H         1 ATP         0.4336
     45 H2         -4.8317    1.4071    0.1930 H         1 ATP         0.0401
@<TRIPOS>BOND
     1    1    2 2
     2    1    3 1
     3    1    4 1
     4    1    8 1
     5    5    6 2
     6    5    7 1
     7    5    8 1
     8    5   12 1
     9    7   32 1
    10    9   10 2
    11    9   11 1
    12    9   12 1
    13    9   13 1
    14   11   33 1
    15   13   14 1
    16   14   15 1
    17   14   34 1
    18   14   35 1
    19   15   16 1
    20   15   17 1
    21   15   36 1
    22   16   21 1
    23   17   18 1
    24   17   19 1
    25   17   37 1
    26   18   38 1
    27   19   20 1
    28   19   21 1
    29   19   39 1
    30   20   40 1
    31   21   22 1
    32   21   41 1
    33   22   23 ar
    34   22   31 ar
    35   23   24 ar
    36   23   42 1
    37   24   25 ar
    38   25   26 ar
    39   25   31 ar
    40   26   27 1
    41   26   28 ar
    42   27   43 1
    43   27   44 1
    44   28   29 ar
    45   29   30 ar
    46   29   45 1
    47   30   31 ar
@<TRIPOS>SUBSTRUCTURE
     1 ATP         1 GROUP 0 A     ****
@<TRIPOS>MOLECULE
[[[5-(6-aminopurin-9-yl)-3,4-dihydroxy-tetrahydrofuran-2-yl]methoxy-hydroxy-phosphoryl]oxy-hydroxy-phosphoryl] phosphate
   45    47     1     0     0
SMALL
USER_CHARGES

@<TRIPOS>ATOM
      1 PG         -2.9015    5.6582    6.5136 P.3       1 ATP         1.3364
      2 O1G        -2.0065    4.6340    7.2037 O.co2     1 ATP        -0.8759
      3 O2G        -4.3918    5.3438    6.5901 O.co2     1 ATP        -0.8759
      4 O3G        -2.5511    7.1088    6.8284 O.co2     1 ATP        -0.8759
      5 PB         -1.1327    5.6937    4.1303 P.3       1 ATP         1.7980
      6 O1B        -0.5274    7.0617    4.2437 O.2       1 ATP        -0.9123
      7 O2B        -0.2168    4.4910    4.7025 O.3       1 ATP        -0.7754
      8 O3B        -2.5341    5.5030    4.9146 O.3       1 ATP        -0.6996
      9 PA         -0.5521    5.0215    1.3252 P.3       1 ATP         1.7855
     10 O1A         0.5008    6.0787    1.1591 O.2       1 ATP        -0.8495
     11 O2A        -1.6176    4.9438    0.1104 O.3       1 ATP        -0.8288
     12 O3A        -1.4889    5.2211    2.6273 O.3       1 ATP        -0.8018
     13 O5'         0.0170    3.5129    1.4592 O.3       1 ATP        -0.5853
     14 C5'        -0.8811    2.4285    1.6206 C.3       1 ATP         0.1809
     15 C4'        -0.1994    1.3333    2.4288 C.3       1 ATP         0.1309
     16 O4'        -1.1285    0.2356    2.5840 O.3       1 ATP        -0.4224
     17 C3'         1.0324    0.7610    1.7344 C.3       1 ATP         0.0947
     18 O3'         1.9175    0.2377    2.7247 O.3       1 ATP        -0.5906
     19 C2'         0.4468   -0.3802    0.9263 C.3       1 ATP         0.0556
     20 O2'         1.3993   -1.3703    0.5961 O.3       1 ATP        -0.5838
     21 C1'        -0.6159   -0.9100    1.8769 C.3       1 ATP         0.4381
     22 N9         -1.7127   -1.6108    1.2130 N.pl3     1 ATP        -0.6883
     23 C8         -1.7712   -2.9546    0.9544 C.ar      1 ATP         0.5620
     24 N7         -2.8883   -3.2948    0.3462 N.2       1 ATP        -0.5584
     25 C5         -3.5834   -2.1202    0.2043 C.ar      1 ATP        -0.2164
     26 C6         -4.8225   -1.8251   -0.3554 C.ar      1 ATP         0.7376
     27 N6         -5.6154   -2.8394   -0.9189 N.pl3     1 ATP        -0.9514
     28 N1         -5.2589   -0.5425   -0.3507 N.ar      1 ATP        -0.8054
     29 C2         -4.4510    0.3913    0.2069 C.ar      1 ATP         0.6649
     30 N3         -3.2368    0.2296    0.7767 N.ar      1 ATP        -0.7136
     31 C4         -2.8684   -1.0596    0.7376 C.ar      1 ATP         0.5805
     32 HOB2        0.6679    4.3387    4.3070 H         1 ATP         0.4367
     33 HOA2       -2.1636    5.7327   -0.0931 H         1 ATP         0.4916
     34 H5'1       -1.7776    2.7841    2.1389 H         1 ATP         0.0552
     35 H5'2       -1.1659    2.0533    0.6322 H         1 ATP         0.0552
     36 H4'         0.0402    1.7079    3.4342 H         1 ATP         0.1061
     37 H3'         1.5907    1.4859    1.1353 H         1 ATP         0.0937
     38 HO3'        2.6839   -0.1150    2.2479 H         1 ATP         0.4070
     39 H2'        -0.0017    0.0018    0.0005 H         1 ATP         0.0758
     40 HO2'        2.0953   -0.9375    0.0709 H         1 ATP         0.4080
     41 H1'        -0.1998   -1.6319    2.6178 H         1 ATP         0.1071
     42 H8         -0.9745   -3.6312    1.2318 H         1 ATP         0.1022
     43 HN61       -5.2619   -3.7766   -0.9586 H         1 ATP         0.4336
     44 HN62       -6.4834   -2.5990   -1.3590 H         1 ATP         0.4336
     45 H2         -4.8317    1.4071    0.1930 H         1 ATP         0.0401
@<TRIPOS>BOND
     1    1    2 2
     2    1    3 1
     3    1    4 1
     4    1    8 1
     5    5    6 2
     6    5    7 1
     7    5    8 1
     8    5   12 1
     9    7   32 1
    10    9   10 2
    11    9   11 1
    12    9   12 1
    13    9   13 1
    14   11   33 1
    15   13   14 1
    16   14   15 1
    17   14   34 1
    18   14   35 1
    19   15   16 1
    20   15   17 1
    21   15   36 1
    22   16   21 1
    23   17   18 1
    24   17   19 1
    25   17   37 1
    26   18   38 1
    27   19   20 1
    28   19   21 1
    29   19   39 1
    30   20   40 1
    31   21   22 1
    32   21   41 1
    33   22   23 ar
    34   22   31 ar
    35   23   24 ar
    36   23   42 1
    37   24   25 ar
    38   25   26 ar
    39   25   31 ar
    40   26   27 1
    41   26   28 ar
    42   27   43 1
    43   27   44 1
    44   28   29 ar
    45   29   30 ar
    46   29   45 1
    47   30   31 ar
@<TRIPOS>SUBSTRUCTURE
     1 ATP         1 GROUP 0 A     ****
@<TRIPOS>MOLECULE
[[[5-(6-aminopurin-9-yl)-3,4-dihydroxy-tetrahydrofuran-2-yl]methoxy-hydroxy-phosphoryl]oxy-hydroxy-phosphoryl] phosphate
   45    47     1     0     0
SMALL
USER_CHARGES

@<TRIPOS>ATOM
      1 PG          1.7195    7.8375    4.8005 P.3       1 ATP         1.3364
      2 O1G         0.8197    8.3355    5.9267 O.co2     1 ATP        -0.8759
      3 O2G         2.2404    8.9358    3.8796 O.co2     1 ATP        -0.8759
      4 O3G         2.7816    6.8367    5.2438 O.co2     1 ATP        -0.8759
      5 PB         -0.1702    5.6350    4.1774 P.3       1 ATP         1.7980
      6 O1B         0.6165    4.4440    4.6391 O.2       1 ATP        -0.9123
      7 O2B        -1.2670    6.1808    5.2320 O.3       1 ATP        -0.7754
      8 O3B         0.7147    6.9472    3.8447 O.3       1 ATP        -0.6996
      9 PA         -0.5521    5.0215    1.3252 P.3       1 ATP         1.7855
     10 O1A         0.4009    6.0005    0.7030 O.2       1 ATP        -0.8495
     11 O2A        -1.9515    4.8552    0.5308 O.3       1 ATP        -0.8288
     12 O3A        -1.0201    5.4152    2.8215 O.3       1 ATP        -0.8018
     13 O5'         0.0170    3.5129    1.4592 O.3       1 ATP        -0.5853
     14 C5'        -0.8811    2.4285    1.6206 C.3       1 ATP         0.1809
     15 C4'        -0.1994    1.3333    2.4288 C.3       1 ATP         0.1309
     16 O4'        -1.1285    0.2356    2.5840 O.3       1 ATP        -0.4224
     17 C3'         1.0324    0.7610    1.7344 C.3       1 ATP         0.0947
     18 O3'         1.9175    0.2377    2.7247 O.3       1 ATP        -0.5906
     19 C2'         0.4468   -0.3802    0.9263 C.3       1 ATP         0.0556
     20 O2'         1.3993   -1.3703    0.5961 O.3       1 ATP        -0.5838
     21 C1'        -0.6159   -0.9100    1.8769 C.3       1 ATP         0.4381
     22 N9         -1.7127   -1.6108    1.2130 N.pl3     1 ATP        -0.6883
     23 C8         -2.8641   -1.0399    0.7392 C.ar      1 ATP         0.5620
     24 N7         -3.6659   -1.9257    0.1858 N.2       1 ATP        -0.5584
     25 C5         -3.0053   -3.1223    0.3069 C.ar      1 ATP        -0.2164
     26 C6         -3.3321   -4.4178   -0.0813 C.ar      1 ATP         0.7376
     27 N6         -4.5476   -4.6866   -0.7335 N.pl3     1 ATP        -0.9514
     28 N1         -2.4608   -5.4225    0.1773 N.ar      1 ATP        -0.8054
     29 C2         -1.3053   -5.1020    0.8081 C.ar      1 ATP         0.6649
     30 N3         -0.8788   -3.8921    1.2315 N.ar      1 ATP        -0.7136
     31 C4         -1.7870   -2.9477    0.9438 C.ar      1 ATP         0.5805
     32 HOB2       -0.9663    6.4846    6.1149 H         1 ATP         0.4367
     33 HOA2       -1.9350    4.5467   -0.4001 H         1 ATP         0.4916
     34 H5'1       -1.7776    2.7841    2.1389 H         1 ATP         0.0552
     35 H5'2       -1.1659    2.0533    0.6322 H         1 ATP         0.0552
     36 H4'         0.0402    1.7079    3.4342 H         1 ATP         0.1061
     37 H3'         1.5907    1.4859    1.1353 H         1 ATP         0.0937
     38 HO3'        2.1521    0.9800    3.3017 H         1 ATP         0.4070
     39 H2'        -0.0017    0.0018    0.0005 H         1 ATP         0.0758
     40 HO2'        0.9369   -2.0558    0.0825 H         1 ATP         0.4080
     41 H1'        -0.1998   -1.6319    2.6178 H         1 ATP         0.1071
     42 H8         -3.0609    0.0200    0.8250 H         1 ATP         0.1022
     43 HN61       -5.2046   -3.9433   -0.8775 H         1 ATP         0.4336
     44 HN62       -4.7849   -5.6332   -0.9625 H         1 ATP         0.4336
     45 H2         -0.6318   -5.9307    0.9993 H         1 ATP         0.0401
@<TRIPOS>BOND
     1    1    2 2
     2    1    3 1
     3    1    4 1
     4    1    8 1
     5    5    6 2
     6    5    7 1
     7    5    8 1
     8    5   12 1
     9    7   32 1
    10    9   10 2
    11    9   11 1
    12    9   12 1
    13    9   13 1
    14   11   33 1
    15   13   14 1
    16   14   15 1
    17   14   34 1
    18   14   35 1
    19   15   16 1
    20   15   17 1
    21   15   36 1
    22   16   21 1
    23   17   18 1
    24   17   19 1
    25   17   37 1
    26   18   38 1
    27   19   20 1
    28   19   21 1
    29   19   39 1
    30   20   40 1
    31   21   22 1
    32   21   41 1
    33   22   23 ar
    34   22   31 ar
    35   23   24 ar
    36   23   42 1
    37   24   25 ar
    38   25   26 ar
    39   25   31 ar
    40   26   27 1
    41   26   28 ar
    42   27   43 1
    43   27   44 1
    44   28   29 ar
    45   29   30 ar
    46   29   45 1
    47   30   31 ar
@<TRIPOS>SUBSTRUCTURE
     1 ATP         1 GROUP 0 A     ****
@<TRIPOS>MOLECULE
[[[5-(6-aminopurin-9-yl)-3,4-dihydroxy-tetrahydrofuran-2-yl]methoxy-hydroxy-phosphoryl]oxy-hydroxy-phosphoryl] phosphate
   45    47     1     0     0
SMALL
USER_CHARGES

@<TRIPOS>ATOM
      1 PG         -5.2087    6.2211   -0.7698 P.3       1 ATP         1.3364
      2 O1G        -4.9406    6.7380   -2.1794 O.co2     1 ATP        -0.8759
      3 O2G        -6.3292    6.9497   -0.0354 O.co2     1 ATP        -0.8759
      4 O3G        -5.2750    4.7012   -0.6624 O.co2     1 ATP        -0.8759
      5 PB         -2.3041    6.1894   -0.1594 P.3       1 ATP         1.7980
      6 O1B        -1.8664    6.1545   -1.5939 O.2       1 ATP        -0.9123
      7 O2B        -1.4870    7.2203    0.7801 O.3       1 ATP        -0.7754
      8 O3B        -3.8472    6.6157    0.0707 O.3       1 ATP        -0.6996
      9 PA         -2.5519    4.3888    2.1545 P.3       1 ATP         1.7855
     10 O1A        -3.9898    4.6113    2.5237 O.2       1 ATP        -0.8495
     11 O2A        -1.4980    5.2588    3.0203 O.3       1 ATP        -0.8288
     12 O3A        -2.1930    4.7838    0.6286 O.3       1 ATP        -0.8018
     13 O5'        -2.0396    2.8622    2.3120 O.3       1 ATP        -0.5853
     14 C5'        -0.8811    2.4285    1.6206 C.3       1 ATP         0.1809
     15 C4'        -0.1994    1.3333    2.4288 C.3       1 ATP         0.1309
     16 O4'        -1.1285    0.2356    2.5840 O.3       1 ATP        -0.4224
     17 C3'         1.0324    0.7610    1.7344 C.3       1 ATP         0.0947
     18 O3'         1.9175    0.2377    2.7247 O.3       1 ATP        -0.5906
     19 C2'         0.4468   -0.3802    0.9263 C.3       1 ATP         0.0556
     20 O2'         1.3993   -1.3703    0.5961 O.3       1 ATP        -0.5838
     21 C1'        -0.6159   -0.9100    1.8769 C.3       1 ATP         0.4381
     22 N9         -1.7127   -1.6108    1.2130 N.pl3     1 ATP        -0.6883
     23 C8         -1.7712   -2.9546    0.9544 C.ar      1 ATP         0.5620
     24 N7         -2.8883   -3.2948    0.3462 N.2       1 ATP        -0.5584
     25 C5         -3.5834   -2.1202    0.2043 C.ar      1 ATP        -0.2164
     26 C6         -4.8225   -1.8251   -0.3554 C.ar      1 ATP         0.7376
     27 N6         -5.6154   -2.8394   -0.9189 N.pl3     1 ATP        -0.9514
     28 N1         -5.2589   -0.5425   -0.3507 N.ar      1 ATP        -0.8054
     29 C2         -4.4510    0.3913    0.2069 C.ar      1 ATP         0.6649
     30 N3         -3.2368    0.2296    0.7767 N.ar      1 ATP        -0.7136
     31 C4         -2.8684   -1.0596    0.7376 C.ar      1 ATP         0.5805
     32 HOB2       -1.4968    8.1754    0.5571 H         1 ATP         0.4367
     33 HOA2       -1.5568    6.2375    2.9950 H         1 ATP         0.4916
     34 H5'1       -1.1760    2.0498    0.6365 H         1 ATP         0.0552
     35 H5'2       -0.2072    3.2811    1.4873 H         1 ATP         0.0552
     36 H4'         0.0402    1.7079    3.4342 H         1 ATP         0.1061
     37 H3'         1.5907    1.4859    1.1353 H         1 ATP         0.0937
     38 HO3'        2.6839   -0.1150    2.2479 H         1 ATP         0.4070
     39 H2'        -0.0017    0.0018    0.0005 H         1 ATP         0.0758
     40 HO2'        2.0953   -0.9375    0.0709 H         1 ATP         0.4080
     41 H1'        -0.1998   -1.6319    2.6178 H         1 ATP         0.1071
     42 H8         -0.9745   -3.6312    1.2318 H         1 ATP         0.1022
     43 HN61       -5.2619   -3.7766   -0.9586 H         1 ATP         0.4336
     44 HN62       -6.4834   -2.5990   -1.3590 H         1 ATP         0.4336
     45 H2         -4.8317    1.4071    0.1930 H         1 ATP         0.0401
@<TRIPOS>BOND
     1    1    2 2
     2    1    3 1
     3    1    4 1
     4    1    8 1
     5    5    6 2
     6    5    7 1
     7    5    8 1
     8    5   12 1
     9    7   32 1
    10    9   10 2
    11    9   11 1
    12    9   12 1
    13    9   13 1
    14   11   33 1
    15   13   14 1
    16   14   15 1
    17   14   34 1
    18   14   35 1
    19   15   16 1
    20   15   17 1
    21   15   36 1
    22   16   21 1
    23   17   18 1
    24   17   19 1
    25   17   37 1
    26   18   38 1
    27   19   20 1
    28   19   21 1
    29   19   39 1
    30   20   40 1
    31   21   22 1
    32   21   41 1
    33   22   23 ar
    34   22   31 ar
    35   23   24 ar
    36   23   42 1
    37   24   25 ar
    38   25   26 ar
    39   25   31 ar
    40   26   27 1
    41   26   28 ar
    42   27   43 1
    43   27   44 1
    44   28   29 ar
    45   29   30 ar
    46   29   45 1
    47   30   31 ar
@<TRIPOS>SUBSTRUCTURE
     1 ATP         1 GROUP 0 A     ****
@<TRIPOS>MOLECULE
[[[5-(6-aminopurin-9-yl)-3,4-dihydroxy-tetrahydrofuran-2-yl]methoxy-hydroxy-phosphoryl]oxy-hydroxy-phosphoryl] phosphate
   45    47     1     0     0
SMALL
USER_CHARGES

@<TRIPOS>ATOM
      1 PG         -2.4496    8.0004   -0.6857 P.3       1 ATP         1.3364
      2 O1G        -3.8961    8.1515   -1.1450 O.co2     1 ATP        -0.8759
      3 O2G        -1.5240    9.1226   -1.1438 O.co2     1 ATP        -0.8759
      4 O3G        -2.2956    7.6230    0.7840 O.co2     1 ATP        -0.8759
      5 PB         -2.4295    5.1395   -1.4763 P.3       1 ATP         1.7980
      6 O1B        -3.9213    4.9828   -1.4486 O.2       1 ATP        -0.9123
      7 O2B        -1.6961    4.4799   -2.7568 O.3       1 ATP        -0.7754
      8 O3B        -1.9067    6.6699   -1.4924 O.3       1 ATP        -0.6996
      9 PA         -0.0712    4.4471    0.1412 P.3       1 ATP         1.7855
     10 O1A         0.5719    5.7962    0.2821 O.2       1 ATP        -0.8495
     11 O2A         0.5467    3.5334   -1.0423 O.3       1 ATP        -0.8288
     12 O3A        -1.6467    4.5003   -0.2162 O.3       1 ATP        -0.8018
     13 O5'         0.0170    3.5129    1.4592 O.3       1 ATP        -0.5853
     14 C5'        -0.8811    2.4285    1.6206 C.3       1 ATP         0.1809
     15 C4'        -0.1994    1.3333    2.4288 C.3       1 ATP         0.1309
     16 O4'        -1.1285    0.2356    2.5840 O.3       1 ATP        -0.4224
     17 C3'         1.0324    0.7610    1.7344 C.3       1 ATP         0.0947
     18 O3'         1.9175    0.2377    2.7247 O.3       1 ATP        -0.5906
     19 C2'         0.4468   -0.3802    0.9263 C.3       1 ATP         0.0556
     20 O2'         1.3993   -1.3703    0.5961 O.3       1 ATP        -0.5838
     21 C1'        -0.6159   -0.9100    1.8769 C.3       1 ATP         0.4381
     22 N9         -1.7127   -1.6108    1.2130 N.pl3     1 ATP        -0.6883
     23 C8         -2.8641   -1.0399    0.7392 C.ar      1 ATP         0.5620
     24 N7         -3.6659   -1.9257    0.1858 N.2       1 ATP        -0.5584
     25 C5         -3.0053   -3.1223    0.3069 C.ar      1 ATP        -0.2164
     26 C6         -3.3321   -4.4178   -0.0813 C.ar      1 ATP         0.7376
     27 N6         -4.5476   -4.6866   -0.7335 N.pl3     1 ATP        -0.9514
     28 N1         -2.4608   -5.4225    0.1773 N.ar      1 ATP        -0.8054
     29 C2         -1.3053   -5.1020    0.8081 C.ar      1 ATP         0.6649
     30 N3         -0.8788   -3.8921    1.2315 N.ar      1 ATP        -0.7136
     31 C4         -1.7870   -2.9477    0.9438 C.ar      1 ATP         0.5805
     32 HOB2       -1.7868    3.5154   -2.9110 H         1 ATP         0.4367
     33 HOA2        0.5107    3.8640   -1.9650 H         1 ATP         0.4916
     34 H5'1       -1.7776    2.7841    2.1389 H         1 ATP         0.0552
     35 H5'2       -1.1659    2.0533    0.6322 H         1 ATP         0.0552
     36 H4'         0.0402    1.7079    3.4342 H         1 ATP         0.1061
     37 H3'         1.5907    1.4859    1.1353 H         1 ATP         0.0937
     38 HO3'        2.6839   -0.1150    2.2479 H         1 ATP         0.4070
     39 H2'        -0.0017    0.0018    0.0005 H         1 ATP         0.0758
     40 HO2'        2.0953   -0.9375    0.0709 H         1 ATP         0.4080
     41 H1'        -0.1998   -1.6319    2.6178 H         1 ATP         0.1071
     42 H8         -3.0609    0.0200    0.8250 H         1 ATP         0.1022
     43 HN61       -5.2046   -3.9433   -0.8775 H         1 ATP         0.4336
     44 HN62       -4.7849   -5.6332   -0.9625 H         1 ATP         0.4336
     45 H2         -0.6318   -5.9307    0.9993 H         1 ATP         0.0401
@<TRIPOS>BOND
     1    1    2 2
     2    1    3 1
     3    1    4 1
     4    1    8 1
     5    5    6 2
     6    5    7 1
     7    5    8 1
     8    5   12 1
     9    7   32 1
    10    9   10 2
    11    9   11 1
    12    9   12 1
    13    9   13 1
    14   11   33 1
    15   13   14 1
    16   14   15 1
    17   14   34 1
    18   14   35 1
    19   15   16 1
    20   15   17 1
    21   15   36 1
    22   16   21 1
    23   17   18 1
    24   17   19 1
    25   17   37 1
    26   18   38 1
    27   19   20 1
    28   19   21 1
    29   19   39 1
    30   20   40 1
    31   21   22 1
    32   21   41 1
    33   22   23 ar
    34   22   31 ar
    35   23   24 ar
    36   23   42 1
    37   24   25 ar
    38   25   26 ar
    39   25   31 ar
    40   26   27 1
    41   26   28 ar
    42   27   43 1
    43   27   44 1
    44   28   29 ar
    45   29   30 ar
    46   29   45 1
    47   30   31 ar
@<TRIPOS>SUBSTRUCTURE
     1 ATP         1 GROUP 0 A     ****
@<TRIPOS>MOLECULE
[[[5-(6-aminopurin-9-yl)-3,4-dihydroxy-tetrahydrofuran-2-yl]methoxy-hydroxy-phosphoryl]oxy-hydroxy-phosphoryl] phosphate
   45    47     1     0     0
SMALL
USER_CHARGES

@<TRIPOS>ATOM
      1 PG         -3.6181    4.1641   -3.4720 P.3       1 ATP         1.3364
      2 O1G        -3.3463    2.6698   -3.6106 O.co2     1 ATP        -0.8759
      3 O2G        -2.7236    5.0486   -4.3341 O.co2     1 ATP        -0.8759
      4 O3G        -5.0961    4.5382   -3.5150 O.co2     1 ATP        -0.8759
      5 PB         -3.7077    3.9391   -0.5137 P.3       1 ATP         1.7980
      6 O1B        -5.1666    4.1722   -0.2532 O.2       1 ATP        -0.9123
      7 O2B        -3.2582    2.3867   -0.5460 O.3       1 ATP        -0.7754
      8 O3B        -3.1686    4.5145   -1.9257 O.3       1 ATP        -0.6996
      9 PA         -2.5519    4.3888    2.1545 P.3       1 ATP         1.7855
     10 O1A        -3.7885    4.7215    2.9377 O.2       1 ATP        -0.8495
     11 O2A        -1.2608    5.2879    2.5314 O.3       1 ATP        -0.8288
     12 O3A        -2.7016    4.6060    0.5597 O.3       1 ATP        -0.8018
     13 O5'        -2.0396    2.8622    2.3120 O.3       1 ATP        -0.5853
     14 C5'        -0.8811    2.4285    1.6206 C.3       1 ATP         0.1809
     15 C4'        -0.1994    1.3333    2.4288 C.3       1 ATP         0.1309
     16 O4'        -1.1285    0.2356    2.5840 O.3       1 ATP        -0.4224
     17 C3'         1.0324    0.7610    1.7344 C.3       1 ATP         0.0947
     18 O3'         1.9175    0.2377    2.7247 O.3       1 ATP        -0.5906
     19 C2'         0.4468   -0.3802    0.9263 C.3       1 ATP         0.0556
     20 O2'         1.3993   -1.3703    0.5961 O.3       1 ATP        -0.5838
     21 C1'        -0.6159   -0.9100    1.8769 C.3       1 ATP         0.4381
     22 N9         -1.7127   -1.6108    1.2130 N.pl3     1 ATP        -0.6883
     23 C8         -2.5476   -1.0844    0.2632 C.ar      1 ATP         0.5620
     24 N7         -3.4391   -1.9591   -0.1536 N.2       1 ATP        -0.5584
     25 C5         -3.1701   -3.1016    0.5574 C.ar      1 ATP        -0.2164
     26 C6         -3.7593   -4.3620    0.5656 C.ar      1 ATP         0.7376
     27 N6         -4.8512   -4.6493   -0.2712 N.pl3     1 ATP        -0.9514
     28 N1         -3.2659   -5.3144    1.3932 N.ar      1 ATP        -0.8054
     29 C2         -2.2122   -4.9785    2.1759 C.ar      1 ATP         0.6649
     30 N3         -1.5595   -3.7985    2.2572 N.ar      1 ATP        -0.7136
     31 C4         -2.0986   -2.9054    1.4140 C.ar      1 ATP         0.5805
     32 HOB2       -3.6655    1.7884   -1.2081 H         1 ATP         0.4367
     33 HOA2       -0.9207    5.2677    3.4511 H         1 ATP         0.4916
     34 H5'1       -1.1760    2.0498    0.6365 H         1 ATP         0.0552
     35 H5'2       -0.2072    3.2811    1.4873 H         1 ATP         0.0552
     36 H4'         0.0402    1.7079    3.4342 H         1 ATP         0.1061
     37 H3'         1.5907    1.4859    1.1353 H         1 ATP         0.0937
     38 HO3'        2.1521    0.9800    3.3017 H         1 ATP         0.4070
     39 H2'        -0.0017    0.0018    0.0005 H         1 ATP         0.0758
     40 HO2'        2.0953   -0.9375    0.0709 H         1 ATP         0.4080
     41 H1'        -0.1998   -1.6319    2.6178 H         1 ATP         0.1071
     42 H8         -2.4576   -0.0639   -0.0831 H         1 ATP         0.1022
     43 HN61       -5.2371   -3.9234   -0.8448 H         1 ATP         0.4336
     44 HN62       -5.2909   -5.5485   -0.2160 H         1 ATP         0.4336
     45 H2         -1.8433   -5.7650    2.8259 H         1 ATP         0.0401
@<TRIPOS>BOND
     1    1    2 2
     2    1    3 1
     3    1    4 1
     4    1    8 1
     5    5    6 2
     6    5    7 1
     7    5    8 1
     8    5   12 1
     9    7   32 1
    10    9   10 2
    11    9   11 1
    12    9   12 1
    13    9   13 1
    14   11   33 1
    15   13   14 1
    16   14   15 1
    17   14   34 1
    18   14   35 1
    19   15   16 1
    20   15   17 1
    21   15   36 1
    22   16   21 1
    23   17   18 1
    24   17   19 1
    25   17   37 1
    26   18   38 1
    27   19   20 1
    28   19   21 1
    29   19   39 1
    30   20   40 1
    31   21   22 1
    32   21   41 1
    33   22   23 ar
    34   22   31 ar
    35   23   24 ar
    36   23   42 1
    37   24   25 ar
    38   25   26 ar
    39   25   31 ar
    40   26   27 1
    41   26   28 ar
    42   27   43 1
    43   27   44 1
    44   28   29 ar
    45   29   30 ar
    46   29   45 1
    47   30   31 ar
@<TRIPOS>SUBSTRUCTURE
     1 ATP         1 GROUP 0 A     ****
@<TRIPOS>MOLECULE
[[[5-(6-aminopurin-9-yl)-3,4-dihydroxy-tetrahydrofuran-2-yl]methoxy-hydroxy-phosphoryl]oxy-hydroxy-phosphoryl] phosphate
   45    47     1     0     0
SMALL
USER_CHARGES

@<TRIPOS>ATOM
      1 PG         -2.4496    8.0004   -0.6857 P.3       1 ATP         1.3364
      2 O1G        -3.8961    8.1515   -1.1450 O.co2     1 ATP        -0.8759
      3 O2G        -1.5240    9.1226   -1.1438 O.co2     1 ATP        -0.8759
      4 O3G        -2.2956    7.6230    0.7840 O.co2     1 ATP        -0.8759
      5 PB         -2.4295    5.1395   -1.4763 P.3       1 ATP         1.7980
      6 O1B        -3.9213    4.9828   -1.4486 O.2       1 ATP        -0.9123
      7 O2B        -1.6961    4.4799   -2.7568 O.3       1 ATP        -0.7754
      8 O3B        -1.9067    6.6699   -1.4924 O.3       1 ATP        -0.6996
      9 PA         -0.0712    4.4471    0.1412 P.3       1 ATP         1.7855
     10 O1A         0.5719    5.7962    0.2821 O.2       1 ATP        -0.8495
     11 O2A         0.5467    3.5334   -1.0423 O.3       1 ATP        -0.8288
     12 O3A        -1.6467    4.5003   -0.2162 O.3       1 ATP        -0.8018
     13 O5'         0.0170    3.5129    1.4592 O.3       1 ATP        -0.5853
     14 C5'        -0.8811    2.4285    1.6206 C.3       1 ATP         0.1809
     15 C4'        -0.1994    1.3333    2.4288 C.3       1 ATP         0.1309
     16 O4'        -1.1285    0.2356    2.5840 O.3       1 ATP        -0.4224
     17 C3'         1.0324    0.7610    1.7344 C.3       1 ATP         0.0947
     18 O3'         1.9175    0.2377    2.7247 O.3       1 ATP        -0.5906
     19 C2'         0.4468   -0.3802    0.9263 C.3       1 ATP         0.0556
     20 O2'         1.3993   -1.3703    0.5961 O.3       1 ATP        -0.5838
     21 C1'        -0.6159   -0.9100    1.8769 C.3       1 ATP         0.4381
     22 N9         -1.7127   -1.6108    1.2130 N.pl3     1 ATP        -0.6883
     23 C8         -1.7712   -2.9546    0.9544 C.ar      1 ATP         0.5620
     24 N7         -2.8883   -3.2948    0.3462 N.2       1 ATP        -0.5584
     25 C5         -3.5834   -2.1202    0.2043 C.ar      1 ATP        -0.2164
     26 C6         -4.8225   -1.8251   -0.3554 C.ar      1 ATP         0.7376
     27 N6         -5.6154   -2.8394   -0.9189 N.pl3     1 ATP        -0.9514
     28 N1         -5.2589   -0.5425   -0.3507 N.ar      1 ATP        -0.8054
     29 C2         -4.4510    0.3913    0.2069 C.ar      1 ATP         0.6649
     30 N3         -3.2368    0.2296    0.7767 N.ar      1 ATP        -0.7136
     31 C4         -2.8684   -1.0596    0.7376 C.ar      1 ATP         0.5805
     32 HOB2       -1.7868    3.5154   -2.9110 H         1 ATP         0.4367
     33 HOA2        0.5107    3.8640   -1.9650 H         1 ATP         0.4916
     34 H5'1       -1.7776    2.7841    2.1389 H         1 ATP         0.0552
     35 H5'2       -1.1659    2.0533    0.6322 H         1 ATP         0.0552
     36 H4'         0.0402    1.7079    3.4342 H         1 ATP         0.1061
     37 H3'         1.5907    1.4859    1.1353 H         1 ATP         0.0937
     38 HO3'        2.6839   -0.1150    2.2479 H         1 ATP         0.4070
     39 H2'        -0.0017    0.0018    0.0005 H         1 ATP         0.0758
     40 HO2'        2.0953   -0.9375    0.0709 H         1 ATP         0.4080
     41 H1'        -0.1998   -1.6319    2.6178 H         1 ATP         0.1071
     42 H8         -0.9745   -3.6312    1.2318 H         1 ATP         0.1022
     43 HN61       -5.2619   -3.7766   -0.9586 H         1 ATP         0.4336
     44 HN62       -6.4834   -2.5990   -1.3590 H         1 ATP         0.4336
     45 H2         -4.8317    1.4071    0.1930 H         1 ATP         0.0401
@<TRIPOS>BOND
     1    1    2 2
     2    1    3 1
     3    1    4 1
     4    1    8 1
     5    5    6 2
     6    5    7 1
     7    5    8 1
     8    5   12 1
     9    7   32 1
    10    9   10 2
    11    9   11 1
    12    9   12 1
    13    9   13 1
    14   11   33 1
    15   13   14 1
    16   14   15 1
    17   14   34 1
    18   14   35 1
    19   15   16 1
    20   15   17 1
    21   15   36 1
    22   16   21 1
    23   17   18 1
    24   17   19 1
    25   17   37 1
    26   18   38 1
    27   19   20 1
    28   19   21 1
    29   19   39 1
    30   20   40 1
    31   21   22 1
    32   21   41 1
    33   22   23 ar
    34   22   31 ar
    35   23   24 ar
    36   23   42 1
    37   24   25 ar
    38   25   26 ar
    39   25   31 ar
    40   26   27 1
    41   26   28 ar
    42   27   43 1
    43   27   44 1
    44   28   29 ar
    45   29   30 ar
    46   29   45 1
    47   30   31 ar
@<TRIPOS>SUBSTRUCTURE
     1 ATP         1 GROUP 0 A     ****
@<TRIPOS>MOLECULE
[[[5-(6-aminopurin-9-yl)-3,4-dihydroxy-tetrahydrofuran-2-yl]methoxy-hydroxy-phosphoryl]oxy-hydroxy-phosphoryl] phosphate
   45    47     1     0     0
SMALL
USER_CHARGES

@<TRIPOS>ATOM
      1 PG         -3.9609    8.4861    1.9750 P.3       1 ATP         1.3364
      2 O1G        -4.7848    8.6191    3.2515 O.co2     1 ATP        -0.8759
      3 O2G        -4.7898    8.3068    0.7075 O.co2     1 ATP        -0.8759
      4 O3G        -2.8353    9.5072    1.8472 O.co2     1 ATP        -0.8759
      5 PB         -2.1281    6.5519    3.2826 P.3       1 ATP         1.7980
      6 O1B        -1.1360    7.5864    3.7255 O.2       1 ATP        -0.9123
      7 O2B        -3.0876    5.9800    4.4510 O.3       1 ATP        -0.7754
      8 O3B        -3.1714    7.0504    2.1518 O.3       1 ATP        -0.6996
      9 PA         -0.5521    5.0215    1.3252 P.3       1 ATP         1.7855
     10 O1A         0.5008    6.0787    1.1591 O.2       1 ATP        -0.8495
     11 O2A        -1.6176    4.9438    0.1104 O.3       1 ATP        -0.8288
     12 O3A        -1.4889    5.2211    2.6273 O.3       1 ATP        -0.8018
     13 O5'         0.0170    3.5129    1.4592 O.3       1 ATP        -0.5853
     14 C5'        -0.8811    2.4285    1.6206 C.3       1 ATP         0.1809
     15 C4'        -0.1994    1.3333    2.4288 C.3       1 ATP         0.1309
     16 O4'        -1.1285    0.2356    2.5840 O.3       1 ATP        -0.4224
     17 C3'         1.0324    0.7610    1.7344 C.3       1 ATP         0.0947
     18 O3'         1.9175    0.2377    2.7247 O.3       1 ATP        -0.5906
     19 C2'         0.4468   -0.3802    0.9263 C.3       1 ATP         0.0556
     20 O2'         1.3993   -1.3703    0.5961 O.3       1 ATP        -0.5838
     21 C1'        -0.6159   -0.9100    1.8769 C.3       1 ATP         0.4381
     22 N9         -1.7127   -1.6108    1.2130 N.pl3     1 ATP        -0.6883
     23 C8         -2.8641   -1.0399    0.7392 C.ar      1 ATP         0.5620
     24 N7         -3.6659   -1.9257    0.1858 N.2       1 ATP        -0.5584
     25 C5         -3.0053   -3.1223    0.3069 C.ar      1 ATP        -0.2164
     26 C6         -3.3321   -4.4178   -0.0813 C.ar      1 ATP         0.7376
     27 N6         -4.5476   -4.6866   -0.7335 N.pl3     1 ATP        -0.9514
     28 N1         -2.4608   -5.4225    0.1773 N.ar      1 ATP        -0.8054
     29 C2         -1.3053   -5.1020    0.8081 C.ar      1 ATP         0.6649
     30 N3         -0.8788   -3.8921    1.2315 N.ar      1 ATP        -0.7136
     31 C4         -1.7870   -2.9477    0.9438 C.ar      1 ATP         0.5805
     32 HOB2       -2.6802    5.5318    5.2226 H         1 ATP         0.4367
     33 HOA2       -2.1636    5.7327   -0.0931 H         1 ATP         0.4916
     34 H5'1       -1.7776    2.7841    2.1389 H         1 ATP         0.0552
     35 H5'2       -1.1659    2.0533    0.6322 H         1 ATP         0.0552
     36 H4'         0.0402    1.7079    3.4342 H         1 ATP         0.1061
     37 H3'         1.5907    1.4859    1.1353 H         1 ATP         0.0937
     38 HO3'        2.6839   -0.1150    2.2479 H         1 ATP         0.4070
     39 H2'        -0.0017    0.0018    0.0005 H         1 ATP         0.0758
     40 HO2'        0.9369   -2.0558    0.0825 H         1 ATP         0.4080
     41 H1'        -0.1998   -1.6319    2.6178 H         1 ATP         0.1071
     42 H8         -3.0609    0.0200    0.8250 H         1 ATP         0.1022
     43 HN61       -5.2046   -3.9433   -0.8775 H         1 ATP         0.4336
     44 HN62       -4.7849   -5.6332   -0.9625 H         1 ATP         0.4336
     45 H2         -0.6318   -5.9307    0.9993 H         1 ATP         0.0401
@<TRIPOS>BOND
     1    1    2 2
     2    1    3 1
     3    1    4 1
     4    1    8 1
     5    5    6 2
     6    5    7 1
     7    5    8 1
     8    5   12 1
     9    7   32 1
    10    9   10 2
    11    9   11 1
    12    9   12 1
    13    9   13 1
    14   11   33 1
    15   13   14 1
    16   14   15 1
    17   14   34 1
    18   14   35 1
    19   15   16 1
    20   15   17 1
    21   15   36 1
    22   16   21 1
    23   17   18 1
    24   17   19 1
    25   17   37 1
    26   18   38 1
    27   19   20 1
    28   19   21 1
    29   19   39 1
    30   20   40 1
    31   21   22 1
    32   21   41 1
    33   22   23 ar
    34   22   31 ar
    35   23   24 ar
    36   23   42 1
    37   24   25 ar
    38   25   26 ar
    39   25   31 ar
    40   26   27 1
    41   26   28 ar
    42   27   43 1
    43   27   44 1
    44   28   29 ar
    45   29   30 ar
    46   29   45 1
    47   30   31 ar
@<TRIPOS>SUBSTRUCTURE
     1 ATP         1 GROUP 0 A     ****
@<TRIPOS>MOLECULE
[[[5-(6-aminopurin-9-yl)-3,4-dihydroxy-tetrahydrofuran-2-yl]methoxy-hydroxy-phosphoryl]oxy-hydroxy-phosphoryl] phosphate
   45    47     1     0     0
SMALL
USER_CHARGES

@<TRIPOS>ATOM
      1 PG         -4.2713   -2.6963   -6.1950 P.3       1 ATP         1.3364
      2 O1G        -3.4992   -3.9682   -5.8599 O.co2     1 ATP        -0.8759
      3 O2G        -4.4166   -2.4241   -7.6886 O.co2     1 ATP        -0.8759
      4 O3G        -5.5594   -2.5176   -5.3983 O.co2     1 ATP        -0.8759
      5 PB         -2.7430   -1.1574   -4.1686 P.3       1 ATP         1.7980
      6 O1B        -3.8029   -0.9143   -3.1351 O.2       1 ATP        -0.9123
      7 O2B        -1.7593   -2.4024   -3.8598 O.3       1 ATP        -0.7754
      8 O3B        -3.3010   -1.4801   -5.6520 O.3       1 ATP        -0.6996
      9 PA         -1.9948    1.6690   -4.4986 P.3       1 ATP         1.7855
     10 O1A        -3.2539    2.0474   -5.2233 O.2       1 ATP        -0.8495
     11 O2A        -0.6391    2.2364   -5.1747 O.3       1 ATP        -0.8288
     12 O3A        -1.7310    0.0761   -4.4202 O.3       1 ATP        -0.8018
     13 O5'        -1.9197    2.1711   -2.9623 O.3       1 ATP        -0.5853
     14 C5'        -0.7794    1.8744   -2.1748 C.3       1 ATP         0.1809
     15 C4'        -0.9699    2.4597   -0.7819 C.3       1 ATP         0.1309
     16 O4'        -2.1475    1.8640   -0.2014 O.3       1 ATP        -0.4224
     17 C3'         0.1697    2.1347    0.1695 C.3       1 ATP         0.0947
     18 O3'         0.1809    3.0982    1.2223 O.3       1 ATP        -0.5906
     19 C2'        -0.2543    0.7880    0.7187 C.3       1 ATP         0.0556
     20 O2'         0.3606    0.4944    1.9582 O.3       1 ATP        -0.5838
     21 C1'        -1.7682    0.9516    0.8548 C.3       1 ATP         0.4381
     22 N9         -2.5926   -0.2553    0.7436 N.pl3     1 ATP        -0.6883
     23 C8         -2.6464   -1.0979   -0.3350 C.ar      1 ATP         0.5620
     24 N7         -3.4765   -2.1012   -0.1400 N.2       1 ATP        -0.5584
     25 C5         -3.9826   -1.8994    1.1194 C.ar      1 ATP        -0.2164
     26 C6         -4.8981   -2.6116    1.8877 C.ar      1 ATP         0.7376
     27 N6         -5.4931   -3.7842    1.3916 N.pl3     1 ATP        -0.9514
     28 N1         -5.2111   -2.1602    3.1262 N.ar      1 ATP        -0.8054
     29 C2         -4.6051   -1.0248    3.5500 C.ar      1 ATP         0.6649
     30 N3         -3.7075   -0.2510    2.9016 N.ar      1 ATP        -0.7136
     31 C4         -3.4448   -0.7551    1.6866 C.ar      1 ATP         0.5805
     32 HOB2       -2.1440   -3.3002   -3.7700 H         1 ATP         0.4367
     33 HOA2       -0.4214    1.9736   -6.0942 H         1 ATP         0.4916
     34 H5'1       -0.6593    0.7875   -2.1194 H         1 ATP         0.0552
     35 H5'2        0.1051    2.3070   -2.6536 H         1 ATP         0.0552
     36 H4'        -1.1468    3.5409   -0.8523 H         1 ATP         0.1061
     37 H3'         1.1601    2.1310   -0.2934 H         1 ATP         0.0937
     38 HO3'        0.3098    3.9616    0.8017 H         1 ATP         0.4070
     39 H2'        -0.0024   -0.0091    0.0062 H         1 ATP         0.0758
     40 HO2'        0.0384   -0.3797    2.2403 H         1 ATP         0.4080
     41 H1'        -2.0584    1.4255    1.8301 H         1 ATP         0.1071
     42 H8         -2.0609   -0.9301   -1.2286 H         1 ATP         0.1022
     43 HN61       -5.2894   -4.0827    0.4566 H         1 ATP         0.4336
     44 HN62       -6.1852   -4.2564    1.9420 H         1 ATP         0.4336
     45 H2         -4.8793   -0.6924    4.5457 H         1 ATP         0.0401
@<TRIPOS>BOND
     1    1    2 2
     2    1    3 1
     3    1    4 1
     4    1    8 1
     5    5    6 2
     6    5    7 1
     7    5    8 1
     8    5   12 1
     9    7   32 1
    10    9   10 2
    11    9   11 1
    12    9   12 1
    13    9   13 1
    14   11   33 1
    15   13   14 1
    16   14   15 1
    17   14   34 1
    18   14   35 1
    19   15   16 1
    20   15   17 1
    21   15   36 1
    22   16   21 1
    23   17   18 1
    24   17   19 1
    25   17   37 1
    26   18   38 1
    27   19   20 1
    28   19   21 1
    29   19   39 1
    30   20   40 1
    31   21   22 1
    32   21   41 1
    33   22   23 ar
    34   22   31 ar
    35   23   24 ar
    36   23   42 1
    37   24   25 ar
    38   25   26 ar
    39   25   31 ar
    40   26   27 1
    41   26   28 ar
    42   27   43 1
    43   27   44 1
    44   28   29 ar
    45   29   30 ar
    46   29   45 1
    47   30   31 ar
@<TRIPOS>SUBSTRUCTURE
     1 ATP         1 GROUP 0 A     ****
@<TRIPOS>MOLECULE
[[[5-(6-aminopurin-9-yl)-3,4-dihydroxy-tetrahydrofuran-2-yl]methoxy-hydroxy-phosphoryl]oxy-hydroxy-phosphoryl] phosphate
   45    47     1     0     0
SMALL
USER_CHARGES

@<TRIPOS>ATOM
      1 PG         -1.9306    7.8568    5.0576 P.3       1 ATP         1.3364
      2 O1G        -0.7543    8.8275    5.0716 O.co2     1 ATP        -0.8759
      3 O2G        -2.8241    7.9338    6.2912 O.co2     1 ATP        -0.8759
      4 O3G        -2.6909    7.8136    3.7362 O.co2     1 ATP        -0.8759
      5 PB         -0.1702    5.6350    4.1774 P.3       1 ATP         1.7980
      6 O1B         1.1344    6.3552    4.0045 O.2       1 ATP        -0.9123
      7 O2B        -0.0534    4.1482    4.8009 O.3       1 ATP        -0.7754
      8 O3B        -1.2279    6.3694    5.1560 O.3       1 ATP        -0.6996
      9 PA         -0.5521    5.0215    1.3252 P.3       1 ATP         1.7855
     10 O1A         0.4009    6.0005    0.7030 O.2       1 ATP        -0.8495
     11 O2A        -1.9515    4.8552    0.5308 O.3       1 ATP        -0.8288
     12 O3A        -1.0201    5.4152    2.8215 O.3       1 ATP        -0.8018
     13 O5'         0.0170    3.5129    1.4592 O.3       1 ATP        -0.5853
     14 C5'        -0.8811    2.4285    1.6206 C.3       1 ATP         0.1809
     15 C4'        -0.1994    1.3333    2.4288 C.3       1 ATP         0.1309
     16 O4'        -1.1285    0.2356    2.5840 O.3       1 ATP        -0.4224
     17 C3'         1.0324    0.7610    1.7344 C.3       1 ATP         0.0947
     18 O3'         1.9175    0.2377    2.7247 O.3       1 ATP        -0.5906
     19 C2'         0.4468   -0.3802    0.9263 C.3       1 ATP         0.0556
     20 O2'         1.3993   -1.3703    0.5961 O.3       1 ATP        -0.5838
     21 C1'        -0.6159   -0.9100    1.8769 C.3       1 ATP         0.4381
     22 N9         -1.7127   -1.6108    1.2130 N.pl3     1 ATP        -0.6883
     23 C8         -2.8641   -1.0399    0.7392 C.ar      1 ATP         0.5620
     24 N7         -3.6659   -1.9257    0.1858 N.2       1 ATP        -0.5584
     25 C5         -3.0053   -3.1223    0.3069 C.ar      1 ATP        -0.2164
     26 C6         -3.3321   -4.4178   -0.0813 C.ar      1 ATP         0.7376
     27 N6         -4.5476   -4.6866   -0.7335 N.pl3     1 ATP        -0.9514
     28 N1         -2.4608   -5.4225    0.1773 N.ar      1 ATP        -0.8054
     29 C2         -1.3053   -5.1020    0.8081 C.ar      1 ATP         0.6649
     30 N3         -0.8788   -3.8921    1.2315 N.ar      1 ATP        -0.7136
     31 C4         -1.7870   -2.9477    0.9438 C.ar      1 ATP         0.5805
     32 HOB2        0.4724    3.4728    4.3219 H         1 ATP         0.4367
     33 HOA2       -1.9350    4.5467   -0.4001 H         1 ATP         0.4916
     34 H5'1       -1.7776    2.7841    2.1389 H         1 ATP         0.0552
     35 H5'2       -1.1659    2.0533    0.6322 H         1 ATP         0.0552
     36 H4'         0.0402    1.7079    3.4342 H         1 ATP         0.1061
     37 H3'         1.5907    1.4859    1.1353 H         1 ATP         0.0937
     38 HO3'        2.6839   -0.1150    2.2479 H         1 ATP         0.4070
     39 H2'        -0.0017    0.0018    0.0005 H         1 ATP         0.0758
     40 HO2'        2.0953   -0.9375    0.0709 H         1 ATP         0.4080
     41 H1'        -0.1998   -1.6319    2.6178 H         1 ATP         0.1071
     42 H8         -3.0609    0.0200    0.8250 H         1 ATP         0.1022
     43 HN61       -5.2046   -3.9433   -0.8775 H         1 ATP         0.4336
     44 HN62       -4.7849   -5.6332   -0.9625 H         1 ATP         0.4336
     45 H2         -0.6318   -5.9307    0.9993 H         1 ATP         0.0401
@<TRIPOS>BOND
     1    1    2 2
     2    1    3 1
     3    1    4 1
     4    1    8 1
     5    5    6 2
     6    5    7 1
     7    5    8 1
     8    5   12 1
     9    7   32 1
    10    9   10 2
    11    9   11 1
    12    9   12 1
    13    9   13 1
    14   11   33 1
    15   13   14 1
    16   14   15 1
    17   14   34 1
    18   14   35 1
    19   15   16 1
    20   15   17 1
    21   15   36 1
    22   16   21 1
    23   17   18 1
    24   17   19 1
    25   17   37 1
    26   18   38 1
    27   19   20 1
    28   19   21 1
    29   19   39 1
    30   20   40 1
    31   21   22 1
    32   21   41 1
    33   22   23 ar
    34   22   31 ar
    35   23   24 ar
    36   23   42 1
    37   24   25 ar
    38   25   26 ar
    39   25   31 ar
    40   26   27 1
    41   26   28 ar
    42   27   43 1
    43   27   44 1
    44   28   29 ar
    45   29   30 ar
    46   29   45 1
    47   30   31 ar
@<TRIPOS>SUBSTRUCTURE
     1 ATP         1 GROUP 0 A     ****
@<TRIPOS>MOLECULE
[[[5-(6-aminopurin-9-yl)-3,4-dihydroxy-tetrahydrofuran-2-yl]methoxy-hydroxy-phosphoryl]oxy-hydroxy-phosphoryl] phosphate
   45    47     1     0     0
SMALL
USER_CHARGES

@<TRIPOS>ATOM
      1 PG         -6.5327    5.3078    1.9931 P.3       1 ATP         1.3364
      2 O1G        -5.3017    6.1498    1.6746 O.co2     1 ATP        -0.8759
      3 O2G        -7.2805    5.7379    3.2507 O.co2     1 ATP        -0.8759
      4 O3G        -7.4328    5.0355    0.7924 O.co2     1 ATP        -0.8759
      5 PB         -5.0250    2.7995    1.4976 P.3       1 ATP         1.7980
      6 O1B        -4.6580    1.5263    2.2011 O.2       1 ATP        -0.9123
      7 O2B        -5.8867    2.6088    0.1434 O.3       1 ATP        -0.7754
      8 O3B        -5.9209    3.8248    2.3704 O.3       1 ATP        -0.6996
      9 PA         -2.5921    4.4092    1.8820 P.3       1 ATP         1.7855
     10 O1A        -3.0718    5.3918    2.9106 O.2       1 ATP        -0.8495
     11 O2A        -1.6420    5.0490    0.7396 O.3       1 ATP        -0.8288
     12 O3A        -3.7768    3.7125    1.0310 O.3       1 ATP        -0.8018
     13 O5'        -1.7334    3.1724    2.4742 O.3       1 ATP        -0.5853
     14 C5'        -0.8811    2.4285    1.6206 C.3       1 ATP         0.1809
     15 C4'        -0.1994    1.3333    2.4288 C.3       1 ATP         0.1309
     16 O4'        -1.1285    0.2356    2.5840 O.3       1 ATP        -0.4224
     17 C3'         1.0324    0.7610    1.7344 C.3       1 ATP         0.0947
     18 O3'         1.9175    0.2377    2.7247 O.3       1 ATP        -0.5906
     19 C2'         0.4468   -0.3802    0.9263 C.3       1 ATP         0.0556
     20 O2'         1.3993   -1.3703    0.5961 O.3       1 ATP        -0.5838
     21 C1'        -0.6159   -0.9100    1.8769 C.3       1 ATP         0.4381
     22 N9         -1.7127   -1.6108    1.2130 N.pl3     1 ATP        -0.6883
     23 C8         -2.8641   -1.0399    0.7392 C.ar      1 ATP         0.5620
     24 N7         -3.6659   -1.9257    0.1858 N.2       1 ATP        -0.5584
     25 C5         -3.0053   -3.1223    0.3069 C.ar      1 ATP        -0.2164
     26 C6         -3.3321   -4.4178   -0.0813 C.ar      1 ATP         0.7376
     27 N6         -4.5476   -4.6866   -0.7335 N.pl3     1 ATP        -0.9514
     28 N1         -2.4608   -5.4225    0.1773 N.ar      1 ATP        -0.8054
     29 C2         -1.3053   -5.1020    0.8081 C.ar      1 ATP         0.6649
     30 N3         -0.8788   -3.8921    1.2315 N.ar      1 ATP        -0.7136
     31 C4         -1.7870   -2.9477    0.9438 C.ar      1 ATP         0.5805
     32 HOB2       -6.1577    3.4042   -0.3626 H         1 ATP         0.4367
     33 HOA2       -0.8013    5.4777    1.0069 H         1 ATP         0.4916
     34 H5'1       -1.4794    1.9921    0.8142 H         1 ATP         0.0552
     35 H5'2       -0.1361    3.1034    1.1867 H         1 ATP         0.0552
     36 H4'         0.0402    1.7079    3.4342 H         1 ATP         0.1061
     37 H3'         1.5907    1.4859    1.1353 H         1 ATP         0.0937
     38 HO3'        2.6839   -0.1150    2.2479 H         1 ATP         0.4070
     39 H2'        -0.0017    0.0018    0.0005 H         1 ATP         0.0758
     40 HO2'        0.9369   -2.0558    0.0825 H         1 ATP         0.4080
     41 H1'        -0.1998   -1.6319    2.6178 H         1 ATP         0.1071
     42 H8         -3.0609    0.0200    0.8250 H         1 ATP         0.1022
     43 HN61       -5.2046   -3.9433   -0.8775 H         1 ATP         0.4336
     44 HN62       -4.7849   -5.6332   -0.9625 H         1 ATP         0.4336
     45 H2         -0.6318   -5.9307    0.9993 H         1 ATP         0.0401
@<TRIPOS>BOND
     1    1    2 2
     2    1    3 1
     3    1    4 1
     4    1    8 1
     5    5    6 2
     6    5    7 1
     7    5    8 1
     8    5   12 1
     9    7   32 1
    10    9   10 2
    11    9   11 1
    12    9   12 1
    13    9   13 1
    14   11   33 1
    15   13   14 1
    16   14   15 1
    17   14   34 1
    18   14   35 1
    19   15   16 1
    20   15   17 1
    21   15   36 1
    22   16   21 1
    23   17   18 1
    24   17   19 1
    25   17   37 1
    26   18   38 1
    27   19   20 1
    28   19   21 1
    29   19   39 1
    30   20   40 1
    31   21   22 1
    32   21   41 1
    33   22   23 ar
    34   22   31 ar
    35   23   24 ar
    36   23   42 1
    37   24   25 ar
    38   25   26 ar
    39   25   31 ar
    40   26   27 1
    41   26   28 ar
    42   27   43 1
    43   27   44 1
    44   28   29 ar
    45   29   30 ar
    46   29   45 1
    47   30   31 ar
@<TRIPOS>SUBSTRUCTURE
     1 ATP         1 GROUP 0 A     ****
@<TRIPOS>MOLECULE
[[[5-(6-aminopurin-9-yl)-3,4-dihydroxy-tetrahydrofuran-2-yl]methoxy-hydroxy-phosphoryl]oxy-hydroxy-phosphoryl] phosphate
   45    47     1     0     0
SMALL
USER_CHARGES

@<TRIPOS>ATOM
      1 PG         -5.4424    1.7568   -0.7287 P.3       1 ATP         1.3364
      2 O1G        -6.7227    2.4285   -0.2434 O.co2     1 ATP        -0.8759
      3 O2G        -5.1614    0.4017   -0.0878 O.co2     1 ATP        -0.8759
      4 O3G        -5.2561    1.7838   -2.2422 O.co2     1 ATP        -0.8759
      5 PB         -3.9273    4.2934   -0.4448 P.3       1 ATP         1.7980
      6 O1B        -3.6799    4.6412   -1.8831 O.2       1 ATP        -0.9123
      7 O2B        -5.1825    5.0510    0.2359 O.3       1 ATP        -0.7754
      8 O3B        -4.2375    2.7307   -0.1667 O.3       1 ATP        -0.6996
      9 PA         -2.5519    4.3888    2.1545 P.3       1 ATP         1.7855
     10 O1A        -3.7885    4.7215    2.9377 O.2       1 ATP        -0.8495
     11 O2A        -1.2608    5.2879    2.5314 O.3       1 ATP        -0.8288
     12 O3A        -2.7016    4.6060    0.5597 O.3       1 ATP        -0.8018
     13 O5'        -2.0396    2.8622    2.3120 O.3       1 ATP        -0.5853
     14 C5'        -0.8811    2.4285    1.6206 C.3       1 ATP         0.1809
     15 C4'        -0.1994    1.3333    2.4288 C.3       1 ATP         0.1309
     16 O4'        -1.1285    0.2356    2.5840 O.3       1 ATP        -0.4224
     17 C3'         1.0324    0.7610    1.7344 C.3       1 ATP         0.0947
     18 O3'         1.9175    0.2377    2.7247 O.3       1 ATP        -0.5906
     19 C2'         0.4468   -0.3802    0.9263 C.3       1 ATP         0.0556
     20 O2'         1.3993   -1.3703    0.5961 O.3       1 ATP        -0.5838
     21 C1'        -0.6159   -0.9100    1.8769 C.3       1 ATP         0.4381
     22 N9         -1.7127   -1.6108    1.2130 N.pl3     1 ATP        -0.6883
     23 C8         -2.8641   -1.0399    0.7392 C.ar      1 ATP         0.5620
     24 N7         -3.6659   -1.9257    0.1858 N.2       1 ATP        -0.5584
     25 C5         -3.0053   -3.1223    0.3069 C.ar      1 ATP        -0.2164
     26 C6         -3.3321   -4.4178   -0.0813 C.ar      1 ATP         0.7376
     27 N6         -4.5476   -4.6866   -0.7335 N.pl3     1 ATP        -0.9514
     28 N1         -2.4608   -5.4225    0.1773 N.ar      1 ATP        -0.8054
     29 C2         -1.3053   -5.1020    0.8081 C.ar      1 ATP         0.6649
     30 N3         -0.8788   -3.8921    1.2315 N.ar      1 ATP        -0.7136
     31 C4         -1.7870   -2.9477    0.9438 C.ar      1 ATP         0.5805
     32 HOB2       -6.0773    4.9234   -0.1452 H         1 ATP         0.4367
     33 HOA2       -1.3097    6.2606    2.4151 H         1 ATP         0.4916
     34 H5'1       -1.1760    2.0498    0.6365 H         1 ATP         0.0552
     35 H5'2       -0.2072    3.2811    1.4873 H         1 ATP         0.0552
     36 H4'         0.0402    1.7079    3.4342 H         1 ATP         0.1061
     37 H3'         1.5907    1.4859    1.1353 H         1 ATP         0.0937
     38 HO3'        2.1521    0.9800    3.3017 H         1 ATP         0.4070
     39 H2'        -0.0017    0.0018    0.0005 H         1 ATP         0.0758
     40 HO2'        0.9369   -2.0558    0.0825 H         1 ATP         0.4080
     41 H1'        -0.1998   -1.6319    2.6178 H         1 ATP         0.1071
     42 H8         -3.0609    0.0200    0.8250 H         1 ATP         0.1022
     43 HN61       -5.2046   -3.9433   -0.8775 H         1 ATP         0.4336
     44 HN62       -4.7849   -5.6332   -0.9625 H         1 ATP         0.4336
     45 H2         -0.6318   -5.9307    0.9993 H         1 ATP         0.0401
@<TRIPOS>BOND
     1    1    2 2
     2    1    3 1
     3    1    4 1
     4    1    8 1
     5    5    6 2
     6    5    7 1
     7    5    8 1
     8    5   12 1
     9    7   32 1
    10    9   10 2
    11    9   11 1
    12    9   12 1
    13    9   13 1
    14   11   33 1
    15   13   14 1
    16   14   15 1
    17   14   34 1
    18   14   35 1
    19   15   16 1
    20   15   17 1
    21   15   36 1
    22   16   21 1
    23   17   18 1
    24   17   19 1
    25   17   37 1
    26   18   38 1
    27   19   20 1
    28   19   21 1
    29   19   39 1
    30   20   40 1
    31   21   22 1
    32   21   41 1
    33   22   23 ar
    34   22   31 ar
    35   23   24 ar
    36   23   42 1
    37   24   25 ar
    38   25   26 ar
    39   25   31 ar
    40   26   27 1
    41   26   28 ar
    42   27   43 1
    43   27   44 1
    44   28   29 ar
    45   29   30 ar
    46   29   45 1
    47   30   31 ar
@<TRIPOS>SUBSTRUCTURE
     1 ATP         1 GROUP 0 A     ****
@<TRIPOS>MOLECULE
[[[5-(6-aminopurin-9-yl)-3,4-dihydroxy-tetrahydrofuran-2-yl]methoxy-hydroxy-phosphoryl]oxy-hydroxy-phosphoryl] phosphate
   45    47     1     0     0
SMALL
USER_CHARGES

@<TRIPOS>ATOM
      1 PG         -1.8942    5.0159   -2.0541 P.3       1 ATP         1.3364
      2 O1G        -1.0142    4.4744   -0.9323 O.co2     1 ATP        -0.8759
      3 O2G        -1.4144    6.3361   -2.6479 O.co2     1 ATP        -0.8759
      4 O3G        -2.2983    3.9735   -3.0914 O.co2     1 ATP        -0.8759
      5 PB         -4.3496    4.4743   -0.4769 P.3       1 ATP         1.7980
      6 O1B        -5.5483    5.1989    0.0604 O.2       1 ATP        -0.9123
      7 O2B        -4.6815    3.2697   -1.5024 O.3       1 ATP        -0.7754
      8 O3B        -3.3124    5.3972   -1.3064 O.3       1 ATP        -0.6996
      9 PA         -2.5921    4.4092    1.8820 P.3       1 ATP         1.7855
     10 O1A        -3.4549    5.1148    2.8877 O.2       1 ATP        -0.8495
     11 O2A        -1.4936    5.3553    1.1641 O.3       1 ATP        -0.8288
     12 O3A        -3.4087    3.7795    0.6372 O.3       1 ATP        -0.8018
     13 O5'        -1.7334    3.1724    2.4742 O.3       1 ATP        -0.5853
     14 C5'        -0.8811    2.4285    1.6206 C.3       1 ATP         0.1809
     15 C4'        -0.1994    1.3333    2.4288 C.3       1 ATP         0.1309
     16 O4'        -1.1285    0.2356    2.5840 O.3       1 ATP        -0.4224
     17 C3'         1.0324    0.7610    1.7344 C.3       1 ATP         0.0947
     18 O3'         1.9175    0.2377    2.7247 O.3       1 ATP        -0.5906
     19 C2'         0.4468   -0.3802    0.9263 C.3       1 ATP         0.0556
     20 O2'         1.3993   -1.3703    0.5961 O.3       1 ATP        -0.5838
     21 C1'        -0.6159   -0.9100    1.8769 C.3       1 ATP         0.4381
     22 N9         -1.7127   -1.6108    1.2130 N.pl3     1 ATP        -0.6883
     23 C8         -2.8641   -1.0399    0.7392 C.ar      1 ATP         0.5620
     24 N7         -3.6659   -1.9257    0.1858 N.2       1 ATP        -0.5584
     25 C5         -3.0053   -3.1223    0.3069 C.ar      1 ATP        -0.2164
     26 C6         -3.3321   -4.4178   -0.0813 C.ar      1 ATP         0.7376
     27 N6         -4.5476   -4.6866   -0.7335 N.pl3     1 ATP        -0.9514
     28 N1         -2.4608   -5.4225    0.1773 N.ar      1 ATP        -0.8054
     29 C2         -1.3053   -5.1020    0.8081 C.ar      1 ATP         0.6649
     30 N3         -0.8788   -3.8921    1.2315 N.ar      1 ATP        -0.7136
     31 C4         -1.7870   -2.9477    0.9438 C.ar      1 ATP         0.5805
     32 HOB2       -3.9396    2.7571   -1.8885 H         1 ATP         0.4367
     33 HOA2       -1.8001    6.1311    0.6482 H         1 ATP         0.4916
     34 H5'1       -1.4794    1.9921    0.8142 H         1 ATP         0.0552
     35 H5'2       -0.1361    3.1034    1.1867 H         1 ATP         0.0552
     36 H4'         0.0402    1.7079    3.4342 H         1 ATP         0.1061
     37 H3'         1.5907    1.4859    1.1353 H         1 ATP         0.0937
     38 HO3'        2.1521    0.9800    3.3017 H         1 ATP         0.4070
     39 H2'        -0.0017    0.0018    0.0005 H         1 ATP         0.0758
     40 HO2'        2.0953   -0.9375    0.0709 H         1 ATP         0.4080
     41 H1'        -0.1998   -1.6319    2.6178 H         1 ATP         0.1071
     42 H8         -3.0609    0.0200    0.8250 H         1 ATP         0.1022
     43 HN61       -5.2046   -3.9433   -0.8775 H         1 ATP         0.4336
     44 HN62       -4.7849   -5.6332   -0.9625 H         1 ATP         0.4336
     45 H2         -0.6318   -5.9307    0.9993 H         1 ATP         0.0401
@<TRIPOS>BOND
     1    1    2 2
     2    1    3 1
     3    1    4 1
     4    1    8 1
     5    5    6 2
     6    5    7 1
     7    5    8 1
     8    5   12 1
     9    7   32 1
    10    9   10 2
    11    9   11 1
    12    9   12 1
    13    9   13 1
    14   11   33 1
    15   13   14 1
    16   14   15 1
    17   14   34 1
    18   14   35 1
    19   15   16 1
    20   15   17 1
    21   15   36 1
    22   16   21 1
    23   17   18 1
    24   17   19 1
    25   17   37 1
    26   18   38 1
    27   19   20 1
    28   19   21 1
    29   19   39 1
    30   20   40 1
    31   21   22 1
    32   21   41 1
    33   22   23 ar
    34   22   31 ar
    35   23   24 ar
    36   23   42 1
    37   24   25 ar
    38   25   26 ar
    39   25   31 ar
    40   26   27 1
    41   26   28 ar
    42   27   43 1
    43   27   44 1
    44   28   29 ar
    45   29   30 ar
    46   29   45 1
    47   30   31 ar
@<TRIPOS>SUBSTRUCTURE
     1 ATP         1 GROUP 0 A     ****
@<TRIPOS>MOLECULE
[[[5-(6-aminopurin-9-yl)-3,4-dihydroxy-tetrahydrofuran-2-yl]methoxy-hydroxy-phosphoryl]oxy-hydroxy-phosphoryl] phosphate
   45    47     1     0     0
SMALL
USER_CHARGES

@<TRIPOS>ATOM
      1 PG         -0.9766    6.2878   -1.0142 P.3       1 ATP         1.3364
      2 O1G        -0.5132    5.5354    0.2289 O.co2     1 ATP        -0.8759
      3 O2G        -0.8291    7.8031   -0.9235 O.co2     1 ATP        -0.8759
      4 O3G        -0.4852    5.6889   -2.3280 O.co2     1 ATP        -0.8759
      5 PB         -3.4617    4.6701   -1.1459 P.3       1 ATP         1.7980
      6 O1B        -4.9502    4.8570   -1.1573 O.2       1 ATP        -0.9123
      7 O2B        -2.8545    3.9364   -2.4520 O.3       1 ATP        -0.7754
      8 O3B        -2.6051    6.0389   -1.0531 O.3       1 ATP        -0.6996
      9 PA         -2.9684    4.0281    1.6828 P.3       1 ATP         1.7855
     10 O1A        -4.3674    4.0793    2.2248 O.2       1 ATP        -0.8495
     11 O2A        -2.1165    5.3854    1.9045 O.3       1 ATP        -0.8288
     12 O3A        -2.8870    3.7964    0.0851 O.3       1 ATP        -0.8018
     13 O5'        -2.0396    2.8622    2.3120 O.3       1 ATP        -0.5853
     14 C5'        -0.8811    2.4285    1.6206 C.3       1 ATP         0.1809
     15 C4'        -0.1994    1.3333    2.4288 C.3       1 ATP         0.1309
     16 O4'        -1.1285    0.2356    2.5840 O.3       1 ATP        -0.4224
     17 C3'         1.0324    0.7610    1.7344 C.3       1 ATP         0.0947
     18 O3'         1.9175    0.2377    2.7247 O.3       1 ATP        -0.5906
     19 C2'         0.4468   -0.3802    0.9263 C.3       1 ATP         0.0556
     20 O2'         1.3993   -1.3703    0.5961 O.3       1 ATP        -0.5838
     21 C1'        -0.6159   -0.9100    1.8769 C.3       1 ATP         0.4381
     22 N9         -1.7127   -1.6108    1.2130 N.pl3     1 ATP        -0.6883
     23 C8         -1.7712   -2.9546    0.9544 C.ar      1 ATP         0.5620
     24 N7         -2.8883   -3.2948    0.3462 N.2       1 ATP        -0.5584
     25 C5         -3.5834   -2.1202    0.2043 C.ar      1 ATP        -0.2164
     26 C6         -4.8225   -1.8251   -0.3554 C.ar      1 ATP         0.7376
     27 N6         -5.6154   -2.8394   -0.9189 N.pl3     1 ATP        -0.9514
     28 N1         -5.2589   -0.5425   -0.3507 N.ar      1 ATP        -0.8054
     29 C2         -4.4510    0.3913    0.2069 C.ar      1 ATP         0.6649
     30 N3         -3.2368    0.2296    0.7767 N.ar      1 ATP        -0.7136
     31 C4         -2.8684   -1.0596    0.7376 C.ar      1 ATP         0.5805
     32 HOB2       -1.8867    3.7850   -2.5043 H         1 ATP         0.4367
     33 HOA2       -2.4468    6.2221    1.5135 H         1 ATP         0.4916
     34 H5'1       -1.1760    2.0498    0.6365 H         1 ATP         0.0552
     35 H5'2       -0.2072    3.2811    1.4873 H         1 ATP         0.0552
     36 H4'         0.0402    1.7079    3.4342 H         1 ATP         0.1061
     37 H3'         1.5907    1.4859    1.1353 H         1 ATP         0.0937
     38 HO3'        2.1521    0.9800    3.3017 H         1 ATP         0.4070
     39 H2'        -0.0017    0.0018    0.0005 H         1 ATP         0.0758
     40 HO2'        2.0953   -0.9375    0.0709 H         1 ATP         0.4080
     41 H1'        -0.1998   -1.6319    2.6178 H         1 ATP         0.1071
     42 H8         -0.9745   -3.6312    1.2318 H         1 ATP         0.1022
     43 HN61       -5.2619   -3.7766   -0.9586 H         1 ATP         0.4336
     44 HN62       -6.4834   -2.5990   -1.3590 H         1 ATP         0.4336
     45 H2         -4.8317    1.4071    0.1930 H         1 ATP         0.0401
@<TRIPOS>BOND
     1    1    2 2
     2    1    3 1
     3    1    4 1
     4    1    8 1
     5    5    6 2
     6    5    7 1
     7    5    8 1
     8    5   12 1
     9    7   32 1
    10    9   10 2
    11    9   11 1
    12    9   12 1
    13    9   13 1
    14   11   33 1
    15   13   14 1
    16   14   15 1
    17   14   34 1
    18   14   35 1
    19   15   16 1
    20   15   17 1
    21   15   36 1
    22   16   21 1
    23   17   18 1
    24   17   19 1
    25   17   37 1
    26   18   38 1
    27   19   20 1
    28   19   21 1
    29   19   39 1
    30   20   40 1
    31   21   22 1
    32   21   41 1
    33   22   23 ar
    34   22   31 ar
    35   23   24 ar
    36   23   42 1
    37   24   25 ar
    38   25   26 ar
    39   25   31 ar
    40   26   27 1
    41   26   28 ar
    42   27   43 1
    43   27   44 1
    44   28   29 ar
    45   29   30 ar
    46   29   45 1
    47   30   31 ar
@<TRIPOS>SUBSTRUCTURE
     1 ATP         1 GROUP 0 A     ****
@<TRIPOS>MOLECULE
[[[5-(6-aminopurin-9-yl)-3,4-dihydroxy-tetrahydrofuran-2-yl]methoxy-hydroxy-phosphoryl]oxy-hydroxy-phosphoryl] phosphate
   45    47     1     0     0
SMALL
USER_CHARGES

@<TRIPOS>ATOM
      1 PG         -6.8170    4.0052   -0.5383 P.3       1 ATP         1.3364
      2 O1G        -7.7657    4.5065    0.5454 O.co2     1 ATP        -0.8759
      3 O2G        -7.5098    3.3307   -1.7177 O.co2     1 ATP        -0.8759
      4 O3G        -5.7364    5.0053   -0.9360 O.co2     1 ATP        -0.8759
      5 PB         -5.0250    2.7995    1.4976 P.3       1 ATP         1.7980
      6 O1B        -5.6978    3.2362    2.7654 O.2       1 ATP        -0.9123
      7 O2B        -4.4141    1.3032    1.5279 O.3       1 ATP        -0.7754
      8 O3B        -5.9778    2.7887    0.1909 O.3       1 ATP        -0.6996
      9 PA         -2.5921    4.4092    1.8820 P.3       1 ATP         1.7855
     10 O1A        -3.0718    5.3918    2.9106 O.2       1 ATP        -0.8495
     11 O2A        -1.6420    5.0490    0.7396 O.3       1 ATP        -0.8288
     12 O3A        -3.7768    3.7125    1.0310 O.3       1 ATP        -0.8018
     13 O5'        -1.7334    3.1724    2.4742 O.3       1 ATP        -0.5853
     14 C5'        -0.8811    2.4285    1.6206 C.3       1 ATP         0.1809
     15 C4'        -0.1994    1.3333    2.4288 C.3       1 ATP         0.1309
     16 O4'        -1.1285    0.2356    2.5840 O.3       1 ATP        -0.4224
     17 C3'         1.0324    0.7610    1.7344 C.3       1 ATP         0.0947
     18 O3'         1.9175    0.2377    2.7247 O.3       1 ATP        -0.5906
     19 C2'         0.4468   -0.3802    0.9263 C.3       1 ATP         0.0556
     20 O2'         1.3993   -1.3703    0.5961 O.3       1 ATP        -0.5838
     21 C1'        -0.6159   -0.9100    1.8769 C.3       1 ATP         0.4381
     22 N9         -1.7127   -1.6108    1.2130 N.pl3     1 ATP        -0.6883
     23 C8         -2.8641   -1.0399    0.7392 C.ar      1 ATP         0.5620
     24 N7         -3.6659   -1.9257    0.1858 N.2       1 ATP        -0.5584
     25 C5         -3.0053   -3.1223    0.3069 C.ar      1 ATP        -0.2164
     26 C6         -3.3321   -4.4178   -0.0813 C.ar      1 ATP         0.7376
     27 N6         -4.5476   -4.6866   -0.7335 N.pl3     1 ATP        -0.9514
     28 N1         -2.4608   -5.4225    0.1773 N.ar      1 ATP        -0.8054
     29 C2         -1.3053   -5.1020    0.8081 C.ar      1 ATP         0.6649
     30 N3         -0.8788   -3.8921    1.2315 N.ar      1 ATP        -0.7136
     31 C4         -1.7870   -2.9477    0.9438 C.ar      1 ATP         0.5805
     32 HOB2       -3.7252    1.0853    2.1913 H         1 ATP         0.4367
     33 HOA2       -0.8013    5.4777    1.0069 H         1 ATP         0.4916
     34 H5'1       -1.4794    1.9921    0.8142 H         1 ATP         0.0552
     35 H5'2       -0.1361    3.1034    1.1867 H         1 ATP         0.0552
     36 H4'         0.0402    1.7079    3.4342 H         1 ATP         0.1061
     37 H3'         1.5907    1.4859    1.1353 H         1 ATP         0.0937
     38 HO3'        2.1521    0.9800    3.3017 H         1 ATP         0.4070
     39 H2'        -0.0017    0.0018    0.0005 H         1 ATP         0.0758
     40 HO2'        0.9369   -2.0558    0.0825 H         1 ATP         0.4080
     41 H1'        -0.1998   -1.6319    2.6178 H         1 ATP         0.1071
     42 H8         -3.0609    0.0200    0.8250 H         1 ATP         0.1022
     43 HN61       -5.2046   -3.9433   -0.8775 H         1 ATP         0.4336
     44 HN62       -4.7849   -5.6332   -0.9625 H         1 ATP         0.4336
     45 H2         -0.6318   -5.9307    0.9993 H         1 ATP         0.0401
@<TRIPOS>BOND
     1    1    2 2
     2    1    3 1
     3    1    4 1
     4    1    8 1
     5    5    6 2
     6    5    7 1
     7    5    8 1
     8    5   12 1
     9    7   32 1
    10    9   10 2
    11    9   11 1
    12    9   12 1
    13    9   13 1
    14   11   33 1
    15   13   14 1
    16   14   15 1
    17   14   34 1
    18   14   35 1
    19   15   16 1
    20   15   17 1
    21   15   36 1
    22   16   21 1
    23   17   18 1
    24   17   19 1
    25   17   37 1
    26   18   38 1
    27   19   20 1
    28   19   21 1
    29   19   39 1
    30   20   40 1
    31   21   22 1
    32   21   41 1
    33   22   23 ar
    34   22   31 ar
    35   23   24 ar
    36   23   42 1
    37   24   25 ar
    38   25   26 ar
    39   25   31 ar
    40   26   27 1
    41   26   28 ar
    42   27   43 1
    43   27   44 1
    44   28   29 ar
    45   29   30 ar
    46   29   45 1
    47   30   31 ar
@<TRIPOS>SUBSTRUCTURE
     1 ATP         1 GROUP 0 A     ****
@<TRIPOS>MOLECULE
[[[5-(6-aminopurin-9-yl)-3,4-dihydroxy-tetrahydrofuran-2-yl]methoxy-hydroxy-phosphoryl]oxy-hydroxy-phosphoryl] phosphate
   45    47     1     0     0
SMALL
USER_CHARGES

@<TRIPOS>ATOM
      1 PG         -0.1447    6.5740   -0.2494 P.3       1 ATP         1.3364
      2 O1G         0.1347    5.3944    0.6761 O.co2     1 ATP        -0.8759
      3 O2G         0.5336    7.8747    0.1675 O.co2     1 ATP        -0.8759
      4 O3G        -0.0161    6.2491   -1.7340 O.co2     1 ATP        -0.8759
      5 PB         -3.0410    5.9271   -0.3056 P.3       1 ATP         1.7980
      6 O1B        -4.3633    6.5676   -0.0024 O.2       1 ATP        -0.9123
      7 O2B        -2.8511    5.4414   -1.8356 O.3       1 ATP        -0.7754
      8 O3B        -1.7533    6.8715   -0.0499 O.3       1 ATP        -0.6996
      9 PA         -2.5519    4.3888    2.1545 P.3       1 ATP         1.7855
     10 O1A        -3.7885    4.7215    2.9377 O.2       1 ATP        -0.8495
     11 O2A        -1.2608    5.2879    2.5314 O.3       1 ATP        -0.8288
     12 O3A        -2.7016    4.6060    0.5597 O.3       1 ATP        -0.8018
     13 O5'        -2.0396    2.8622    2.3120 O.3       1 ATP        -0.5853
     14 C5'        -0.8811    2.4285    1.6206 C.3       1 ATP         0.1809
     15 C4'        -0.1994    1.3333    2.4288 C.3       1 ATP         0.1309
     16 O4'        -1.1285    0.2356    2.5840 O.3       1 ATP        -0.4224
     17 C3'         1.0324    0.7610    1.7344 C.3       1 ATP         0.0947
     18 O3'         1.9175    0.2377    2.7247 O.3       1 ATP        -0.5906
     19 C2'         0.4468   -0.3802    0.9263 C.3       1 ATP         0.0556
     20 O2'         1.3993   -1.3703    0.5961 O.3       1 ATP        -0.5838
     21 C1'        -0.6159   -0.9100    1.8769 C.3       1 ATP         0.4381
     22 N9         -1.7127   -1.6108    1.2130 N.pl3     1 ATP        -0.6883
     23 C8         -2.8641   -1.0399    0.7392 C.ar      1 ATP         0.5620
     24 N7         -3.6659   -1.9257    0.1858 N.2       1 ATP        -0.5584
     25 C5         -3.0053   -3.1223    0.3069 C.ar      1 ATP        -0.2164
     26 C6         -3.3321   -4.4178   -0.0813 C.ar      1 ATP         0.7376
     27 N6         -4.5476   -4.6866   -0.7335 N.pl3     1 ATP        -0.9514
     28 N1         -2.4608   -5.4225    0.1773 N.ar      1 ATP        -0.8054
     29 C2         -1.3053   -5.1020    0.8081 C.ar      1 ATP         0.6649
     30 N3         -0.8788   -3.8921    1.2315 N.ar      1 ATP        -0.7136
     31 C4         -1.7870   -2.9477    0.9438 C.ar      1 ATP         0.5805
     32 HOB2       -2.0073    5.0147   -2.0968 H         1 ATP         0.4367
     33 HOA2       -0.9207    5.2677    3.4511 H         1 ATP         0.4916
     34 H5'1       -1.1760    2.0498    0.6365 H         1 ATP         0.0552
     35 H5'2       -0.2072    3.2811    1.4873 H         1 ATP         0.0552
     36 H4'         0.0402    1.7079    3.4342 H         1 ATP         0.1061
     37 H3'         1.5907    1.4859    1.1353 H         1 ATP         0.0937
     38 HO3'        2.6839   -0.1150    2.2479 H         1 ATP         0.4070
     39 H2'        -0.0017    0.0018    0.0005 H         1 ATP         0.0758
     40 HO2'        0.9369   -2.0558    0.0825 H         1 ATP         0.4080
     41 H1'        -0.1998   -1.6319    2.6178 H         1 ATP         0.1071
     42 H8         -3.0609    0.0200    0.8250 H         1 ATP         0.1022
     43 HN61       -5.2046   -3.9433   -0.8775 H         1 ATP         0.4336
     44 HN62       -4.7849   -5.6332   -0.9625 H         1 ATP         0.4336
     45 H2         -0.6318   -5.9307    0.9993 H         1 ATP         0.0401
@<TRIPOS>BOND
     1    1    2 2
     2    1    3 1
     3    1    4 1
     4    1    8 1
     5    5    6 2
     6    5    7 1
     7    5    8 1
     8    5   12 1
     9    7   32 1
    10    9   10 2
    11    9   11 1
    12    9   12 1
    13    9   13 1
    14   11   33 1
    15   13   14 1
    16   14   15 1
    17   14   34 1
    18   14   35 1
    19   15   16 1
    20   15   17 1
    21   15   36 1
    22   16   21 1
    23   17   18 1
    24   17   19 1
    25   17   37 1
    26   18   38 1
    27   19   20 1
    28   19   21 1
    29   19   39 1
    30   20   40 1
    31   21   22 1
    32   21   41 1
    33   22   23 ar
    34   22   31 ar
    35   23   24 ar
    36   23   42 1
    37   24   25 ar
    38   25   26 ar
    39   25   31 ar
    40   26   27 1
    41   26   28 ar
    42   27   43 1
    43   27   44 1
    44   28   29 ar
    45   29   30 ar
    46   29   45 1
    47   30   31 ar
@<TRIPOS>SUBSTRUCTURE
     1 ATP         1 GROUP 0 A     ****
