@<TRIPOS>MOLECULE
[[5-(6-aminopurin-9-yl)-3,4-dihydroxy-tetrahydrofuran-2-yl]methoxy-hydroxy-phosphoryl] phosphono hydrogen phosphate
   47    49     1     0     0
SMALL
USER_CHARGES

@<TRIPOS>ATOM
      1 PG         -2.9943    2.1016   -2.8802 P.3       1 ATP         1.8096
      2 O1G        -1.9776    1.4295   -2.0052 O.2       1 ATP        -0.7943
      3 O2G        -2.4056    3.2123   -3.8958 O.3       1 ATP        -0.7926
      4 O3G        -3.8297    1.1120   -3.8473 O.3       1 ATP        -0.7926
      5 PB         -4.0912    4.1271   -1.0369 P.3       1 ATP         1.9396
      6 O1B        -3.4857    5.3880   -1.5797 O.2       1 ATP        -0.8346
      7 O2B        -5.6161    4.2742   -0.5210 O.3       1 ATP        -0.8243
      8 O3B        -4.1528    2.8949   -2.0800 O.3       1 ATP        -0.8110
      9 PA         -2.9681    4.0282    1.6824 P.3       1 ATP         1.8043
     10 O1A        -4.1670    4.4037    2.5039 O.2       1 ATP        -0.8218
     11 O2A        -1.9498    5.2507    1.3896 O.3       1 ATP        -0.8115
     12 O3A        -3.3129    3.4594    0.2101 O.3       1 ATP        -0.8294
     13 O5'        -2.0398    2.8621    2.3123 O.3       1 ATP        -0.5751
     14 C5'        -0.8811    2.4285    1.6206 C.3       1 ATP         0.1702
     15 C4'        -0.1994    1.3333    2.4288 C.3       1 ATP         0.1167
     16 O4'        -1.1285    0.2356    2.5840 O.3       1 ATP        -0.4221
     17 C3'         1.0324    0.7610    1.7344 C.3       1 ATP         0.1072
     18 O3'         1.9175    0.2377    2.7247 O.3       1 ATP        -0.5896
     19 C2'         0.4468   -0.3802    0.9263 C.3       1 ATP         0.0668
     20 O2'         1.3993   -1.3703    0.5961 O.3       1 ATP        -0.5764
     21 C1'        -0.6159   -0.9100    1.8769 C.3       1 ATP         0.4327
     22 N9         -1.7127   -1.6108    1.2130 N.pl3     1 ATP        -0.7057
     23 C8         -1.7712   -2.9546    0.9544 C.ar      1 ATP         0.5352
     24 N7         -2.8883   -3.2948    0.3462 N.2       1 ATP        -0.5411
     25 C5         -3.5834   -2.1202    0.2043 C.ar      1 ATP        -0.2315
     26 C6         -4.8225   -1.8251   -0.3554 C.ar      1 ATP         0.7606
     27 N6         -5.6154   -2.8394   -0.9189 N.pl3     1 ATP        -0.9553
     28 N1         -5.2589   -0.5425   -0.3507 N.ar      1 ATP        -0.7923
     29 C2         -4.4510    0.3913    0.2069 C.ar      1 ATP         0.6867
     30 N3         -3.2368    0.2296    0.7767 N.ar      1 ATP        -0.7305
     31 C4         -2.8684   -1.0596    0.7376 C.ar      1 ATP         0.5923
     32 HOG2       -1.9351    3.9904   -3.5281 H         1 ATP         0.5059
     33 HOG3       -4.3713    0.4001   -3.4448 H         1 ATP         0.5059
     34 HOB2       -6.3068    4.5588   -1.1566 H         1 ATP         0.5086
     35 HOA2       -1.5309    5.7107    2.1478 H         1 ATP         0.5057
     36 H5'1       -1.1763    2.0500    0.6366 H         1 ATP         0.0623
     37 H5'2       -0.2075    3.2812    1.4874 H         1 ATP         0.0623
     38 H4'         0.0402    1.7079    3.4343 H         1 ATP         0.1115
     39 H3'         1.5907    1.4859    1.1353 H         1 ATP         0.0700
     40 HO3'        2.6839   -0.1150    2.2479 H         1 ATP         0.4307
     41 H2'        -0.0017    0.0018    0.0005 H         1 ATP         0.0742
     42 HO2'        2.0953   -0.9375    0.0709 H         1 ATP         0.4245
     43 H1'        -0.1998   -1.6319    2.6178 H         1 ATP         0.1193
     44 H8         -0.9745   -3.6312    1.2318 H         1 ATP         0.0779
     45 HN61       -5.2619   -3.7766   -0.9586 H         1 ATP         0.4486
     46 HN62       -6.4834   -2.5990   -1.3590 H         1 ATP         0.4486
     47 H2         -4.8317    1.4071    0.1930 H         1 ATP         0.0538
@<TRIPOS>BOND
     1    1    2 2
     2    1    3 1
     3    1    4 1
     4    1    8 1
     5    3   32 1
     6    4   33 1
     7    5    6 2
     8    5    7 1
     9    5    8 1
    10    5   12 1
    11    7   34 1
    12    9   10 2
    13    9   11 1
    14    9   12 1
    15    9   13 1
    16   11   35 1
    17   13   14 1
    18   14   15 1
    19   14   36 1
    20   14   37 1
    21   15   16 1
    22   15   17 1
    23   15   38 1
    24   16   21 1
    25   17   18 1
    26   17   19 1
    27   17   39 1
    28   18   40 1
    29   19   20 1
    30   19   21 1
    31   19   41 1
    32   20   42 1
    33   21   22 1
    34   21   43 1
    35   22   23 ar
    36   22   31 ar
    37   23   24 ar
    38   23   44 1
    39   24   25 ar
    40   25   26 ar
    41   25   31 ar
    42   26   27 1
    43   26   28 ar
    44   27   45 1
    45   27   46 1
    46   28   29 ar
    47   29   30 ar
    48   29   47 1
    49   30   31 ar
@<TRIPOS>SUBSTRUCTURE
     1 ATP         1 GROUP 0 A     ****
@<TRIPOS>MOLECULE
[[5-(6-aminopurin-9-yl)-3,4-dihydroxy-tetrahydrofuran-2-yl]methoxy-hydroxy-phosphoryl] phosphono hydrogen phosphate
   47    49     1     0     0
SMALL
USER_CHARGES

@<TRIPOS>ATOM
      1 PG         -2.9943    2.1016   -2.8802 P.3       1 ATP         1.8096
      2 O1G        -1.9776    1.4295   -2.0052 O.2       1 ATP        -0.7943
      3 O2G        -2.4056    3.2123   -3.8958 O.3       1 ATP        -0.7926
      4 O3G        -3.8297    1.1120   -3.8473 O.3       1 ATP        -0.7926
      5 PB         -4.0912    4.1271   -1.0369 P.3       1 ATP         1.9396
      6 O1B        -3.4857    5.3880   -1.5797 O.2       1 ATP        -0.8346
      7 O2B        -5.6161    4.2742   -0.5210 O.3       1 ATP        -0.8243
      8 O3B        -4.1528    2.8949   -2.0800 O.3       1 ATP        -0.8110
      9 PA         -2.9681    4.0282    1.6824 P.3       1 ATP         1.8043
     10 O1A        -4.1670    4.4037    2.5039 O.2       1 ATP        -0.8218
     11 O2A        -1.9498    5.2507    1.3896 O.3       1 ATP        -0.8115
     12 O3A        -3.3129    3.4594    0.2101 O.3       1 ATP        -0.8294
     13 O5'        -2.0398    2.8621    2.3123 O.3       1 ATP        -0.5751
     14 C5'        -0.8811    2.4285    1.6206 C.3       1 ATP         0.1702
     15 C4'        -0.1994    1.3333    2.4288 C.3       1 ATP         0.1167
     16 O4'        -1.1285    0.2356    2.5840 O.3       1 ATP        -0.4221
     17 C3'         1.0324    0.7610    1.7344 C.3       1 ATP         0.1072
     18 O3'         1.9175    0.2377    2.7247 O.3       1 ATP        -0.5896
     19 C2'         0.4468   -0.3802    0.9263 C.3       1 ATP         0.0668
     20 O2'         1.3993   -1.3703    0.5961 O.3       1 ATP        -0.5764
     21 C1'        -0.6159   -0.9100    1.8769 C.3       1 ATP         0.4327
     22 N9         -1.7127   -1.6108    1.2130 N.pl3     1 ATP        -0.7057
     23 C8         -2.8641   -1.0399    0.7392 C.ar      1 ATP         0.5352
     24 N7         -3.6659   -1.9257    0.1858 N.2       1 ATP        -0.5411
     25 C5         -3.0053   -3.1223    0.3069 C.ar      1 ATP        -0.2315
     26 C6         -3.3321   -4.4178   -0.0813 C.ar      1 ATP         0.7606
     27 N6         -4.5476   -4.6866   -0.7335 N.pl3     1 ATP        -0.9553
     28 N1         -2.4608   -5.4225    0.1773 N.ar      1 ATP        -0.7923
     29 C2         -1.3053   -5.1020    0.8081 C.ar      1 ATP         0.6867
     30 N3         -0.8788   -3.8921    1.2315 N.ar      1 ATP        -0.7305
     31 C4         -1.7870   -2.9477    0.9438 C.ar      1 ATP         0.5923
     32 HOG2       -1.9351    3.9904   -3.5281 H         1 ATP         0.5059
     33 HOG3       -3.3447    0.5710   -4.5063 H         1 ATP         0.5059
     34 HOB2       -6.3068    4.5588   -1.1566 H         1 ATP         0.5086
     35 HOA2       -1.5309    5.7107    2.1478 H         1 ATP         0.5057
     36 H5'1       -1.1763    2.0500    0.6366 H         1 ATP         0.0623
     37 H5'2       -0.2075    3.2812    1.4874 H         1 ATP         0.0623
     38 H4'         0.0402    1.7079    3.4343 H         1 ATP         0.1115
     39 H3'         1.5907    1.4859    1.1353 H         1 ATP         0.0700
     40 HO3'        2.6839   -0.1150    2.2479 H         1 ATP         0.4307
     41 H2'        -0.0017    0.0018    0.0005 H         1 ATP         0.0742
     42 HO2'        2.0953   -0.9375    0.0709 H         1 ATP         0.4245
     43 H1'        -0.1998   -1.6319    2.6178 H         1 ATP         0.1193
     44 H8         -3.0609    0.0200    0.8250 H         1 ATP         0.0779
     45 HN61       -5.2046   -3.9433   -0.8775 H         1 ATP         0.4486
     46 HN62       -4.7849   -5.6332   -0.9625 H         1 ATP         0.4486
     47 H2         -0.6318   -5.9307    0.9993 H         1 ATP         0.0538
@<TRIPOS>BOND
     1    1    2 2
     2    1    3 1
     3    1    4 1
     4    1    8 1
     5    3   32 1
     6    4   33 1
     7    5    6 2
     8    5    7 1
     9    5    8 1
    10    5   12 1
    11    7   34 1
    12    9   10 2
    13    9   11 1
    14    9   12 1
    15    9   13 1
    16   11   35 1
    17   13   14 1
    18   14   15 1
    19   14   36 1
    20   14   37 1
    21   15   16 1
    22   15   17 1
    23   15   38 1
    24   16   21 1
    25   17   18 1
    26   17   19 1
    27   17   39 1
    28   18   40 1
    29   19   20 1
    30   19   21 1
    31   19   41 1
    32   20   42 1
    33   21   22 1
    34   21   43 1
    35   22   23 ar
    36   22   31 ar
    37   23   24 ar
    38   23   44 1
    39   24   25 ar
    40   25   26 ar
    41   25   31 ar
    42   26   27 1
    43   26   28 ar
    44   27   45 1
    45   27   46 1
    46   28   29 ar
    47   29   30 ar
    48   29   47 1
    49   30   31 ar
@<TRIPOS>SUBSTRUCTURE
     1 ATP         1 GROUP 0 A     ****
@<TRIPOS>MOLECULE
[[5-(6-aminopurin-9-yl)-3,4-dihydroxy-tetrahydrofuran-2-yl]methoxy-hydroxy-phosphoryl] phosphono hydrogen phosphate
   47    49     1     0     0
SMALL
USER_CHARGES

@<TRIPOS>ATOM
      1 PG         -4.8785    2.7331   -3.5149 P.3       1 ATP         1.8096
      2 O1G        -4.4279    3.7130   -4.5579 O.2       1 ATP        -0.7943
      3 O2G        -6.4525    2.7851   -3.1522 O.3       1 ATP        -0.7926
      4 O3G        -4.6270    1.1785   -3.8788 O.3       1 ATP        -0.7926
      5 PB         -4.0912    4.1271   -1.0369 P.3       1 ATP         1.9396
      6 O1B        -3.4857    5.3880   -1.5797 O.2       1 ATP        -0.8346
      7 O2B        -5.6161    4.2742   -0.5210 O.3       1 ATP        -0.8243
      8 O3B        -4.1528    2.8949   -2.0800 O.3       1 ATP        -0.8110
      9 PA         -2.9681    4.0282    1.6824 P.3       1 ATP         1.8043
     10 O1A        -4.1670    4.4037    2.5039 O.2       1 ATP        -0.8218
     11 O2A        -1.9498    5.2507    1.3896 O.3       1 ATP        -0.8115
     12 O3A        -3.3129    3.4594    0.2101 O.3       1 ATP        -0.8294
     13 O5'        -2.0398    2.8621    2.3123 O.3       1 ATP        -0.5751
     14 C5'        -0.8811    2.4285    1.6206 C.3       1 ATP         0.1702
     15 C4'        -0.1994    1.3333    2.4288 C.3       1 ATP         0.1167
     16 O4'        -1.1285    0.2356    2.5840 O.3       1 ATP        -0.4221
     17 C3'         1.0324    0.7610    1.7344 C.3       1 ATP         0.1072
     18 O3'         1.9175    0.2377    2.7247 O.3       1 ATP        -0.5896
     19 C2'         0.4468   -0.3802    0.9263 C.3       1 ATP         0.0668
     20 O2'         1.3993   -1.3703    0.5961 O.3       1 ATP        -0.5764
     21 C1'        -0.6159   -0.9100    1.8769 C.3       1 ATP         0.4327
     22 N9         -1.7127   -1.6108    1.2130 N.pl3     1 ATP        -0.7057
     23 C8         -1.7712   -2.9546    0.9544 C.ar      1 ATP         0.5352
     24 N7         -2.8883   -3.2948    0.3462 N.2       1 ATP        -0.5411
     25 C5         -3.5834   -2.1202    0.2043 C.ar      1 ATP        -0.2315
     26 C6         -4.8225   -1.8251   -0.3554 C.ar      1 ATP         0.7606
     27 N6         -5.6154   -2.8394   -0.9189 N.pl3     1 ATP        -0.9553
     28 N1         -5.2589   -0.5425   -0.3507 N.ar      1 ATP        -0.7923
     29 C2         -4.4510    0.3913    0.2069 C.ar      1 ATP         0.6867
     30 N3         -3.2368    0.2296    0.7767 N.ar      1 ATP        -0.7305
     31 C4         -2.8684   -1.0596    0.7376 C.ar      1 ATP         0.5923
     32 HOG2       -6.8314    3.6180   -2.7991 H         1 ATP         0.5059
     33 HOG3       -5.0491    0.8043   -4.6813 H         1 ATP         0.5059
     34 HOB2       -5.8136    4.9068    0.2021 H         1 ATP         0.5086
     35 HOA2       -1.5309    5.7107    2.1478 H         1 ATP         0.5057
     36 H5'1       -1.1763    2.0500    0.6366 H         1 ATP         0.0623
     37 H5'2       -0.2075    3.2812    1.4874 H         1 ATP         0.0623
     38 H4'         0.0402    1.7079    3.4343 H         1 ATP         0.1115
     39 H3'         1.5907    1.4859    1.1353 H         1 ATP         0.0700
     40 HO3'        2.6839   -0.1150    2.2479 H         1 ATP         0.4307
     41 H2'        -0.0017    0.0018    0.0005 H         1 ATP         0.0742
     42 HO2'        2.0953   -0.9375    0.0709 H         1 ATP         0.4245
     43 H1'        -0.1998   -1.6319    2.6178 H         1 ATP         0.1193
     44 H8         -0.9745   -3.6312    1.2318 H         1 ATP         0.0779
     45 HN61       -5.2619   -3.7766   -0.9586 H         1 ATP         0.4486
     46 HN62       -6.4834   -2.5990   -1.3590 H         1 ATP         0.4486
     47 H2         -4.8317    1.4071    0.1930 H         1 ATP         0.0538
@<TRIPOS>BOND
     1    1    2 2
     2    1    3 1
     3    1    4 1
     4    1    8 1
     5    3   32 1
     6    4   33 1
     7    5    6 2
     8    5    7 1
     9    5    8 1
    10    5   12 1
    11    7   34 1
    12    9   10 2
    13    9   11 1
    14    9   12 1
    15    9   13 1
    16   11   35 1
    17   13   14 1
    18   14   15 1
    19   14   36 1
    20   14   37 1
    21   15   16 1
    22   15   17 1
    23   15   38 1
    24   16   21 1
    25   17   18 1
    26   17   19 1
    27   17   39 1
    28   18   40 1
    29   19   20 1
    30   19   21 1
    31   19   41 1
    32   20   42 1
    33   21   22 1
    34   21   43 1
    35   22   23 ar
    36   22   31 ar
    37   23   24 ar
    38   23   44 1
    39   24   25 ar
    40   25   26 ar
    41   25   31 ar
    42   26   27 1
    43   26   28 ar
    44   27   45 1
    45   27   46 1
    46   28   29 ar
    47   29   30 ar
    48   29   47 1
    49   30   31 ar
@<TRIPOS>SUBSTRUCTURE
     1 ATP         1 GROUP 0 A     ****
@<TRIPOS>MOLECULE
[[5-(6-aminopurin-9-yl)-3,4-dihydroxy-tetrahydrofuran-2-yl]methoxy-hydroxy-phosphoryl] phosphono hydrogen phosphate
   47    49     1     0     0
SMALL
USER_CHARGES

@<TRIPOS>ATOM
      1 PG         -7.2836    0.1319    1.0664 P.3       1 ATP         1.8096
      2 O1G        -7.7191    0.0541   -0.3672 O.2       1 ATP        -0.7943
      3 O2G        -8.3413    0.8242    2.0733 O.3       1 ATP        -0.7926
      4 O3G        -6.9717   -1.2907    1.7676 O.3       1 ATP        -0.7926
      5 PB         -5.5322    2.5053    1.0082 P.3       1 ATP         1.9396
      6 O1B        -5.6174    2.9074   -0.4347 O.2       1 ATP        -0.8346
      7 O2B        -6.4832    3.3506    2.0053 O.3       1 ATP        -0.8243
      8 O3B        -5.9223    0.9673    1.3128 O.3       1 ATP        -0.8110
      9 PA         -3.0702    3.8634    1.8796 P.3       1 ATP         1.8043
     10 O1A        -3.6344    4.9807    2.7082 O.2       1 ATP        -0.8218
     11 O2A        -2.6765    4.2860    0.3684 O.3       1 ATP        -0.8115
     12 O3A        -4.0660    2.6076    1.6762 O.3       1 ATP        -0.8294
     13 O5'        -1.7335    3.1724    2.4745 O.3       1 ATP        -0.5751
     14 C5'        -0.8811    2.4285    1.6206 C.3       1 ATP         0.1702
     15 C4'        -0.1994    1.3333    2.4288 C.3       1 ATP         0.1167
     16 O4'        -1.1285    0.2356    2.5840 O.3       1 ATP        -0.4221
     17 C3'         1.0324    0.7610    1.7344 C.3       1 ATP         0.1072
     18 O3'         1.9175    0.2377    2.7247 O.3       1 ATP        -0.5896
     19 C2'         0.4468   -0.3802    0.9263 C.3       1 ATP         0.0668
     20 O2'         1.3993   -1.3703    0.5961 O.3       1 ATP        -0.5764
     21 C1'        -0.6159   -0.9100    1.8769 C.3       1 ATP         0.4327
     22 N9         -1.7127   -1.6108    1.2130 N.pl3     1 ATP        -0.7057
     23 C8         -2.0877   -2.9101    1.4304 C.ar      1 ATP         0.5352
     24 N7         -3.1152   -3.2613    0.6857 N.2       1 ATP        -0.5411
     25 C5         -3.4186   -2.1409   -0.0462 C.ar      1 ATP        -0.2315
     26 C6         -4.3953   -1.8809   -1.0023 C.ar      1 ATP         0.7606
     27 N6         -5.3118   -2.8767   -1.3812 N.pl3     1 ATP        -0.9553
     28 N1         -4.4538   -0.6507   -1.5667 N.ar      1 ATP        -0.7923
     29 C2         -3.5442    0.2679   -1.1609 C.ar      1 ATP         0.6867
     30 N3         -2.5561    0.1361   -0.2491 N.ar      1 ATP        -0.7305
     31 C4         -2.5568   -1.1019    0.2674 C.ar      1 ATP         0.5923
     32 HOG2       -8.6129    1.7528    1.9121 H         1 ATP         0.5059
     33 HOG3       -6.2699   -1.8624    1.3900 H         1 ATP         0.5059
     34 HOB2       -6.3587    4.3214    2.0706 H         1 ATP         0.5086
     35 HOA2       -2.0057    4.9884    0.2320 H         1 ATP         0.5057
     36 H5'1       -1.4796    1.9923    0.8143 H         1 ATP         0.0623
     37 H5'2       -0.1364    3.1037    1.1869 H         1 ATP         0.0623
     38 H4'         0.0402    1.7079    3.4343 H         1 ATP         0.1115
     39 H3'         1.5907    1.4859    1.1353 H         1 ATP         0.0700
     40 HO3'        2.6839   -0.1150    2.2479 H         1 ATP         0.4307
     41 H2'        -0.0017    0.0018    0.0005 H         1 ATP         0.0742
     42 HO2'        2.0953   -0.9375    0.0709 H         1 ATP         0.4245
     43 H1'        -0.1998   -1.6319    2.6178 H         1 ATP         0.1193
     44 H8         -1.5778   -3.5473    2.1399 H         1 ATP         0.0779
     45 HN61       -5.2294   -3.7965   -0.9914 H         1 ATP         0.4486
     46 HN62       -5.9774   -2.6837   -2.1055 H         1 ATP         0.4486
     47 H2         -3.6201    1.2414   -1.6336 H         1 ATP         0.0538
@<TRIPOS>BOND
     1    1    2 2
     2    1    3 1
     3    1    4 1
     4    1    8 1
     5    3   32 1
     6    4   33 1
     7    5    6 2
     8    5    7 1
     9    5    8 1
    10    5   12 1
    11    7   34 1
    12    9   10 2
    13    9   11 1
    14    9   12 1
    15    9   13 1
    16   11   35 1
    17   13   14 1
    18   14   15 1
    19   14   36 1
    20   14   37 1
    21   15   16 1
    22   15   17 1
    23   15   38 1
    24   16   21 1
    25   17   18 1
    26   17   19 1
    27   17   39 1
    28   18   40 1
    29   19   20 1
    30   19   21 1
    31   19   41 1
    32   20   42 1
    33   21   22 1
    34   21   43 1
    35   22   23 ar
    36   22   31 ar
    37   23   24 ar
    38   23   44 1
    39   24   25 ar
    40   25   26 ar
    41   25   31 ar
    42   26   27 1
    43   26   28 ar
    44   27   45 1
    45   27   46 1
    46   28   29 ar
    47   29   30 ar
    48   29   47 1
    49   30   31 ar
@<TRIPOS>SUBSTRUCTURE
     1 ATP         1 GROUP 0 A     ****
@<TRIPOS>MOLECULE
[[5-(6-aminopurin-9-yl)-3,4-dihydroxy-tetrahydrofuran-2-yl]methoxy-hydroxy-phosphoryl] phosphono hydrogen phosphate
   47    49     1     0     0
SMALL
USER_CHARGES

@<TRIPOS>ATOM
      1 PG         -3.1190    6.3972   -2.6510 P.3       1 ATP         1.8096
      2 O1G        -3.0500    5.7777   -4.0158 O.2       1 ATP        -0.7943
      3 O2G        -1.9160    7.4150   -2.2926 O.3       1 ATP        -0.7926
      4 O3G        -4.4490    7.2680   -2.3584 O.3       1 ATP        -0.7926
      5 PB         -4.0912    4.1271   -1.0369 P.3       1 ATP         1.9396
      6 O1B        -5.5121    4.5308   -0.7740 O.2       1 ATP        -0.8346
      7 O2B        -3.8993    3.0648   -2.2401 O.3       1 ATP        -0.8243
      8 O3B        -3.0981    5.3396   -1.4292 O.3       1 ATP        -0.8110
      9 PA         -2.9681    4.0282    1.6824 P.3       1 ATP         1.8043
     10 O1A        -4.1670    4.4037    2.5039 O.2       1 ATP        -0.8218
     11 O2A        -1.9498    5.2507    1.3896 O.3       1 ATP        -0.8115
     12 O3A        -3.3129    3.4594    0.2101 O.3       1 ATP        -0.8294
     13 O5'        -2.0398    2.8621    2.3123 O.3       1 ATP        -0.5751
     14 C5'        -0.8811    2.4285    1.6206 C.3       1 ATP         0.1702
     15 C4'        -0.1994    1.3333    2.4288 C.3       1 ATP         0.1167
     16 O4'        -1.1285    0.2356    2.5840 O.3       1 ATP        -0.4221
     17 C3'         1.0324    0.7610    1.7344 C.3       1 ATP         0.1072
     18 O3'         1.9175    0.2377    2.7247 O.3       1 ATP        -0.5896
     19 C2'         0.4468   -0.3802    0.9263 C.3       1 ATP         0.0668
     20 O2'         1.3993   -1.3703    0.5961 O.3       1 ATP        -0.5764
     21 C1'        -0.6159   -0.9100    1.8769 C.3       1 ATP         0.4327
     22 N9         -1.7127   -1.6108    1.2130 N.pl3     1 ATP        -0.7057
     23 C8         -1.7712   -2.9546    0.9544 C.ar      1 ATP         0.5352
     24 N7         -2.8883   -3.2948    0.3462 N.2       1 ATP        -0.5411
     25 C5         -3.5834   -2.1202    0.2043 C.ar      1 ATP        -0.2315
     26 C6         -4.8225   -1.8251   -0.3554 C.ar      1 ATP         0.7606
     27 N6         -5.6154   -2.8394   -0.9189 N.pl3     1 ATP        -0.9553
     28 N1         -5.2589   -0.5425   -0.3507 N.ar      1 ATP        -0.7923
     29 C2         -4.4510    0.3913    0.2069 C.ar      1 ATP         0.6867
     30 N3         -3.2368    0.2296    0.7767 N.ar      1 ATP        -0.7305
     31 C4         -2.8684   -1.0596    0.7376 C.ar      1 ATP         0.5923
     32 HOG2       -1.7851    8.2111   -2.8504 H         1 ATP         0.5059
     33 HOG3       -5.3246    6.8289   -2.4086 H         1 ATP         0.5059
     34 HOB2       -4.3369    2.1894   -2.1747 H         1 ATP         0.5086
     35 HOA2       -2.2800    6.0371    0.9053 H         1 ATP         0.5057
     36 H5'1       -1.1763    2.0500    0.6366 H         1 ATP         0.0623
     37 H5'2       -0.2075    3.2812    1.4874 H         1 ATP         0.0623
     38 H4'         0.0402    1.7079    3.4343 H         1 ATP         0.1115
     39 H3'         1.5907    1.4859    1.1353 H         1 ATP         0.0700
     40 HO3'        2.6839   -0.1150    2.2479 H         1 ATP         0.4307
     41 H2'        -0.0017    0.0018    0.0005 H         1 ATP         0.0742
     42 HO2'        2.0953   -0.9375    0.0709 H         1 ATP         0.4245
     43 H1'        -0.1998   -1.6319    2.6178 H         1 ATP         0.1193
     44 H8         -0.9745   -3.6312    1.2318 H         1 ATP         0.0779
     45 HN61       -5.2619   -3.7766   -0.9586 H         1 ATP         0.4486
     46 HN62       -6.4834   -2.5990   -1.3590 H         1 ATP         0.4486
     47 H2         -4.8317    1.4071    0.1930 H         1 ATP         0.0538
@<TRIPOS>BOND
     1    1    2 2
     2    1    3 1
     3    1    4 1
     4    1    8 1
     5    3   32 1
     6    4   33 1
     7    5    6 2
     8    5    7 1
     9    5    8 1
    10    5   12 1
    11    7   34 1
    12    9   10 2
    13    9   11 1
    14    9   12 1
    15    9   13 1
    16   11   35 1
    17   13   14 1
    18   14   15 1
    19   14   36 1
    20   14   37 1
    21   15   16 1
    22   15   17 1
    23   15   38 1
    24   16   21 1
    25   17   18 1
    26   17   19 1
    27   17   39 1
    28   18   40 1
    29   19   20 1
    30   19   21 1
    31   19   41 1
    32   20   42 1
    33   21   22 1
    34   21   43 1
    35   22   23 ar
    36   22   31 ar
    37   23   24 ar
    38   23   44 1
    39   24   25 ar
    40   25   26 ar
    41   25   31 ar
    42   26   27 1
    43   26   28 ar
    44   27   45 1
    45   27   46 1
    46   28   29 ar
    47   29   30 ar
    48   29   47 1
    49   30   31 ar
@<TRIPOS>SUBSTRUCTURE
     1 ATP         1 GROUP 0 A     ****
@<TRIPOS>MOLECULE
[[5-(6-aminopurin-9-yl)-3,4-dihydroxy-tetrahydrofuran-2-yl]methoxy-hydroxy-phosphoryl] phosphono hydrogen phosphate
   47    49     1     0     0
SMALL
USER_CHARGES

@<TRIPOS>ATOM
      1 PG         -4.8785    2.7331   -3.5149 P.3       1 ATP         1.8096
      2 O1G        -4.4279    3.7130   -4.5579 O.2       1 ATP        -0.7943
      3 O2G        -6.4525    2.7851   -3.1522 O.3       1 ATP        -0.7926
      4 O3G        -4.6270    1.1785   -3.8788 O.3       1 ATP        -0.7926
      5 PB         -4.0912    4.1271   -1.0369 P.3       1 ATP         1.9396
      6 O1B        -3.4857    5.3880   -1.5797 O.2       1 ATP        -0.8346
      7 O2B        -5.6161    4.2742   -0.5210 O.3       1 ATP        -0.8243
      8 O3B        -4.1528    2.8949   -2.0800 O.3       1 ATP        -0.8110
      9 PA         -2.9681    4.0282    1.6824 P.3       1 ATP         1.8043
     10 O1A        -4.1670    4.4037    2.5039 O.2       1 ATP        -0.8218
     11 O2A        -1.9498    5.2507    1.3896 O.3       1 ATP        -0.8115
     12 O3A        -3.3129    3.4594    0.2101 O.3       1 ATP        -0.8294
     13 O5'        -2.0398    2.8621    2.3123 O.3       1 ATP        -0.5751
     14 C5'        -0.8811    2.4285    1.6206 C.3       1 ATP         0.1702
     15 C4'        -0.1994    1.3333    2.4288 C.3       1 ATP         0.1167
     16 O4'        -1.1285    0.2356    2.5840 O.3       1 ATP        -0.4221
     17 C3'         1.0324    0.7610    1.7344 C.3       1 ATP         0.1072
     18 O3'         1.9175    0.2377    2.7247 O.3       1 ATP        -0.5896
     19 C2'         0.4468   -0.3802    0.9263 C.3       1 ATP         0.0668
     20 O2'         1.3993   -1.3703    0.5961 O.3       1 ATP        -0.5764
     21 C1'        -0.6159   -0.9100    1.8769 C.3       1 ATP         0.4327
     22 N9         -1.7127   -1.6108    1.2130 N.pl3     1 ATP        -0.7057
     23 C8         -2.8641   -1.0399    0.7392 C.ar      1 ATP         0.5352
     24 N7         -3.6659   -1.9257    0.1858 N.2       1 ATP        -0.5411
     25 C5         -3.0053   -3.1223    0.3069 C.ar      1 ATP        -0.2315
     26 C6         -3.3321   -4.4178   -0.0813 C.ar      1 ATP         0.7606
     27 N6         -4.5476   -4.6866   -0.7335 N.pl3     1 ATP        -0.9553
     28 N1         -2.4608   -5.4225    0.1773 N.ar      1 ATP        -0.7923
     29 C2         -1.3053   -5.1020    0.8081 C.ar      1 ATP         0.6867
     30 N3         -0.8788   -3.8921    1.2315 N.ar      1 ATP        -0.7305
     31 C4         -1.7870   -2.9477    0.9438 C.ar      1 ATP         0.5923
     32 HOG2       -6.8314    3.6180   -2.7991 H         1 ATP         0.5059
     33 HOG3       -5.0491    0.8043   -4.6813 H         1 ATP         0.5059
     34 HOB2       -5.8136    4.9068    0.2021 H         1 ATP         0.5086
     35 HOA2       -1.5309    5.7107    2.1478 H         1 ATP         0.5057
     36 H5'1       -1.1763    2.0500    0.6366 H         1 ATP         0.0623
     37 H5'2       -0.2075    3.2812    1.4874 H         1 ATP         0.0623
     38 H4'         0.0402    1.7079    3.4343 H         1 ATP         0.1115
     39 H3'         1.5907    1.4859    1.1353 H         1 ATP         0.0700
     40 HO3'        2.6839   -0.1150    2.2479 H         1 ATP         0.4307
     41 H2'        -0.0017    0.0018    0.0005 H         1 ATP         0.0742
     42 HO2'        2.0953   -0.9375    0.0709 H         1 ATP         0.4245
     43 H1'        -0.1998   -1.6319    2.6178 H         1 ATP         0.1193
     44 H8         -3.0609    0.0200    0.8250 H         1 ATP         0.0779
     45 HN61       -5.2046   -3.9433   -0.8775 H         1 ATP         0.4486
     46 HN62       -4.7849   -5.6332   -0.9625 H         1 ATP         0.4486
     47 H2         -0.6318   -5.9307    0.9993 H         1 ATP         0.0538
@<TRIPOS>BOND
     1    1    2 2
     2    1    3 1
     3    1    4 1
     4    1    8 1
     5    3   32 1
     6    4   33 1
     7    5    6 2
     8    5    7 1
     9    5    8 1
    10    5   12 1
    11    7   34 1
    12    9   10 2
    13    9   11 1
    14    9   12 1
    15    9   13 1
    16   11   35 1
    17   13   14 1
    18   14   15 1
    19   14   36 1
    20   14   37 1
    21   15   16 1
    22   15   17 1
    23   15   38 1
    24   16   21 1
    25   17   18 1
    26   17   19 1
    27   17   39 1
    28   18   40 1
    29   19   20 1
    30   19   21 1
    31   19   41 1
    32   20   42 1
    33   21   22 1
    34   21   43 1
    35   22   23 ar
    36   22   31 ar
    37   23   24 ar
    38   23   44 1
    39   24   25 ar
    40   25   26 ar
    41   25   31 ar
    42   26   27 1
    43   26   28 ar
    44   27   45 1
    45   27   46 1
    46   28   29 ar
    47   29   30 ar
    48   29   47 1
    49   30   31 ar
@<TRIPOS>SUBSTRUCTURE
     1 ATP         1 GROUP 0 A     ****
@<TRIPOS>MOLECULE
[[5-(6-aminopurin-9-yl)-3,4-dihydroxy-tetrahydrofuran-2-yl]methoxy-hydroxy-phosphoryl] phosphono hydrogen phosphate
   47    49     1     0     0
SMALL
USER_CHARGES

@<TRIPOS>ATOM
      1 PG         -3.1190    6.3972   -2.6510 P.3       1 ATP         1.8096
      2 O1G        -3.0500    5.7777   -4.0158 O.2       1 ATP        -0.7943
      3 O2G        -1.9160    7.4150   -2.2926 O.3       1 ATP        -0.7926
      4 O3G        -4.4490    7.2680   -2.3584 O.3       1 ATP        -0.7926
      5 PB         -4.0912    4.1271   -1.0369 P.3       1 ATP         1.9396
      6 O1B        -5.5121    4.5308   -0.7740 O.2       1 ATP        -0.8346
      7 O2B        -3.8993    3.0648   -2.2401 O.3       1 ATP        -0.8243
      8 O3B        -3.0981    5.3396   -1.4292 O.3       1 ATP        -0.8110
      9 PA         -2.9681    4.0282    1.6824 P.3       1 ATP         1.8043
     10 O1A        -4.1670    4.4037    2.5039 O.2       1 ATP        -0.8218
     11 O2A        -1.9498    5.2507    1.3896 O.3       1 ATP        -0.8115
     12 O3A        -3.3129    3.4594    0.2101 O.3       1 ATP        -0.8294
     13 O5'        -2.0398    2.8621    2.3123 O.3       1 ATP        -0.5751
     14 C5'        -0.8811    2.4285    1.6206 C.3       1 ATP         0.1702
     15 C4'        -0.1994    1.3333    2.4288 C.3       1 ATP         0.1167
     16 O4'        -1.1285    0.2356    2.5840 O.3       1 ATP        -0.4221
     17 C3'         1.0324    0.7610    1.7344 C.3       1 ATP         0.1072
     18 O3'         1.9175    0.2377    2.7247 O.3       1 ATP        -0.5896
     19 C2'         0.4468   -0.3802    0.9263 C.3       1 ATP         0.0668
     20 O2'         1.3993   -1.3703    0.5961 O.3       1 ATP        -0.5764
     21 C1'        -0.6159   -0.9100    1.8769 C.3       1 ATP         0.4327
     22 N9         -1.7127   -1.6108    1.2130 N.pl3     1 ATP        -0.7057
     23 C8         -2.8641   -1.0399    0.7392 C.ar      1 ATP         0.5352
     24 N7         -3.6659   -1.9257    0.1858 N.2       1 ATP        -0.5411
     25 C5         -3.0053   -3.1223    0.3069 C.ar      1 ATP        -0.2315
     26 C6         -3.3321   -4.4178   -0.0813 C.ar      1 ATP         0.7606
     27 N6         -4.5476   -4.6866   -0.7335 N.pl3     1 ATP        -0.9553
     28 N1         -2.4608   -5.4225    0.1773 N.ar      1 ATP        -0.7923
     29 C2         -1.3053   -5.1020    0.8081 C.ar      1 ATP         0.6867
     30 N3         -0.8788   -3.8921    1.2315 N.ar      1 ATP        -0.7305
     31 C4         -1.7870   -2.9477    0.9438 C.ar      1 ATP         0.5923
     32 HOG2       -1.7851    8.2111   -2.8504 H         1 ATP         0.5059
     33 HOG3       -5.3246    6.8289   -2.4086 H         1 ATP         0.5059
     34 HOB2       -4.3369    2.1894   -2.1747 H         1 ATP         0.5086
     35 HOA2       -2.2800    6.0371    0.9053 H         1 ATP         0.5057
     36 H5'1       -1.1763    2.0500    0.6366 H         1 ATP         0.0623
     37 H5'2       -0.2075    3.2812    1.4874 H         1 ATP         0.0623
     38 H4'         0.0402    1.7079    3.4343 H         1 ATP         0.1115
     39 H3'         1.5907    1.4859    1.1353 H         1 ATP         0.0700
     40 HO3'        2.6839   -0.1150    2.2479 H         1 ATP         0.4307
     41 H2'        -0.0017    0.0018    0.0005 H         1 ATP         0.0742
     42 HO2'        2.0953   -0.9375    0.0709 H         1 ATP         0.4245
     43 H1'        -0.1998   -1.6319    2.6178 H         1 ATP         0.1193
     44 H8         -3.0609    0.0200    0.8250 H         1 ATP         0.0779
     45 HN61       -5.2046   -3.9433   -0.8775 H         1 ATP         0.4486
     46 HN62       -4.7849   -5.6332   -0.9625 H         1 ATP         0.4486
     47 H2         -0.6318   -5.9307    0.9993 H         1 ATP         0.0538
@<TRIPOS>BOND
     1    1    2 2
     2    1    3 1
     3    1    4 1
     4    1    8 1
     5    3   32 1
     6    4   33 1
     7    5    6 2
     8    5    7 1
     9    5    8 1
    10    5   12 1
    11    7   34 1
    12    9   10 2
    13    9   11 1
    14    9   12 1
    15    9   13 1
    16   11   35 1
    17   13   14 1
    18   14   15 1
    19   14   36 1
    20   14   37 1
    21   15   16 1
    22   15   17 1
    23   15   38 1
    24   16   21 1
    25   17   18 1
    26   17   19 1
    27   17   39 1
    28   18   40 1
    29   19   20 1
    30   19   21 1
    31   19   41 1
    32   20   42 1
    33   21   22 1
    34   21   43 1
    35   22   23 ar
    36   22   31 ar
    37   23   24 ar
    38   23   44 1
    39   24   25 ar
    40   25   26 ar
    41   25   31 ar
    42   26   27 1
    43   26   28 ar
    44   27   45 1
    45   27   46 1
    46   28   29 ar
    47   29   30 ar
    48   29   47 1
    49   30   31 ar
@<TRIPOS>SUBSTRUCTURE
     1 ATP         1 GROUP 0 A     ****
@<TRIPOS>MOLECULE
[[5-(6-aminopurin-9-yl)-3,4-dihydroxy-tetrahydrofuran-2-yl]methoxy-hydroxy-phosphoryl] phosphono hydrogen phosphate
   47    49     1     0     0
SMALL
USER_CHARGES

@<TRIPOS>ATOM
      1 PG         -7.2836    0.1319    1.0664 P.3       1 ATP         1.8096
      2 O1G        -8.4878    0.6740    1.7785 O.2       1 ATP        -0.7943
      3 O2G        -6.8750   -1.3827    1.4548 O.3       1 ATP        -0.7926
      4 O3G        -7.4001    0.0892   -0.5452 O.3       1 ATP        -0.7926
      5 PB         -5.5322    2.5053    1.0082 P.3       1 ATP         1.9396
      6 O1B        -5.6174    2.9074   -0.4347 O.2       1 ATP        -0.8346
      7 O2B        -6.4832    3.3506    2.0053 O.3       1 ATP        -0.8243
      8 O3B        -5.9223    0.9673    1.3128 O.3       1 ATP        -0.8110
      9 PA         -3.0702    3.8634    1.8796 P.3       1 ATP         1.8043
     10 O1A        -3.6344    4.9807    2.7082 O.2       1 ATP        -0.8218
     11 O2A        -2.6765    4.2860    0.3684 O.3       1 ATP        -0.8115
     12 O3A        -4.0660    2.6076    1.6762 O.3       1 ATP        -0.8294
     13 O5'        -1.7335    3.1724    2.4745 O.3       1 ATP        -0.5751
     14 C5'        -0.8811    2.4285    1.6206 C.3       1 ATP         0.1702
     15 C4'        -0.1994    1.3333    2.4288 C.3       1 ATP         0.1167
     16 O4'        -1.1285    0.2356    2.5840 O.3       1 ATP        -0.4221
     17 C3'         1.0324    0.7610    1.7344 C.3       1 ATP         0.1072
     18 O3'         1.9175    0.2377    2.7247 O.3       1 ATP        -0.5896
     19 C2'         0.4468   -0.3802    0.9263 C.3       1 ATP         0.0668
     20 O2'         1.3993   -1.3703    0.5961 O.3       1 ATP        -0.5764
     21 C1'        -0.6159   -0.9100    1.8769 C.3       1 ATP         0.4327
     22 N9         -1.7127   -1.6108    1.2130 N.pl3     1 ATP        -0.7057
     23 C8         -2.8641   -1.0399    0.7392 C.ar      1 ATP         0.5352
     24 N7         -3.6659   -1.9257    0.1858 N.2       1 ATP        -0.5411
     25 C5         -3.0053   -3.1223    0.3069 C.ar      1 ATP        -0.2315
     26 C6         -3.3321   -4.4178   -0.0813 C.ar      1 ATP         0.7606
     27 N6         -4.5476   -4.6866   -0.7335 N.pl3     1 ATP        -0.9553
     28 N1         -2.4608   -5.4225    0.1773 N.ar      1 ATP        -0.7923
     29 C2         -1.3053   -5.1020    0.8081 C.ar      1 ATP         0.6867
     30 N3         -0.8788   -3.8921    1.2315 N.ar      1 ATP        -0.7305
     31 C4         -1.7870   -2.9477    0.9438 C.ar      1 ATP         0.5923
     32 HOG2       -6.6475   -1.5894    2.3862 H         1 ATP         0.5059
     33 HOG3       -7.5438    0.9277   -1.0332 H         1 ATP         0.5059
     34 HOB2       -6.3587    4.3214    2.0706 H         1 ATP         0.5086
     35 HOA2       -2.0057    4.9884    0.2320 H         1 ATP         0.5057
     36 H5'1       -1.4796    1.9923    0.8143 H         1 ATP         0.0623
     37 H5'2       -0.1364    3.1037    1.1869 H         1 ATP         0.0623
     38 H4'         0.0402    1.7079    3.4343 H         1 ATP         0.1115
     39 H3'         1.5907    1.4859    1.1353 H         1 ATP         0.0700
     40 HO3'        2.6839   -0.1150    2.2479 H         1 ATP         0.4307
     41 H2'        -0.0017    0.0018    0.0005 H         1 ATP         0.0742
     42 HO2'        2.0953   -0.9375    0.0709 H         1 ATP         0.4245
     43 H1'        -0.1998   -1.6319    2.6178 H         1 ATP         0.1193
     44 H8         -3.0609    0.0200    0.8250 H         1 ATP         0.0779
     45 HN61       -5.2046   -3.9433   -0.8775 H         1 ATP         0.4486
     46 HN62       -4.7849   -5.6332   -0.9625 H         1 ATP         0.4486
     47 H2         -0.6318   -5.9307    0.9993 H         1 ATP         0.0538
@<TRIPOS>BOND
     1    1    2 2
     2    1    3 1
     3    1    4 1
     4    1    8 1
     5    3   32 1
     6    4   33 1
     7    5    6 2
     8    5    7 1
     9    5    8 1
    10    5   12 1
    11    7   34 1
    12    9   10 2
    13    9   11 1
    14    9   12 1
    15    9   13 1
    16   11   35 1
    17   13   14 1
    18   14   15 1
    19   14   36 1
    20   14   37 1
    21   15   16 1
    22   15   17 1
    23   15   38 1
    24   16   21 1
    25   17   18 1
    26   17   19 1
    27   17   39 1
    28   18   40 1
    29   19   20 1
    30   19   21 1
    31   19   41 1
    32   20   42 1
    33   21   22 1
    34   21   43 1
    35   22   23 ar
    36   22   31 ar
    37   23   24 ar
    38   23   44 1
    39   24   25 ar
    40   25   26 ar
    41   25   31 ar
    42   26   27 1
    43   26   28 ar
    44   27   45 1
    45   27   46 1
    46   28   29 ar
    47   29   30 ar
    48   29   47 1
    49   30   31 ar
@<TRIPOS>SUBSTRUCTURE
     1 ATP         1 GROUP 0 A     ****
@<TRIPOS>MOLECULE
[[5-(6-aminopurin-9-yl)-3,4-dihydroxy-tetrahydrofuran-2-yl]methoxy-hydroxy-phosphoryl] phosphono hydrogen phosphate
   47    49     1     0     0
SMALL
USER_CHARGES

@<TRIPOS>ATOM
      1 PG         -4.8617    5.1643    2.8450 P.3       1 ATP         1.8096
      2 O1G        -4.1913    3.8578    3.1524 O.2       1 ATP        -0.7943
      3 O2G        -6.0000    5.1042    1.6994 O.3       1 ATP        -0.7926
      4 O3G        -5.6196    5.8577    4.0930 O.3       1 ATP        -0.7926
      5 PB         -2.8848    6.4173    1.0490 P.3       1 ATP         1.9396
      6 O1B        -3.5668    6.2953   -0.2819 O.2       1 ATP        -0.8346
      7 O2B        -2.0791    7.8005    1.2741 O.3       1 ATP        -0.8243
      8 O3B        -3.8656    6.3280    2.3297 O.3       1 ATP        -0.8110
      9 PA         -0.4423    4.8273    0.6350 P.3       1 ATP         1.8043
     10 O1A         0.5926    5.9096    0.5302 O.2       1 ATP        -0.8218
     11 O2A        -0.9606    4.2592   -0.7883 O.3       1 ATP        -0.8115
     12 O3A        -1.8026    5.2679    1.3869 O.3       1 ATP        -0.8294
     13 O5'         0.0173    3.5130    1.4593 O.3       1 ATP        -0.5751
     14 C5'        -0.8811    2.4285    1.6206 C.3       1 ATP         0.1702
     15 C4'        -0.1994    1.3333    2.4288 C.3       1 ATP         0.1167
     16 O4'        -1.1285    0.2356    2.5840 O.3       1 ATP        -0.4221
     17 C3'         1.0324    0.7610    1.7344 C.3       1 ATP         0.1072
     18 O3'         1.9175    0.2377    2.7247 O.3       1 ATP        -0.5896
     19 C2'         0.4468   -0.3802    0.9263 C.3       1 ATP         0.0668
     20 O2'         1.3993   -1.3703    0.5961 O.3       1 ATP        -0.5764
     21 C1'        -0.6159   -0.9100    1.8769 C.3       1 ATP         0.4327
     22 N9         -1.7127   -1.6108    1.2130 N.pl3     1 ATP        -0.7057
     23 C8         -1.7712   -2.9546    0.9544 C.ar      1 ATP         0.5352
     24 N7         -2.8883   -3.2948    0.3462 N.2       1 ATP        -0.5411
     25 C5         -3.5834   -2.1202    0.2043 C.ar      1 ATP        -0.2315
     26 C6         -4.8225   -1.8251   -0.3554 C.ar      1 ATP         0.7606
     27 N6         -5.6154   -2.8394   -0.9189 N.pl3     1 ATP        -0.9553
     28 N1         -5.2589   -0.5425   -0.3507 N.ar      1 ATP        -0.7923
     29 C2         -4.4510    0.3913    0.2069 C.ar      1 ATP         0.6867
     30 N3         -3.2368    0.2296    0.7767 N.ar      1 ATP        -0.7305
     31 C4         -2.8684   -1.0596    0.7376 C.ar      1 ATP         0.5923
     32 HOG2       -5.7517    4.8075    0.7981 H         1 ATP         0.5059
     33 HOG3       -6.3491    5.3728    4.5344 H         1 ATP         0.5059
     34 HOB2       -2.5708    8.6482    1.2338 H         1 ATP         0.5086
     35 HOA2       -0.3121    3.8508   -1.4004 H         1 ATP         0.5057
     36 H5'1       -1.7774    2.7844    2.1388 H         1 ATP         0.0623
     37 H5'2       -1.1657    2.0536    0.6322 H         1 ATP         0.0623
     38 H4'         0.0402    1.7079    3.4343 H         1 ATP         0.1115
     39 H3'         1.5907    1.4859    1.1353 H         1 ATP         0.0700
     40 HO3'        2.6839   -0.1150    2.2479 H         1 ATP         0.4307
     41 H2'        -0.0017    0.0018    0.0005 H         1 ATP         0.0742
     42 HO2'        2.0953   -0.9375    0.0709 H         1 ATP         0.4245
     43 H1'        -0.1998   -1.6319    2.6178 H         1 ATP         0.1193
     44 H8         -0.9745   -3.6312    1.2318 H         1 ATP         0.0779
     45 HN61       -5.2619   -3.7766   -0.9586 H         1 ATP         0.4486
     46 HN62       -6.4834   -2.5990   -1.3590 H         1 ATP         0.4486
     47 H2         -4.8317    1.4071    0.1930 H         1 ATP         0.0538
@<TRIPOS>BOND
     1    1    2 2
     2    1    3 1
     3    1    4 1
     4    1    8 1
     5    3   32 1
     6    4   33 1
     7    5    6 2
     8    5    7 1
     9    5    8 1
    10    5   12 1
    11    7   34 1
    12    9   10 2
    13    9   11 1
    14    9   12 1
    15    9   13 1
    16   11   35 1
    17   13   14 1
    18   14   15 1
    19   14   36 1
    20   14   37 1
    21   15   16 1
    22   15   17 1
    23   15   38 1
    24   16   21 1
    25   17   18 1
    26   17   19 1
    27   17   39 1
    28   18   40 1
    29   19   20 1
    30   19   21 1
    31   19   41 1
    32   20   42 1
    33   21   22 1
    34   21   43 1
    35   22   23 ar
    36   22   31 ar
    37   23   24 ar
    38   23   44 1
    39   24   25 ar
    40   25   26 ar
    41   25   31 ar
    42   26   27 1
    43   26   28 ar
    44   27   45 1
    45   27   46 1
    46   28   29 ar
    47   29   30 ar
    48   29   47 1
    49   30   31 ar
@<TRIPOS>SUBSTRUCTURE
     1 ATP         1 GROUP 0 A     ****
@<TRIPOS>MOLECULE
[[5-(6-aminopurin-9-yl)-3,4-dihydroxy-tetrahydrofuran-2-yl]methoxy-hydroxy-phosphoryl] phosphono hydrogen phosphate
   47    49     1     0     0
SMALL
USER_CHARGES

@<TRIPOS>ATOM
      1 PG         -4.8617    5.1643    2.8450 P.3       1 ATP         1.8096
      2 O1G        -4.1913    3.8578    3.1524 O.2       1 ATP        -0.7943
      3 O2G        -6.0000    5.1042    1.6994 O.3       1 ATP        -0.7926
      4 O3G        -5.6196    5.8577    4.0930 O.3       1 ATP        -0.7926
      5 PB         -2.8848    6.4173    1.0490 P.3       1 ATP         1.9396
      6 O1B        -3.5668    6.2953   -0.2819 O.2       1 ATP        -0.8346
      7 O2B        -2.0791    7.8005    1.2741 O.3       1 ATP        -0.8243
      8 O3B        -3.8656    6.3280    2.3297 O.3       1 ATP        -0.8110
      9 PA         -0.4423    4.8273    0.6350 P.3       1 ATP         1.8043
     10 O1A         0.5926    5.9096    0.5302 O.2       1 ATP        -0.8218
     11 O2A        -0.9606    4.2592   -0.7883 O.3       1 ATP        -0.8115
     12 O3A        -1.8026    5.2679    1.3869 O.3       1 ATP        -0.8294
     13 O5'         0.0173    3.5130    1.4593 O.3       1 ATP        -0.5751
     14 C5'        -0.8811    2.4285    1.6206 C.3       1 ATP         0.1702
     15 C4'        -0.1994    1.3333    2.4288 C.3       1 ATP         0.1167
     16 O4'        -1.1285    0.2356    2.5840 O.3       1 ATP        -0.4221
     17 C3'         1.0324    0.7610    1.7344 C.3       1 ATP         0.1072
     18 O3'         1.9175    0.2377    2.7247 O.3       1 ATP        -0.5896
     19 C2'         0.4468   -0.3802    0.9263 C.3       1 ATP         0.0668
     20 O2'         1.3993   -1.3703    0.5961 O.3       1 ATP        -0.5764
     21 C1'        -0.6159   -0.9100    1.8769 C.3       1 ATP         0.4327
     22 N9         -1.7127   -1.6108    1.2130 N.pl3     1 ATP        -0.7057
     23 C8         -2.8641   -1.0399    0.7392 C.ar      1 ATP         0.5352
     24 N7         -3.6659   -1.9257    0.1858 N.2       1 ATP        -0.5411
     25 C5         -3.0053   -3.1223    0.3069 C.ar      1 ATP        -0.2315
     26 C6         -3.3321   -4.4178   -0.0813 C.ar      1 ATP         0.7606
     27 N6         -4.5476   -4.6866   -0.7335 N.pl3     1 ATP        -0.9553
     28 N1         -2.4608   -5.4225    0.1773 N.ar      1 ATP        -0.7923
     29 C2         -1.3053   -5.1020    0.8081 C.ar      1 ATP         0.6867
     30 N3         -0.8788   -3.8921    1.2315 N.ar      1 ATP        -0.7305
     31 C4         -1.7870   -2.9477    0.9438 C.ar      1 ATP         0.5923
     32 HOG2       -5.7517    4.8075    0.7981 H         1 ATP         0.5059
     33 HOG3       -6.3491    5.3728    4.5344 H         1 ATP         0.5059
     34 HOB2       -2.5708    8.6482    1.2338 H         1 ATP         0.5086
     35 HOA2       -0.3121    3.8508   -1.4004 H         1 ATP         0.5057
     36 H5'1       -1.7774    2.7844    2.1388 H         1 ATP         0.0623
     37 H5'2       -1.1657    2.0536    0.6322 H         1 ATP         0.0623
     38 H4'         0.0402    1.7079    3.4343 H         1 ATP         0.1115
     39 H3'         1.5907    1.4859    1.1353 H         1 ATP         0.0700
     40 HO3'        2.6839   -0.1150    2.2479 H         1 ATP         0.4307
     41 H2'        -0.0017    0.0018    0.0005 H         1 ATP         0.0742
     42 HO2'        2.0953   -0.9375    0.0709 H         1 ATP         0.4245
     43 H1'        -0.1998   -1.6319    2.6178 H         1 ATP         0.1193
     44 H8         -3.0609    0.0200    0.8250 H         1 ATP         0.0779
     45 HN61       -5.2046   -3.9433   -0.8775 H         1 ATP         0.4486
     46 HN62       -4.7849   -5.6332   -0.9625 H         1 ATP         0.4486
     47 H2         -0.6318   -5.9307    0.9993 H         1 ATP         0.0538
@<TRIPOS>BOND
     1    1    2 2
     2    1    3 1
     3    1    4 1
     4    1    8 1
     5    3   32 1
     6    4   33 1
     7    5    6 2
     8    5    7 1
     9    5    8 1
    10    5   12 1
    11    7   34 1
    12    9   10 2
    13    9   11 1
    14    9   12 1
    15    9   13 1
    16   11   35 1
    17   13   14 1
    18   14   15 1
    19   14   36 1
    20   14   37 1
    21   15   16 1
    22   15   17 1
    23   15   38 1
    24   16   21 1
    25   17   18 1
    26   17   19 1
    27   17   39 1
    28   18   40 1
    29   19   20 1
    30   19   21 1
    31   19   41 1
    32   20   42 1
    33   21   22 1
    34   21   43 1
    35   22   23 ar
    36   22   31 ar
    37   23   24 ar
    38   23   44 1
    39   24   25 ar
    40   25   26 ar
    41   25   31 ar
    42   26   27 1
    43   26   28 ar
    44   27   45 1
    45   27   46 1
    46   28   29 ar
    47   29   30 ar
    48   29   47 1
    49   30   31 ar
@<TRIPOS>SUBSTRUCTURE
     1 ATP         1 GROUP 0 A     ****
@<TRIPOS>MOLECULE
[[5-(6-aminopurin-9-yl)-3,4-dihydroxy-tetrahydrofuran-2-yl]methoxy-hydroxy-phosphoryl] phosphono hydrogen phosphate
   47    49     1     0     0
SMALL
USER_CHARGES

@<TRIPOS>ATOM
      1 PG         -5.4575    3.6753   -2.4423 P.3       1 ATP         1.8096
      2 O1G        -6.7642    4.4037   -2.3276 O.2       1 ATP        -0.7943
      3 O2G        -5.5391    2.2135   -3.1265 O.3       1 ATP        -0.7926
      4 O3G        -4.3222    4.4334   -3.3078 O.3       1 ATP        -0.7926
      5 PB         -5.1741    2.5695    0.2781 P.3       1 ATP         1.9396
      6 O1B        -6.4238    3.0715    0.9392 O.2       1 ATP        -0.8346
      7 O2B        -5.2455    1.0376   -0.2332 O.3       1 ATP        -0.8243
      8 O3B        -4.7168    3.3943   -1.0337 O.3       1 ATP        -0.8110
      9 PA         -3.0702    3.8634    1.8796 P.3       1 ATP         1.8043
     10 O1A        -3.8938    4.6247    2.8774 O.2       1 ATP        -0.8218
     11 O2A        -2.5531    4.7476    0.6273 O.3       1 ATP        -0.8115
     12 O3A        -3.8363    2.6249    1.1802 O.3       1 ATP        -0.8294
     13 O5'        -1.7335    3.1724    2.4745 O.3       1 ATP        -0.5751
     14 C5'        -0.8811    2.4285    1.6206 C.3       1 ATP         0.1702
     15 C4'        -0.1994    1.3333    2.4288 C.3       1 ATP         0.1167
     16 O4'        -1.1285    0.2356    2.5840 O.3       1 ATP        -0.4221
     17 C3'         1.0324    0.7610    1.7344 C.3       1 ATP         0.1072
     18 O3'         1.9175    0.2377    2.7247 O.3       1 ATP        -0.5896
     19 C2'         0.4468   -0.3802    0.9263 C.3       1 ATP         0.0668
     20 O2'         1.3993   -1.3703    0.5961 O.3       1 ATP        -0.5764
     21 C1'        -0.6159   -0.9100    1.8769 C.3       1 ATP         0.4327
     22 N9         -1.7127   -1.6108    1.2130 N.pl3     1 ATP        -0.7057
     23 C8         -2.5476   -1.0844    0.2632 C.ar      1 ATP         0.5352
     24 N7         -3.4391   -1.9591   -0.1536 N.2       1 ATP        -0.5411
     25 C5         -3.1701   -3.1016    0.5574 C.ar      1 ATP        -0.2315
     26 C6         -3.7593   -4.3620    0.5656 C.ar      1 ATP         0.7606
     27 N6         -4.8512   -4.6493   -0.2712 N.pl3     1 ATP        -0.9553
     28 N1         -3.2659   -5.3144    1.3932 N.ar      1 ATP        -0.7923
     29 C2         -2.2122   -4.9785    2.1759 C.ar      1 ATP         0.6867
     30 N3         -1.5595   -3.7985    2.2572 N.ar      1 ATP        -0.7305
     31 C4         -2.0986   -2.9054    1.4140 C.ar      1 ATP         0.5923
     32 HOG2       -6.0988    1.5243   -2.7096 H         1 ATP         0.5059
     33 HOG3       -4.5030    4.6420   -4.2490 H         1 ATP         0.5059
     34 HOB2       -5.4138    0.3263    0.4208 H         1 ATP         0.5086
     35 HOA2       -3.2150    5.1788    0.0460 H         1 ATP         0.5057
     36 H5'1       -1.4796    1.9923    0.8143 H         1 ATP         0.0623
     37 H5'2       -0.1364    3.1037    1.1869 H         1 ATP         0.0623
     38 H4'         0.0402    1.7079    3.4343 H         1 ATP         0.1115
     39 H3'         1.5907    1.4859    1.1353 H         1 ATP         0.0700
     40 HO3'        2.6839   -0.1150    2.2479 H         1 ATP         0.4307
     41 H2'        -0.0017    0.0018    0.0005 H         1 ATP         0.0742
     42 HO2'        2.0953   -0.9375    0.0709 H         1 ATP         0.4245
     43 H1'        -0.1998   -1.6319    2.6178 H         1 ATP         0.1193
     44 H8         -2.4576   -0.0639   -0.0831 H         1 ATP         0.0779
     45 HN61       -5.2312   -5.5768   -0.2846 H         1 ATP         0.4486
     46 HN62       -5.1770   -3.9517   -0.9131 H         1 ATP         0.4486
     47 H2         -1.8433   -5.7650    2.8259 H         1 ATP         0.0538
@<TRIPOS>BOND
     1    1    2 2
     2    1    3 1
     3    1    4 1
     4    1    8 1
     5    3   32 1
     6    4   33 1
     7    5    6 2
     8    5    7 1
     9    5    8 1
    10    5   12 1
    11    7   34 1
    12    9   10 2
    13    9   11 1
    14    9   12 1
    15    9   13 1
    16   11   35 1
    17   13   14 1
    18   14   15 1
    19   14   36 1
    20   14   37 1
    21   15   16 1
    22   15   17 1
    23   15   38 1
    24   16   21 1
    25   17   18 1
    26   17   19 1
    27   17   39 1
    28   18   40 1
    29   19   20 1
    30   19   21 1
    31   19   41 1
    32   20   42 1
    33   21   22 1
    34   21   43 1
    35   22   23 ar
    36   22   31 ar
    37   23   24 ar
    38   23   44 1
    39   24   25 ar
    40   25   26 ar
    41   25   31 ar
    42   26   27 1
    43   26   28 ar
    44   27   45 1
    45   27   46 1
    46   28   29 ar
    47   29   30 ar
    48   29   47 1
    49   30   31 ar
@<TRIPOS>SUBSTRUCTURE
     1 ATP         1 GROUP 0 A     ****
@<TRIPOS>MOLECULE
[[5-(6-aminopurin-9-yl)-3,4-dihydroxy-tetrahydrofuran-2-yl]methoxy-hydroxy-phosphoryl] phosphono hydrogen phosphate
   47    49     1     0     0
SMALL
USER_CHARGES

@<TRIPOS>ATOM
      1 PG         -6.5504    0.1131   -0.6027 P.3       1 ATP         1.8096
      2 O1G        -6.7830    0.4124   -2.0544 O.2       1 ATP        -0.7943
      3 O2G        -7.8183    0.3668    0.3668 O.3       1 ATP        -0.7926
      4 O3G        -6.1249   -1.4115   -0.2753 O.3       1 ATP        -0.7926
      5 PB         -5.1741    2.5695    0.2781 P.3       1 ATP         1.9396
      6 O1B        -5.1324    3.3643   -0.9938 O.2       1 ATP        -0.8346
      7 O2B        -6.3585    2.9826    1.2977 O.3       1 ATP        -0.8243
      8 O3B        -5.3695    0.9777    0.0826 O.3       1 ATP        -0.8110
      9 PA         -3.0702    3.8634    1.8796 P.3       1 ATP         1.8043
     10 O1A        -3.8938    4.6247    2.8774 O.2       1 ATP        -0.8218
     11 O2A        -2.5531    4.7476    0.6273 O.3       1 ATP        -0.8115
     12 O3A        -3.8363    2.6249    1.1802 O.3       1 ATP        -0.8294
     13 O5'        -1.7335    3.1724    2.4745 O.3       1 ATP        -0.5751
     14 C5'        -0.8811    2.4285    1.6206 C.3       1 ATP         0.1702
     15 C4'        -0.1994    1.3333    2.4288 C.3       1 ATP         0.1167
     16 O4'        -1.1285    0.2356    2.5840 O.3       1 ATP        -0.4221
     17 C3'         1.0324    0.7610    1.7344 C.3       1 ATP         0.1072
     18 O3'         1.9175    0.2377    2.7247 O.3       1 ATP        -0.5896
     19 C2'         0.4468   -0.3802    0.9263 C.3       1 ATP         0.0668
     20 O2'         1.3993   -1.3703    0.5961 O.3       1 ATP        -0.5764
     21 C1'        -0.6159   -0.9100    1.8769 C.3       1 ATP         0.4327
     22 N9         -1.7127   -1.6108    1.2130 N.pl3     1 ATP        -0.7057
     23 C8         -2.5476   -1.0844    0.2632 C.ar      1 ATP         0.5352
     24 N7         -3.4391   -1.9591   -0.1536 N.2       1 ATP        -0.5411
     25 C5         -3.1701   -3.1016    0.5574 C.ar      1 ATP        -0.2315
     26 C6         -3.7593   -4.3620    0.5656 C.ar      1 ATP         0.7606
     27 N6         -4.8512   -4.6493   -0.2712 N.pl3     1 ATP        -0.9553
     28 N1         -3.2659   -5.3144    1.3932 N.ar      1 ATP        -0.7923
     29 C2         -2.2122   -4.9785    2.1759 C.ar      1 ATP         0.6867
     30 N3         -1.5595   -3.7985    2.2572 N.ar      1 ATP        -0.7305
     31 C4         -2.0986   -2.9054    1.4140 C.ar      1 ATP         0.5923
     32 HOG2       -8.2006    1.2683    0.4229 H         1 ATP         0.5059
     33 HOG3       -6.7366   -2.1381   -0.5201 H         1 ATP         0.5059
     34 HOB2       -6.3874    3.8994    1.6451 H         1 ATP         0.5086
     35 HOA2       -1.9810    5.5253    0.8002 H         1 ATP         0.5057
     36 H5'1       -1.4796    1.9923    0.8143 H         1 ATP         0.0623
     37 H5'2       -0.1364    3.1037    1.1869 H         1 ATP         0.0623
     38 H4'         0.0402    1.7079    3.4343 H         1 ATP         0.1115
     39 H3'         1.5907    1.4859    1.1353 H         1 ATP         0.0700
     40 HO3'        2.6839   -0.1150    2.2479 H         1 ATP         0.4307
     41 H2'        -0.0017    0.0018    0.0005 H         1 ATP         0.0742
     42 HO2'        2.0953   -0.9375    0.0709 H         1 ATP         0.4245
     43 H1'        -0.1998   -1.6319    2.6178 H         1 ATP         0.1193
     44 H8         -2.4576   -0.0639   -0.0831 H         1 ATP         0.0779
     45 HN61       -5.2312   -5.5768   -0.2846 H         1 ATP         0.4486
     46 HN62       -5.1770   -3.9517   -0.9131 H         1 ATP         0.4486
     47 H2         -1.8433   -5.7650    2.8259 H         1 ATP         0.0538
@<TRIPOS>BOND
     1    1    2 2
     2    1    3 1
     3    1    4 1
     4    1    8 1
     5    3   32 1
     6    4   33 1
     7    5    6 2
     8    5    7 1
     9    5    8 1
    10    5   12 1
    11    7   34 1
    12    9   10 2
    13    9   11 1
    14    9   12 1
    15    9   13 1
    16   11   35 1
    17   13   14 1
    18   14   15 1
    19   14   36 1
    20   14   37 1
    21   15   16 1
    22   15   17 1
    23   15   38 1
    24   16   21 1
    25   17   18 1
    26   17   19 1
    27   17   39 1
    28   18   40 1
    29   19   20 1
    30   19   21 1
    31   19   41 1
    32   20   42 1
    33   21   22 1
    34   21   43 1
    35   22   23 ar
    36   22   31 ar
    37   23   24 ar
    38   23   44 1
    39   24   25 ar
    40   25   26 ar
    41   25   31 ar
    42   26   27 1
    43   26   28 ar
    44   27   45 1
    45   27   46 1
    46   28   29 ar
    47   29   30 ar
    48   29   47 1
    49   30   31 ar
@<TRIPOS>SUBSTRUCTURE
     1 ATP         1 GROUP 0 A     ****
@<TRIPOS>MOLECULE
[[5-(6-aminopurin-9-yl)-3,4-dihydroxy-tetrahydrofuran-2-yl]methoxy-hydroxy-phosphoryl] phosphono hydrogen phosphate
   47    49     1     0     0
SMALL
USER_CHARGES

@<TRIPOS>ATOM
      1 PG         -5.9737    2.8596   -2.4198 P.3       1 ATP         1.8096
      2 O1G        -7.3572    3.3265   -2.0750 O.2       1 ATP        -0.7943
      3 O2G        -5.8467    1.2929   -2.7955 O.3       1 ATP        -0.7926
      4 O3G        -5.2914    3.6058   -3.6809 O.3       1 ATP        -0.7926
      5 PB         -4.3530    4.3772   -0.4772 P.3       1 ATP         1.9396
      6 O1B        -3.7136    5.4091   -1.3589 O.2       1 ATP        -0.8346
      7 O2B        -5.6462    4.8937    0.3438 O.3       1 ATP        -0.8243
      8 O3B        -4.8830    3.0575   -1.2438 O.3       1 ATP        -0.8110
      9 PA         -2.5920    4.4092    1.8815 P.3       1 ATP         1.8043
     10 O1A        -3.4583    5.1217    2.8791 O.2       1 ATP        -0.8218
     11 O2A        -1.5008    5.3534    1.1500 O.3       1 ATP        -0.8115
     12 O3A        -3.3958    3.7347    0.6531 O.3       1 ATP        -0.8294
     13 O5'        -1.7335    3.1724    2.4745 O.3       1 ATP        -0.5751
     14 C5'        -0.8811    2.4285    1.6206 C.3       1 ATP         0.1702
     15 C4'        -0.1994    1.3333    2.4288 C.3       1 ATP         0.1167
     16 O4'        -1.1285    0.2356    2.5840 O.3       1 ATP        -0.4221
     17 C3'         1.0324    0.7610    1.7344 C.3       1 ATP         0.1072
     18 O3'         1.9175    0.2377    2.7247 O.3       1 ATP        -0.5896
     19 C2'         0.4468   -0.3802    0.9263 C.3       1 ATP         0.0668
     20 O2'         1.3993   -1.3703    0.5961 O.3       1 ATP        -0.5764
     21 C1'        -0.6159   -0.9100    1.8769 C.3       1 ATP         0.4327
     22 N9         -1.7127   -1.6108    1.2130 N.pl3     1 ATP        -0.7057
     23 C8         -2.8641   -1.0399    0.7392 C.ar      1 ATP         0.5352
     24 N7         -3.6659   -1.9257    0.1858 N.2       1 ATP        -0.5411
     25 C5         -3.0053   -3.1223    0.3069 C.ar      1 ATP        -0.2315
     26 C6         -3.3321   -4.4178   -0.0813 C.ar      1 ATP         0.7606
     27 N6         -4.5476   -4.6866   -0.7335 N.pl3     1 ATP        -0.9553
     28 N1         -2.4608   -5.4225    0.1773 N.ar      1 ATP        -0.7923
     29 C2         -1.3053   -5.1020    0.8081 C.ar      1 ATP         0.6867
     30 N3         -0.8788   -3.8921    1.2315 N.ar      1 ATP        -0.7305
     31 C4         -1.7870   -2.9477    0.9438 C.ar      1 ATP         0.5923
     32 HOG2       -6.1074    0.6219   -2.1292 H         1 ATP         0.5059
     33 HOG3       -5.1566    4.5766   -3.6422 H         1 ATP         0.5059
     34 HOB2       -6.4230    5.2261   -0.1543 H         1 ATP         0.5086
     35 HOA2       -1.8137    6.1203    0.6247 H         1 ATP         0.5057
     36 H5'1       -1.4796    1.9923    0.8143 H         1 ATP         0.0623
     37 H5'2       -0.1364    3.1037    1.1869 H         1 ATP         0.0623
     38 H4'         0.0402    1.7079    3.4343 H         1 ATP         0.1115
     39 H3'         1.5907    1.4859    1.1353 H         1 ATP         0.0700
     40 HO3'        2.1521    0.9800    3.3017 H         1 ATP         0.4307
     41 H2'        -0.0017    0.0018    0.0005 H         1 ATP         0.0742
     42 HO2'        2.0953   -0.9375    0.0709 H         1 ATP         0.4245
     43 H1'        -0.1998   -1.6319    2.6178 H         1 ATP         0.1193
     44 H8         -3.0609    0.0200    0.8250 H         1 ATP         0.0779
     45 HN61       -4.7432   -5.6184   -1.0469 H         1 ATP         0.4486
     46 HN62       -5.1624   -3.9284   -0.9616 H         1 ATP         0.4486
     47 H2         -0.6318   -5.9307    0.9993 H         1 ATP         0.0538
@<TRIPOS>BOND
     1    1    2 2
     2    1    3 1
     3    1    4 1
     4    1    8 1
     5    3   32 1
     6    4   33 1
     7    5    6 2
     8    5    7 1
     9    5    8 1
    10    5   12 1
    11    7   34 1
    12    9   10 2
    13    9   11 1
    14    9   12 1
    15    9   13 1
    16   11   35 1
    17   13   14 1
    18   14   15 1
    19   14   36 1
    20   14   37 1
    21   15   16 1
    22   15   17 1
    23   15   38 1
    24   16   21 1
    25   17   18 1
    26   17   19 1
    27   17   39 1
    28   18   40 1
    29   19   20 1
    30   19   21 1
    31   19   41 1
    32   20   42 1
    33   21   22 1
    34   21   43 1
    35   22   23 ar
    36   22   31 ar
    37   23   24 ar
    38   23   44 1
    39   24   25 ar
    40   25   26 ar
    41   25   31 ar
    42   26   27 1
    43   26   28 ar
    44   27   45 1
    45   27   46 1
    46   28   29 ar
    47   29   30 ar
    48   29   47 1
    49   30   31 ar
@<TRIPOS>SUBSTRUCTURE
     1 ATP         1 GROUP 0 A     ****
@<TRIPOS>MOLECULE
[[5-(6-aminopurin-9-yl)-3,4-dihydroxy-tetrahydrofuran-2-yl]methoxy-hydroxy-phosphoryl] phosphono hydrogen phosphate
   47    49     1     0     0
SMALL
USER_CHARGES

@<TRIPOS>ATOM
      1 PG         -1.1883    8.4230    3.9407 P.3       1 ATP         1.8096
      2 O1G        -2.5023    9.0479    4.3064 O.2       1 ATP        -0.7943
      3 O2G        -0.1001    9.4293    3.2965 O.3       1 ATP        -0.7926
      4 O3G        -0.3884    7.7383    5.1672 O.3       1 ATP        -0.7926
      5 PB         -2.0666    5.8125    2.8837 P.3       1 ATP         1.9396
      6 O1B        -1.6606    4.8864    3.9921 O.2       1 ATP        -0.8346
      7 O2B        -3.6285    6.2289    2.8854 O.3       1 ATP        -0.8243
      8 O3B        -1.2887    7.2282    2.8572 O.3       1 ATP        -0.8110
      9 PA         -0.4423    4.8273    0.6350 P.3       1 ATP         1.8043
     10 O1A         0.5926    5.9096    0.5302 O.2       1 ATP        -0.8218
     11 O2A        -0.9606    4.2592   -0.7883 O.3       1 ATP        -0.8115
     12 O3A        -1.8026    5.2679    1.3869 O.3       1 ATP        -0.8294
     13 O5'         0.0173    3.5130    1.4593 O.3       1 ATP        -0.5751
     14 C5'        -0.8811    2.4285    1.6206 C.3       1 ATP         0.1702
     15 C4'        -0.1994    1.3333    2.4288 C.3       1 ATP         0.1167
     16 O4'        -1.1285    0.2356    2.5840 O.3       1 ATP        -0.4221
     17 C3'         1.0324    0.7610    1.7344 C.3       1 ATP         0.1072
     18 O3'         1.9175    0.2377    2.7247 O.3       1 ATP        -0.5896
     19 C2'         0.4468   -0.3802    0.9263 C.3       1 ATP         0.0668
     20 O2'         1.3993   -1.3703    0.5961 O.3       1 ATP        -0.5764
     21 C1'        -0.6159   -0.9100    1.8769 C.3       1 ATP         0.4327
     22 N9         -1.7127   -1.6108    1.2130 N.pl3     1 ATP        -0.7057
     23 C8         -2.8641   -1.0399    0.7392 C.ar      1 ATP         0.5352
     24 N7         -3.6659   -1.9257    0.1858 N.2       1 ATP        -0.5411
     25 C5         -3.0053   -3.1223    0.3069 C.ar      1 ATP        -0.2315
     26 C6         -3.3321   -4.4178   -0.0813 C.ar      1 ATP         0.7606
     27 N6         -4.5476   -4.6866   -0.7335 N.pl3     1 ATP        -0.9553
     28 N1         -2.4608   -5.4225    0.1773 N.ar      1 ATP        -0.7923
     29 C2         -1.3053   -5.1020    0.8081 C.ar      1 ATP         0.6867
     30 N3         -0.8788   -3.8921    1.2315 N.ar      1 ATP        -0.7305
     31 C4         -1.7870   -2.9477    0.9438 C.ar      1 ATP         0.5923
     32 HOG2        0.2020   10.2013    3.8207 H         1 ATP         0.5059
     33 HOG3       -0.8133    7.0046    5.6604 H         1 ATP         0.5059
     34 HOB2       -4.3074    5.5256    2.8041 H         1 ATP         0.5086
     35 HOA2       -1.3877    4.8776   -1.4185 H         1 ATP         0.5057
     36 H5'1       -1.7774    2.7844    2.1388 H         1 ATP         0.0623
     37 H5'2       -1.1657    2.0536    0.6322 H         1 ATP         0.0623
     38 H4'         0.0402    1.7079    3.4343 H         1 ATP         0.1115
     39 H3'         1.5907    1.4859    1.1353 H         1 ATP         0.0700
     40 HO3'        2.6839   -0.1150    2.2479 H         1 ATP         0.4307
     41 H2'        -0.0017    0.0018    0.0005 H         1 ATP         0.0742
     42 HO2'        2.0953   -0.9375    0.0709 H         1 ATP         0.4245
     43 H1'        -0.1998   -1.6319    2.6178 H         1 ATP         0.1193
     44 H8         -3.0609    0.0200    0.8250 H         1 ATP         0.0779
     45 HN61       -5.2046   -3.9433   -0.8775 H         1 ATP         0.4486
     46 HN62       -4.7849   -5.6332   -0.9625 H         1 ATP         0.4486
     47 H2         -0.6318   -5.9307    0.9993 H         1 ATP         0.0538
@<TRIPOS>BOND
     1    1    2 2
     2    1    3 1
     3    1    4 1
     4    1    8 1
     5    3   32 1
     6    4   33 1
     7    5    6 2
     8    5    7 1
     9    5    8 1
    10    5   12 1
    11    7   34 1
    12    9   10 2
    13    9   11 1
    14    9   12 1
    15    9   13 1
    16   11   35 1
    17   13   14 1
    18   14   15 1
    19   14   36 1
    20   14   37 1
    21   15   16 1
    22   15   17 1
    23   15   38 1
    24   16   21 1
    25   17   18 1
    26   17   19 1
    27   17   39 1
    28   18   40 1
    29   19   20 1
    30   19   21 1
    31   19   41 1
    32   20   42 1
    33   21   22 1
    34   21   43 1
    35   22   23 ar
    36   22   31 ar
    37   23   24 ar
    38   23   44 1
    39   24   25 ar
    40   25   26 ar
    41   25   31 ar
    42   26   27 1
    43   26   28 ar
    44   27   45 1
    45   27   46 1
    46   28   29 ar
    47   29   30 ar
    48   29   47 1
    49   30   31 ar
@<TRIPOS>SUBSTRUCTURE
     1 ATP         1 GROUP 0 A     ****
@<TRIPOS>MOLECULE
[[5-(6-aminopurin-9-yl)-3,4-dihydroxy-tetrahydrofuran-2-yl]methoxy-hydroxy-phosphoryl] phosphono hydrogen phosphate
   47    49     1     0     0
SMALL
USER_CHARGES

@<TRIPOS>ATOM
      1 PG         -6.1419    2.8554   -1.8570 P.3       1 ATP         1.8096
      2 O1G        -6.7366    1.5200   -2.1951 O.2       1 ATP        -0.7943
      3 O2G        -5.1885    3.4951   -2.9944 O.3       1 ATP        -0.7926
      4 O3G        -7.2130    4.0288   -1.5596 O.3       1 ATP        -0.7926
      5 PB         -5.5322    2.5053    1.0082 P.3       1 ATP         1.9396
      6 O1B        -6.5969    3.3469    1.6479 O.2       1 ATP        -0.8346
      7 O2B        -5.8464    0.9198    0.9800 O.3       1 ATP        -0.8243
      8 O3B        -5.2132    2.8640   -0.5345 O.3       1 ATP        -0.8110
      9 PA         -3.0702    3.8634    1.8796 P.3       1 ATP         1.8043
     10 O1A        -3.6344    4.9807    2.7082 O.2       1 ATP        -0.8218
     11 O2A        -2.6765    4.2860    0.3684 O.3       1 ATP        -0.8115
     12 O3A        -4.0660    2.6076    1.6762 O.3       1 ATP        -0.8294
     13 O5'        -1.7335    3.1724    2.4745 O.3       1 ATP        -0.5751
     14 C5'        -0.8811    2.4285    1.6206 C.3       1 ATP         0.1702
     15 C4'        -0.1994    1.3333    2.4288 C.3       1 ATP         0.1167
     16 O4'        -1.1285    0.2356    2.5840 O.3       1 ATP        -0.4221
     17 C3'         1.0324    0.7610    1.7344 C.3       1 ATP         0.1072
     18 O3'         1.9175    0.2377    2.7247 O.3       1 ATP        -0.5896
     19 C2'         0.4468   -0.3802    0.9263 C.3       1 ATP         0.0668
     20 O2'         1.3993   -1.3703    0.5961 O.3       1 ATP        -0.5764
     21 C1'        -0.6159   -0.9100    1.8769 C.3       1 ATP         0.4327
     22 N9         -1.7127   -1.6108    1.2130 N.pl3     1 ATP        -0.7057
     23 C8         -2.8641   -1.0399    0.7392 C.ar      1 ATP         0.5352
     24 N7         -3.6659   -1.9257    0.1858 N.2       1 ATP        -0.5411
     25 C5         -3.0053   -3.1223    0.3069 C.ar      1 ATP        -0.2315
     26 C6         -3.3321   -4.4178   -0.0813 C.ar      1 ATP         0.7606
     27 N6         -4.5476   -4.6866   -0.7335 N.pl3     1 ATP        -0.9553
     28 N1         -2.4608   -5.4225    0.1773 N.ar      1 ATP        -0.7923
     29 C2         -1.3053   -5.1020    0.8081 C.ar      1 ATP         0.6867
     30 N3         -0.8788   -3.8921    1.2315 N.ar      1 ATP        -0.7305
     31 C4         -1.7870   -2.9477    0.9438 C.ar      1 ATP         0.5923
     32 HOG2       -5.5649    3.6796   -3.8812 H         1 ATP         0.5059
     33 HOG3       -7.8488    3.9153   -0.8214 H         1 ATP         0.5059
     34 HOB2       -5.9782    0.4469    1.8292 H         1 ATP         0.5086
     35 HOA2       -2.0057    4.9884    0.2320 H         1 ATP         0.5057
     36 H5'1       -1.4796    1.9923    0.8143 H         1 ATP         0.0623
     37 H5'2       -0.1364    3.1037    1.1869 H         1 ATP         0.0623
     38 H4'         0.0402    1.7079    3.4343 H         1 ATP         0.1115
     39 H3'         1.5907    1.4859    1.1353 H         1 ATP         0.0700
     40 HO3'        2.6839   -0.1150    2.2479 H         1 ATP         0.4307
     41 H2'        -0.0017    0.0018    0.0005 H         1 ATP         0.0742
     42 HO2'        2.0953   -0.9375    0.0709 H         1 ATP         0.4245
     43 H1'        -0.1998   -1.6319    2.6178 H         1 ATP         0.1193
     44 H8         -3.0609    0.0200    0.8250 H         1 ATP         0.0779
     45 HN61       -5.2046   -3.9433   -0.8775 H         1 ATP         0.4486
     46 HN62       -4.7849   -5.6332   -0.9625 H         1 ATP         0.4486
     47 H2         -0.6318   -5.9307    0.9993 H         1 ATP         0.0538
@<TRIPOS>BOND
     1    1    2 2
     2    1    3 1
     3    1    4 1
     4    1    8 1
     5    3   32 1
     6    4   33 1
     7    5    6 2
     8    5    7 1
     9    5    8 1
    10    5   12 1
    11    7   34 1
    12    9   10 2
    13    9   11 1
    14    9   12 1
    15    9   13 1
    16   11   35 1
    17   13   14 1
    18   14   15 1
    19   14   36 1
    20   14   37 1
    21   15   16 1
    22   15   17 1
    23   15   38 1
    24   16   21 1
    25   17   18 1
    26   17   19 1
    27   17   39 1
    28   18   40 1
    29   19   20 1
    30   19   21 1
    31   19   41 1
    32   20   42 1
    33   21   22 1
    34   21   43 1
    35   22   23 ar
    36   22   31 ar
    37   23   24 ar
    38   23   44 1
    39   24   25 ar
    40   25   26 ar
    41   25   31 ar
    42   26   27 1
    43   26   28 ar
    44   27   45 1
    45   27   46 1
    46   28   29 ar
    47   29   30 ar
    48   29   47 1
    49   30   31 ar
@<TRIPOS>SUBSTRUCTURE
     1 ATP         1 GROUP 0 A     ****
@<TRIPOS>MOLECULE
[[5-(6-aminopurin-9-yl)-3,4-dihydroxy-tetrahydrofuran-2-yl]methoxy-hydroxy-phosphoryl] phosphono hydrogen phosphate
   47    49     1     0     0
SMALL
USER_CHARGES

@<TRIPOS>ATOM
      1 PG         -5.0656   -2.3991   -3.9987 P.3       1 ATP         1.8096
      2 O1G        -5.5336   -2.3915   -2.5733 O.2       1 ATP        -0.7943
      3 O2G        -4.3900   -3.7801   -4.4968 O.3       1 ATP        -0.7926
      4 O3G        -6.2155   -2.1235   -5.1007 O.3       1 ATP        -0.7926
      5 PB         -3.9758    0.3298   -4.2614 P.3       1 ATP         1.9396
      6 O1B        -5.0242    0.9932   -5.1051 O.2       1 ATP        -0.8346
      7 O2B        -4.0890    0.6312   -2.6773 O.3       1 ATP        -0.8243
      8 O3B        -3.9498   -1.2833   -4.3475 O.3       1 ATP        -0.8110
      9 PA         -1.6645    2.1131   -4.6401 P.3       1 ATP         1.8043
     10 O1A        -2.2408    3.1389   -5.5723 O.2       1 ATP        -0.8218
     11 O2A        -0.1353    1.6982   -4.9669 O.3       1 ATP        -0.8115
     12 O3A        -2.4476    0.7001   -4.6277 O.3       1 ATP        -0.8294
     13 O5'        -1.6513    2.5331   -3.0776 O.3       1 ATP        -0.5751
     14 C5'        -0.7794    1.8744   -2.1748 C.3       1 ATP         0.1702
     15 C4'        -0.9699    2.4597   -0.7819 C.3       1 ATP         0.1167
     16 O4'        -2.1475    1.8640   -0.2014 O.3       1 ATP        -0.4221
     17 C3'         0.1697    2.1347    0.1695 C.3       1 ATP         0.1072
     18 O3'         0.1809    3.0982    1.2223 O.3       1 ATP        -0.5896
     19 C2'        -0.2543    0.7880    0.7187 C.3       1 ATP         0.0668
     20 O2'         0.3606    0.4944    1.9582 O.3       1 ATP        -0.5764
     21 C1'        -1.7682    0.9516    0.8548 C.3       1 ATP         0.4327
     22 N9         -2.5926   -0.2553    0.7436 N.pl3     1 ATP        -0.7057
     23 C8         -2.6465   -1.0979   -0.3350 C.ar      1 ATP         0.5352
     24 N7         -3.4765   -2.1012   -0.1400 N.2       1 ATP        -0.5411
     25 C5         -3.9826   -1.8994    1.1194 C.ar      1 ATP        -0.2315
     26 C6         -4.8981   -2.6116    1.8877 C.ar      1 ATP         0.7606
     27 N6         -5.4931   -3.7842    1.3916 N.pl3     1 ATP        -0.9553
     28 N1         -5.2111   -2.1602    3.1262 N.ar      1 ATP        -0.7923
     29 C2         -4.6051   -1.0248    3.5500 C.ar      1 ATP         0.6867
     30 N3         -3.7075   -0.2510    2.9016 N.ar      1 ATP        -0.7305
     31 C4         -3.4448   -0.7551    1.6866 C.ar      1 ATP         0.5923
     32 HOG2       -4.9207   -4.6046   -4.4722 H         1 ATP         0.5059
     33 HOG3       -6.7087   -1.2761   -5.0706 H         1 ATP         0.5059
     34 HOB2       -4.0259    1.5588   -2.3649 H         1 ATP         0.5086
     35 HOA2        0.0731    1.3064   -5.8416 H         1 ATP         0.5057
     36 H5'1       -1.0111    0.8044   -2.1748 H         1 ATP         0.0623
     37 H5'2        0.2527    2.0160   -2.5113 H         1 ATP         0.0623
     38 H4'        -1.1469    3.5409   -0.8523 H         1 ATP         0.1115
     39 H3'         1.1601    2.1310   -0.2934 H         1 ATP         0.0700
     40 HO3'        0.9173    2.8584    1.8048 H         1 ATP         0.4307
     41 H2'        -0.0024   -0.0091    0.0062 H         1 ATP         0.0742
     42 HO2'        1.3225    0.4909    1.8095 H         1 ATP         0.4245
     43 H1'        -2.0584    1.4255    1.8301 H         1 ATP         0.1193
     44 H8         -2.0609   -0.9301   -1.2286 H         1 ATP         0.0779
     45 HN61       -6.1141   -4.3082    1.9786 H         1 ATP         0.4486
     46 HN62       -5.2181   -4.1341    0.4934 H         1 ATP         0.4486
     47 H2         -4.8793   -0.6924    4.5457 H         1 ATP         0.0538
@<TRIPOS>BOND
     1    1    2 2
     2    1    3 1
     3    1    4 1
     4    1    8 1
     5    3   32 1
     6    4   33 1
     7    5    6 2
     8    5    7 1
     9    5    8 1
    10    5   12 1
    11    7   34 1
    12    9   10 2
    13    9   11 1
    14    9   12 1
    15    9   13 1
    16   11   35 1
    17   13   14 1
    18   14   15 1
    19   14   36 1
    20   14   37 1
    21   15   16 1
    22   15   17 1
    23   15   38 1
    24   16   21 1
    25   17   18 1
    26   17   19 1
    27   17   39 1
    28   18   40 1
    29   19   20 1
    30   19   21 1
    31   19   41 1
    32   20   42 1
    33   21   22 1
    34   21   43 1
    35   22   23 ar
    36   22   31 ar
    37   23   24 ar
    38   23   44 1
    39   24   25 ar
    40   25   26 ar
    41   25   31 ar
    42   26   27 1
    43   26   28 ar
    44   27   45 1
    45   27   46 1
    46   28   29 ar
    47   29   30 ar
    48   29   47 1
    49   30   31 ar
@<TRIPOS>SUBSTRUCTURE
     1 ATP         1 GROUP 0 A     ****
@<TRIPOS>MOLECULE
[[5-(6-aminopurin-9-yl)-3,4-dihydroxy-tetrahydrofuran-2-yl]methoxy-hydroxy-phosphoryl] phosphono hydrogen phosphate
   47    49     1     0     0
SMALL
USER_CHARGES

@<TRIPOS>ATOM
      1 PG         -3.4799    6.1758   -2.6467 P.3       1 ATP         1.8096
      2 O1G        -4.5218    7.2527   -2.5714 O.2       1 ATP        -0.7943
      3 O2G        -3.7202    5.0606   -3.7914 O.3       1 ATP        -0.7926
      4 O3G        -1.9763    6.6939   -2.9354 O.3       1 ATP        -0.7926
      5 PB         -4.3530    4.3772   -0.4772 P.3       1 ATP         1.9396
      6 O1B        -5.5714    5.0890    0.0324 O.2       1 ATP        -0.8346
      7 O2B        -4.6559    3.1507   -1.4856 O.3       1 ATP        -0.8243
      8 O3B        -3.3133    5.3038   -1.2963 O.3       1 ATP        -0.8110
      9 PA         -2.5920    4.4092    1.8815 P.3       1 ATP         1.8043
     10 O1A        -3.4583    5.1217    2.8791 O.2       1 ATP        -0.8218
     11 O2A        -1.5008    5.3534    1.1500 O.3       1 ATP        -0.8115
     12 O3A        -3.3958    3.7347    0.6531 O.3       1 ATP        -0.8294
     13 O5'        -1.7335    3.1724    2.4745 O.3       1 ATP        -0.5751
     14 C5'        -0.8811    2.4285    1.6206 C.3       1 ATP         0.1702
     15 C4'        -0.1994    1.3333    2.4288 C.3       1 ATP         0.1167
     16 O4'        -1.1285    0.2356    2.5840 O.3       1 ATP        -0.4221
     17 C3'         1.0324    0.7610    1.7344 C.3       1 ATP         0.1072
     18 O3'         1.9175    0.2377    2.7247 O.3       1 ATP        -0.5896
     19 C2'         0.4468   -0.3802    0.9263 C.3       1 ATP         0.0668
     20 O2'         1.3993   -1.3703    0.5961 O.3       1 ATP        -0.5764
     21 C1'        -0.6159   -0.9100    1.8769 C.3       1 ATP         0.4327
     22 N9         -1.7127   -1.6108    1.2130 N.pl3     1 ATP        -0.7057
     23 C8         -2.8641   -1.0399    0.7392 C.ar      1 ATP         0.5352
     24 N7         -3.6659   -1.9257    0.1858 N.2       1 ATP        -0.5411
     25 C5         -3.0053   -3.1223    0.3069 C.ar      1 ATP        -0.2315
     26 C6         -3.3321   -4.4178   -0.0813 C.ar      1 ATP         0.7606
     27 N6         -4.5476   -4.6866   -0.7335 N.pl3     1 ATP        -0.9553
     28 N1         -2.4608   -5.4225    0.1773 N.ar      1 ATP        -0.7923
     29 C2         -1.3053   -5.1020    0.8081 C.ar      1 ATP         0.6867
     30 N3         -0.8788   -3.8921    1.2315 N.ar      1 ATP        -0.7305
     31 C4         -1.7870   -2.9477    0.9438 C.ar      1 ATP         0.5923
     32 HOG2       -3.7612    5.3439   -4.7295 H         1 ATP         0.5059
     33 HOG3       -1.5579    7.3145   -2.3013 H         1 ATP         0.5059
     34 HOB2       -5.1973    2.3972   -1.1674 H         1 ATP         0.5086
     35 HOA2       -0.8300    5.8144    1.6972 H         1 ATP         0.5057
     36 H5'1       -1.4796    1.9923    0.8143 H         1 ATP         0.0623
     37 H5'2       -0.1364    3.1037    1.1869 H         1 ATP         0.0623
     38 H4'         0.0402    1.7079    3.4343 H         1 ATP         0.1115
     39 H3'         1.5907    1.4859    1.1353 H         1 ATP         0.0700
     40 HO3'        2.1521    0.9800    3.3017 H         1 ATP         0.4307
     41 H2'        -0.0017    0.0018    0.0005 H         1 ATP         0.0742
     42 HO2'        0.9369   -2.0558    0.0825 H         1 ATP         0.4245
     43 H1'        -0.1998   -1.6319    2.6178 H         1 ATP         0.1193
     44 H8         -3.0609    0.0200    0.8250 H         1 ATP         0.0779
     45 HN61       -5.2046   -3.9433   -0.8775 H         1 ATP         0.4486
     46 HN62       -4.7849   -5.6332   -0.9625 H         1 ATP         0.4486
     47 H2         -0.6318   -5.9307    0.9993 H         1 ATP         0.0538
@<TRIPOS>BOND
     1    1    2 2
     2    1    3 1
     3    1    4 1
     4    1    8 1
     5    3   32 1
     6    4   33 1
     7    5    6 2
     8    5    7 1
     9    5    8 1
    10    5   12 1
    11    7   34 1
    12    9   10 2
    13    9   11 1
    14    9   12 1
    15    9   13 1
    16   11   35 1
    17   13   14 1
    18   14   15 1
    19   14   36 1
    20   14   37 1
    21   15   16 1
    22   15   17 1
    23   15   38 1
    24   16   21 1
    25   17   18 1
    26   17   19 1
    27   17   39 1
    28   18   40 1
    29   19   20 1
    30   19   21 1
    31   19   41 1
    32   20   42 1
    33   21   22 1
    34   21   43 1
    35   22   23 ar
    36   22   31 ar
    37   23   24 ar
    38   23   44 1
    39   24   25 ar
    40   25   26 ar
    41   25   31 ar
    42   26   27 1
    43   26   28 ar
    44   27   45 1
    45   27   46 1
    46   28   29 ar
    47   29   30 ar
    48   29   47 1
    49   30   31 ar
@<TRIPOS>SUBSTRUCTURE
     1 ATP         1 GROUP 0 A     ****
@<TRIPOS>MOLECULE
[[5-(6-aminopurin-9-yl)-3,4-dihydroxy-tetrahydrofuran-2-yl]methoxy-hydroxy-phosphoryl] phosphono hydrogen phosphate
   47    49     1     0     0
SMALL
USER_CHARGES

@<TRIPOS>ATOM
      1 PG         -4.7131    6.4268   -1.2665 P.3       1 ATP         1.8096
      2 O1G        -6.0493    6.4432   -0.5844 O.2       1 ATP        -0.7943
      3 O2G        -4.6255    5.5073   -2.5925 O.3       1 ATP        -0.7926
      4 O3G        -4.1819    7.8675   -1.7713 O.3       1 ATP        -0.7926
      5 PB         -2.8848    6.4173    1.0490 P.3       1 ATP         1.9396
      6 O1B        -2.3537    7.8201    1.0194 O.2       1 ATP        -0.8346
      7 O2B        -4.0769    6.1655    2.1113 O.3       1 ATP        -0.8243
      8 O3B        -3.4955    5.8886   -0.3503 O.3       1 ATP        -0.8110
      9 PA         -0.4423    4.8273    0.6350 P.3       1 ATP         1.8043
     10 O1A         0.5926    5.9096    0.5302 O.2       1 ATP        -0.8218
     11 O2A        -0.9606    4.2592   -0.7883 O.3       1 ATP        -0.8115
     12 O3A        -1.8026    5.2679    1.3869 O.3       1 ATP        -0.8294
     13 O5'         0.0173    3.5130    1.4593 O.3       1 ATP        -0.5751
     14 C5'        -0.8811    2.4285    1.6206 C.3       1 ATP         0.1702
     15 C4'        -0.1994    1.3333    2.4288 C.3       1 ATP         0.1167
     16 O4'        -1.1285    0.2356    2.5840 O.3       1 ATP        -0.4221
     17 C3'         1.0324    0.7610    1.7344 C.3       1 ATP         0.1072
     18 O3'         1.9175    0.2377    2.7247 O.3       1 ATP        -0.5896
     19 C2'         0.4468   -0.3802    0.9263 C.3       1 ATP         0.0668
     20 O2'         1.3993   -1.3703    0.5961 O.3       1 ATP        -0.5764
     21 C1'        -0.6159   -0.9100    1.8769 C.3       1 ATP         0.4327
     22 N9         -1.7127   -1.6108    1.2130 N.pl3     1 ATP        -0.7057
     23 C8         -2.8641   -1.0399    0.7392 C.ar      1 ATP         0.5352
     24 N7         -3.6659   -1.9257    0.1858 N.2       1 ATP        -0.5411
     25 C5         -3.0053   -3.1223    0.3069 C.ar      1 ATP        -0.2315
     26 C6         -3.3321   -4.4178   -0.0813 C.ar      1 ATP         0.7606
     27 N6         -4.5476   -4.6866   -0.7335 N.pl3     1 ATP        -0.9553
     28 N1         -2.4608   -5.4225    0.1773 N.ar      1 ATP        -0.7923
     29 C2         -1.3053   -5.1020    0.8081 C.ar      1 ATP         0.6867
     30 N3         -0.8788   -3.8921    1.2315 N.ar      1 ATP        -0.7305
     31 C4         -1.7870   -2.9477    0.9438 C.ar      1 ATP         0.5923
     32 HOG2       -5.2167    5.7072   -3.3492 H         1 ATP         0.5059
     33 HOG3       -4.0463    8.5812   -1.1123 H         1 ATP         0.5059
     34 HOB2       -3.9052    6.3241    3.0639 H         1 ATP         0.5086
     35 HOA2       -0.3121    3.8508   -1.4004 H         1 ATP         0.5057
     36 H5'1       -1.7774    2.7844    2.1388 H         1 ATP         0.0623
     37 H5'2       -1.1657    2.0536    0.6322 H         1 ATP         0.0623
     38 H4'         0.0402    1.7079    3.4343 H         1 ATP         0.1115
     39 H3'         1.5907    1.4859    1.1353 H         1 ATP         0.0700
     40 HO3'        2.6839   -0.1150    2.2479 H         1 ATP         0.4307
     41 H2'        -0.0017    0.0018    0.0005 H         1 ATP         0.0742
     42 HO2'        2.0953   -0.9375    0.0709 H         1 ATP         0.4245
     43 H1'        -0.1998   -1.6319    2.6178 H         1 ATP         0.1193
     44 H8         -3.0609    0.0200    0.8250 H         1 ATP         0.0779
     45 HN61       -5.2046   -3.9433   -0.8775 H         1 ATP         0.4486
     46 HN62       -4.7849   -5.6332   -0.9625 H         1 ATP         0.4486
     47 H2         -0.6318   -5.9307    0.9993 H         1 ATP         0.0538
@<TRIPOS>BOND
     1    1    2 2
     2    1    3 1
     3    1    4 1
     4    1    8 1
     5    3   32 1
     6    4   33 1
     7    5    6 2
     8    5    7 1
     9    5    8 1
    10    5   12 1
    11    7   34 1
    12    9   10 2
    13    9   11 1
    14    9   12 1
    15    9   13 1
    16   11   35 1
    17   13   14 1
    18   14   15 1
    19   14   36 1
    20   14   37 1
    21   15   16 1
    22   15   17 1
    23   15   38 1
    24   16   21 1
    25   17   18 1
    26   17   19 1
    27   17   39 1
    28   18   40 1
    29   19   20 1
    30   19   21 1
    31   19   41 1
    32   20   42 1
    33   21   22 1
    34   21   43 1
    35   22   23 ar
    36   22   31 ar
    37   23   24 ar
    38   23   44 1
    39   24   25 ar
    40   25   26 ar
    41   25   31 ar
    42   26   27 1
    43   26   28 ar
    44   27   45 1
    45   27   46 1
    46   28   29 ar
    47   29   30 ar
    48   29   47 1
    49   30   31 ar
@<TRIPOS>SUBSTRUCTURE
     1 ATP         1 GROUP 0 A     ****
@<TRIPOS>MOLECULE
[[5-(6-aminopurin-9-yl)-3,4-dihydroxy-tetrahydrofuran-2-yl]methoxy-hydroxy-phosphoryl] phosphono hydrogen phosphate
   47    49     1     0     0
SMALL
USER_CHARGES

@<TRIPOS>ATOM
      1 PG         -5.1229    7.2333    2.7893 P.3       1 ATP         1.8096
      2 O1G        -6.2575    7.2723    1.8083 O.2       1 ATP        -0.7943
      3 O2G        -4.4552    8.6648    3.1307 O.3       1 ATP        -0.7926
      4 O3G        -5.4931    6.6338    4.2440 O.3       1 ATP        -0.7926
      5 PB         -2.8848    6.4173    1.0490 P.3       1 ATP         1.9396
      6 O1B        -3.5668    6.2953   -0.2819 O.2       1 ATP        -0.8346
      7 O2B        -2.0791    7.8005    1.2741 O.3       1 ATP        -0.8243
      8 O3B        -3.8656    6.3280    2.3297 O.3       1 ATP        -0.8110
      9 PA         -0.4423    4.8273    0.6350 P.3       1 ATP         1.8043
     10 O1A         0.5926    5.9096    0.5302 O.2       1 ATP        -0.8218
     11 O2A        -0.9606    4.2592   -0.7883 O.3       1 ATP        -0.8115
     12 O3A        -1.8026    5.2679    1.3869 O.3       1 ATP        -0.8294
     13 O5'         0.0173    3.5130    1.4593 O.3       1 ATP        -0.5751
     14 C5'        -0.8811    2.4285    1.6206 C.3       1 ATP         0.1702
     15 C4'        -0.1994    1.3333    2.4288 C.3       1 ATP         0.1167
     16 O4'        -1.1285    0.2356    2.5840 O.3       1 ATP        -0.4221
     17 C3'         1.0324    0.7610    1.7344 C.3       1 ATP         0.1072
     18 O3'         1.9175    0.2377    2.7247 O.3       1 ATP        -0.5896
     19 C2'         0.4468   -0.3802    0.9263 C.3       1 ATP         0.0668
     20 O2'         1.3993   -1.3703    0.5961 O.3       1 ATP        -0.5764
     21 C1'        -0.6159   -0.9100    1.8769 C.3       1 ATP         0.4327
     22 N9         -1.7127   -1.6108    1.2130 N.pl3     1 ATP        -0.7057
     23 C8         -2.8641   -1.0399    0.7392 C.ar      1 ATP         0.5352
     24 N7         -3.6659   -1.9257    0.1858 N.2       1 ATP        -0.5411
     25 C5         -3.0053   -3.1223    0.3069 C.ar      1 ATP        -0.2315
     26 C6         -3.3321   -4.4178   -0.0813 C.ar      1 ATP         0.7606
     27 N6         -4.5476   -4.6866   -0.7335 N.pl3     1 ATP        -0.9553
     28 N1         -2.4608   -5.4225    0.1773 N.ar      1 ATP        -0.7923
     29 C2         -1.3053   -5.1020    0.8081 C.ar      1 ATP         0.6867
     30 N3         -0.8788   -3.8921    1.2315 N.ar      1 ATP        -0.7305
     31 C4         -1.7870   -2.9477    0.9438 C.ar      1 ATP         0.5923
     32 HOG2       -4.0534    9.1870    2.4042 H         1 ATP         0.5059
     33 HOG3       -6.1864    7.0770    4.7778 H         1 ATP         0.5059
     34 HOB2       -1.3462    8.0277    0.6632 H         1 ATP         0.5086
     35 HOA2       -0.3121    3.8508   -1.4004 H         1 ATP         0.5057
     36 H5'1       -1.7774    2.7844    2.1388 H         1 ATP         0.0623
     37 H5'2       -1.1657    2.0536    0.6322 H         1 ATP         0.0623
     38 H4'         0.0402    1.7079    3.4343 H         1 ATP         0.1115
     39 H3'         1.5907    1.4859    1.1353 H         1 ATP         0.0700
     40 HO3'        2.6839   -0.1150    2.2479 H         1 ATP         0.4307
     41 H2'        -0.0017    0.0018    0.0005 H         1 ATP         0.0742
     42 HO2'        2.0953   -0.9375    0.0709 H         1 ATP         0.4245
     43 H1'        -0.1998   -1.6319    2.6178 H         1 ATP         0.1193
     44 H8         -3.0609    0.0200    0.8250 H         1 ATP         0.0779
     45 HN61       -5.2046   -3.9433   -0.8775 H         1 ATP         0.4486
     46 HN62       -4.7849   -5.6332   -0.9625 H         1 ATP         0.4486
     47 H2         -0.6318   -5.9307    0.9993 H         1 ATP         0.0538
@<TRIPOS>BOND
     1    1    2 2
     2    1    3 1
     3    1    4 1
     4    1    8 1
     5    3   32 1
     6    4   33 1
     7    5    6 2
     8    5    7 1
     9    5    8 1
    10    5   12 1
    11    7   34 1
    12    9   10 2
    13    9   11 1
    14    9   12 1
    15    9   13 1
    16   11   35 1
    17   13   14 1
    18   14   15 1
    19   14   36 1
    20   14   37 1
    21   15   16 1
    22   15   17 1
    23   15   38 1
    24   16   21 1
    25   17   18 1
    26   17   19 1
    27   17   39 1
    28   18   40 1
    29   19   20 1
    30   19   21 1
    31   19   41 1
    32   20   42 1
    33   21   22 1
    34   21   43 1
    35   22   23 ar
    36   22   31 ar
    37   23   24 ar
    38   23   44 1
    39   24   25 ar
    40   25   26 ar
    41   25   31 ar
    42   26   27 1
    43   26   28 ar
    44   27   45 1
    45   27   46 1
    46   28   29 ar
    47   29   30 ar
    48   29   47 1
    49   30   31 ar
@<TRIPOS>SUBSTRUCTURE
     1 ATP         1 GROUP 0 A     ****
@<TRIPOS>MOLECULE
[[5-(6-aminopurin-9-yl)-3,4-dihydroxy-tetrahydrofuran-2-yl]methoxy-hydroxy-phosphoryl] phosphono hydrogen phosphate
   47    49     1     0     0
SMALL
USER_CHARGES

@<TRIPOS>ATOM
      1 PG         -1.1883    8.4230    3.9407 P.3       1 ATP         1.8096
      2 O1G        -2.5023    9.0479    4.3064 O.2       1 ATP        -0.7943
      3 O2G        -0.1001    9.4293    3.2965 O.3       1 ATP        -0.7926
      4 O3G        -0.3884    7.7383    5.1672 O.3       1 ATP        -0.7926
      5 PB         -2.0666    5.8125    2.8837 P.3       1 ATP         1.9396
      6 O1B        -1.6606    4.8864    3.9921 O.2       1 ATP        -0.8346
      7 O2B        -3.6285    6.2289    2.8854 O.3       1 ATP        -0.8243
      8 O3B        -1.2887    7.2282    2.8572 O.3       1 ATP        -0.8110
      9 PA         -0.4423    4.8273    0.6350 P.3       1 ATP         1.8043
     10 O1A         0.5926    5.9096    0.5302 O.2       1 ATP        -0.8218
     11 O2A        -0.9606    4.2592   -0.7883 O.3       1 ATP        -0.8115
     12 O3A        -1.8026    5.2679    1.3869 O.3       1 ATP        -0.8294
     13 O5'         0.0173    3.5130    1.4593 O.3       1 ATP        -0.5751
     14 C5'        -0.8811    2.4285    1.6206 C.3       1 ATP         0.1702
     15 C4'        -0.1994    1.3333    2.4288 C.3       1 ATP         0.1167
     16 O4'        -1.1285    0.2356    2.5840 O.3       1 ATP        -0.4221
     17 C3'         1.0324    0.7610    1.7344 C.3       1 ATP         0.1072
     18 O3'         1.9175    0.2377    2.7247 O.3       1 ATP        -0.5896
     19 C2'         0.4468   -0.3802    0.9263 C.3       1 ATP         0.0668
     20 O2'         1.3993   -1.3703    0.5961 O.3       1 ATP        -0.5764
     21 C1'        -0.6159   -0.9100    1.8769 C.3       1 ATP         0.4327
     22 N9         -1.7127   -1.6108    1.2130 N.pl3     1 ATP        -0.7057
     23 C8         -1.7712   -2.9546    0.9544 C.ar      1 ATP         0.5352
     24 N7         -2.8883   -3.2948    0.3462 N.2       1 ATP        -0.5411
     25 C5         -3.5834   -2.1202    0.2043 C.ar      1 ATP        -0.2315
     26 C6         -4.8225   -1.8251   -0.3554 C.ar      1 ATP         0.7606
     27 N6         -5.6154   -2.8394   -0.9189 N.pl3     1 ATP        -0.9553
     28 N1         -5.2589   -0.5425   -0.3507 N.ar      1 ATP        -0.7923
     29 C2         -4.4510    0.3913    0.2069 C.ar      1 ATP         0.6867
     30 N3         -3.2368    0.2296    0.7767 N.ar      1 ATP        -0.7305
     31 C4         -2.8684   -1.0596    0.7376 C.ar      1 ATP         0.5923
     32 HOG2        0.2020   10.2013    3.8207 H         1 ATP         0.5059
     33 HOG3       -0.8133    7.0046    5.6604 H         1 ATP         0.5059
     34 HOB2       -4.3074    5.5256    2.8041 H         1 ATP         0.5086
     35 HOA2       -1.3877    4.8776   -1.4185 H         1 ATP         0.5057
     36 H5'1       -1.7774    2.7844    2.1388 H         1 ATP         0.0623
     37 H5'2       -1.1657    2.0536    0.6322 H         1 ATP         0.0623
     38 H4'         0.0402    1.7079    3.4343 H         1 ATP         0.1115
     39 H3'         1.5907    1.4859    1.1353 H         1 ATP         0.0700
     40 HO3'        2.6839   -0.1150    2.2479 H         1 ATP         0.4307
     41 H2'        -0.0017    0.0018    0.0005 H         1 ATP         0.0742
     42 HO2'        2.0953   -0.9375    0.0709 H         1 ATP         0.4245
     43 H1'        -0.1998   -1.6319    2.6178 H         1 ATP         0.1193
     44 H8         -0.9745   -3.6312    1.2318 H         1 ATP         0.0779
     45 HN61       -5.2619   -3.7766   -0.9586 H         1 ATP         0.4486
     46 HN62       -6.4834   -2.5990   -1.3590 H         1 ATP         0.4486
     47 H2         -4.8317    1.4071    0.1930 H         1 ATP         0.0538
@<TRIPOS>BOND
     1    1    2 2
     2    1    3 1
     3    1    4 1
     4    1    8 1
     5    3   32 1
     6    4   33 1
     7    5    6 2
     8    5    7 1
     9    5    8 1
    10    5   12 1
    11    7   34 1
    12    9   10 2
    13    9   11 1
    14    9   12 1
    15    9   13 1
    16   11   35 1
    17   13   14 1
    18   14   15 1
    19   14   36 1
    20   14   37 1
    21   15   16 1
    22   15   17 1
    23   15   38 1
    24   16   21 1
    25   17   18 1
    26   17   19 1
    27   17   39 1
    28   18   40 1
    29   19   20 1
    30   19   21 1
    31   19   41 1
    32   20   42 1
    33   21   22 1
    34   21   43 1
    35   22   23 ar
    36   22   31 ar
    37   23   24 ar
    38   23   44 1
    39   24   25 ar
    40   25   26 ar
    41   25   31 ar
    42   26   27 1
    43   26   28 ar
    44   27   45 1
    45   27   46 1
    46   28   29 ar
    47   29   30 ar
    48   29   47 1
    49   30   31 ar
@<TRIPOS>SUBSTRUCTURE
     1 ATP         1 GROUP 0 A     ****
@<TRIPOS>MOLECULE
[[5-(6-aminopurin-9-yl)-3,4-dihydroxy-tetrahydrofuran-2-yl]methoxy-hydroxy-phosphoryl] phosphono hydrogen phosphate
   47    49     1     0     0
SMALL
USER_CHARGES

@<TRIPOS>ATOM
      1 PG         -4.7131    6.4268   -1.2665 P.3       1 ATP         1.8096
      2 O1G        -6.0493    6.4432   -0.5844 O.2       1 ATP        -0.7943
      3 O2G        -4.6255    5.5073   -2.5925 O.3       1 ATP        -0.7926
      4 O3G        -4.1819    7.8675   -1.7713 O.3       1 ATP        -0.7926
      5 PB         -2.8848    6.4173    1.0490 P.3       1 ATP         1.9396
      6 O1B        -2.3537    7.8201    1.0194 O.2       1 ATP        -0.8346
      7 O2B        -4.0769    6.1655    2.1113 O.3       1 ATP        -0.8243
      8 O3B        -3.4955    5.8886   -0.3503 O.3       1 ATP        -0.8110
      9 PA         -0.4423    4.8273    0.6350 P.3       1 ATP         1.8043
     10 O1A         0.5926    5.9096    0.5302 O.2       1 ATP        -0.8218
     11 O2A        -0.9606    4.2592   -0.7883 O.3       1 ATP        -0.8115
     12 O3A        -1.8026    5.2679    1.3869 O.3       1 ATP        -0.8294
     13 O5'         0.0173    3.5130    1.4593 O.3       1 ATP        -0.5751
     14 C5'        -0.8811    2.4285    1.6206 C.3       1 ATP         0.1702
     15 C4'        -0.1994    1.3333    2.4288 C.3       1 ATP         0.1167
     16 O4'        -1.1285    0.2356    2.5840 O.3       1 ATP        -0.4221
     17 C3'         1.0324    0.7610    1.7344 C.3       1 ATP         0.1072
     18 O3'         1.9175    0.2377    2.7247 O.3       1 ATP        -0.5896
     19 C2'         0.4468   -0.3802    0.9263 C.3       1 ATP         0.0668
     20 O2'         1.3993   -1.3703    0.5961 O.3       1 ATP        -0.5764
     21 C1'        -0.6159   -0.9100    1.8769 C.3       1 ATP         0.4327
     22 N9         -1.7127   -1.6108    1.2130 N.pl3     1 ATP        -0.7057
     23 C8         -1.7712   -2.9546    0.9544 C.ar      1 ATP         0.5352
     24 N7         -2.8883   -3.2948    0.3462 N.2       1 ATP        -0.5411
     25 C5         -3.5834   -2.1202    0.2043 C.ar      1 ATP        -0.2315
     26 C6         -4.8225   -1.8251   -0.3554 C.ar      1 ATP         0.7606
     27 N6         -5.6154   -2.8394   -0.9189 N.pl3     1 ATP        -0.9553
     28 N1         -5.2589   -0.5425   -0.3507 N.ar      1 ATP        -0.7923
     29 C2         -4.4510    0.3913    0.2069 C.ar      1 ATP         0.6867
     30 N3         -3.2368    0.2296    0.7767 N.ar      1 ATP        -0.7305
     31 C4         -2.8684   -1.0596    0.7376 C.ar      1 ATP         0.5923
     32 HOG2       -5.2167    5.7072   -3.3492 H         1 ATP         0.5059
     33 HOG3       -4.0463    8.5812   -1.1123 H         1 ATP         0.5059
     34 HOB2       -3.9052    6.3241    3.0639 H         1 ATP         0.5086
     35 HOA2       -0.3121    3.8508   -1.4004 H         1 ATP         0.5057
     36 H5'1       -1.7774    2.7844    2.1388 H         1 ATP         0.0623
     37 H5'2       -1.1657    2.0536    0.6322 H         1 ATP         0.0623
     38 H4'         0.0402    1.7079    3.4343 H         1 ATP         0.1115
     39 H3'         1.5907    1.4859    1.1353 H         1 ATP         0.0700
     40 HO3'        2.6839   -0.1150    2.2479 H         1 ATP         0.4307
     41 H2'        -0.0017    0.0018    0.0005 H         1 ATP         0.0742
     42 HO2'        2.0953   -0.9375    0.0709 H         1 ATP         0.4245
     43 H1'        -0.1998   -1.6319    2.6178 H         1 ATP         0.1193
     44 H8         -0.9745   -3.6312    1.2318 H         1 ATP         0.0779
     45 HN61       -5.2619   -3.7766   -0.9586 H         1 ATP         0.4486
     46 HN62       -6.4834   -2.5990   -1.3590 H         1 ATP         0.4486
     47 H2         -4.8317    1.4071    0.1930 H         1 ATP         0.0538
@<TRIPOS>BOND
     1    1    2 2
     2    1    3 1
     3    1    4 1
     4    1    8 1
     5    3   32 1
     6    4   33 1
     7    5    6 2
     8    5    7 1
     9    5    8 1
    10    5   12 1
    11    7   34 1
    12    9   10 2
    13    9   11 1
    14    9   12 1
    15    9   13 1
    16   11   35 1
    17   13   14 1
    18   14   15 1
    19   14   36 1
    20   14   37 1
    21   15   16 1
    22   15   17 1
    23   15   38 1
    24   16   21 1
    25   17   18 1
    26   17   19 1
    27   17   39 1
    28   18   40 1
    29   19   20 1
    30   19   21 1
    31   19   41 1
    32   20   42 1
    33   21   22 1
    34   21   43 1
    35   22   23 ar
    36   22   31 ar
    37   23   24 ar
    38   23   44 1
    39   24   25 ar
    40   25   26 ar
    41   25   31 ar
    42   26   27 1
    43   26   28 ar
    44   27   45 1
    45   27   46 1
    46   28   29 ar
    47   29   30 ar
    48   29   47 1
    49   30   31 ar
@<TRIPOS>SUBSTRUCTURE
     1 ATP         1 GROUP 0 A     ****
@<TRIPOS>MOLECULE
[[5-(6-aminopurin-9-yl)-3,4-dihydroxy-tetrahydrofuran-2-yl]methoxy-hydroxy-phosphoryl] phosphono hydrogen phosphate
   47    49     1     0     0
SMALL
USER_CHARGES

@<TRIPOS>ATOM
      1 PG         -1.7255   -2.7582   -3.7475 P.3       1 ATP         1.8096
      2 O1G        -1.4316   -1.9745   -2.5023 O.2       1 ATP        -0.7943
      3 O2G        -0.4381   -3.4155   -4.4702 O.3       1 ATP        -0.7926
      4 O3G        -2.7273   -4.0112   -3.5500 O.3       1 ATP        -0.7926
      5 PB         -1.9533   -0.5998   -5.7458 P.3       1 ATP         1.9396
      6 O1B        -0.6742   -0.7628   -6.5128 O.2       1 ATP        -0.8346
      7 O2B        -3.2398   -0.2154   -6.6460 O.3       1 ATP        -0.8243
      8 O3B        -2.4307   -1.9086   -4.9277 O.3       1 ATP        -0.8110
      9 PA         -1.6645    2.1131   -4.6401 P.3       1 ATP         1.8043
     10 O1A        -2.6279    2.8793   -5.4993 O.2       1 ATP        -0.8218
     11 O2A        -0.1197    2.2227   -5.1080 O.3       1 ATP        -0.8115
     12 O3A        -1.9328    0.5210   -4.5839 O.3       1 ATP        -0.8294
     13 O5'        -1.6513    2.5331   -3.0776 O.3       1 ATP        -0.5751
     14 C5'        -0.7794    1.8744   -2.1748 C.3       1 ATP         0.1702
     15 C4'        -0.9699    2.4597   -0.7819 C.3       1 ATP         0.1167
     16 O4'        -2.1475    1.8640   -0.2014 O.3       1 ATP        -0.4221
     17 C3'         0.1697    2.1347    0.1695 C.3       1 ATP         0.1072
     18 O3'         0.1809    3.0982    1.2223 O.3       1 ATP        -0.5896
     19 C2'        -0.2543    0.7880    0.7187 C.3       1 ATP         0.0668
     20 O2'         0.3606    0.4944    1.9582 O.3       1 ATP        -0.5764
     21 C1'        -1.7682    0.9516    0.8548 C.3       1 ATP         0.4327
     22 N9         -2.5926   -0.2553    0.7436 N.pl3     1 ATP        -0.7057
     23 C8         -3.5599   -0.4866   -0.1983 C.ar      1 ATP         0.5352
     24 N7         -4.1294   -1.6639   -0.0461 N.2       1 ATP        -0.5411
     25 C5         -3.5041   -2.2191    1.0420 C.ar      1 ATP        -0.2315
     26 C6         -3.6604   -3.4390    1.6925 C.ar      1 ATP         0.7606
     27 N6         -4.6108   -4.3735    1.2468 N.pl3     1 ATP        -0.9553
     28 N1         -2.8820   -3.7179    2.7657 N.ar      1 ATP        -0.7923
     29 C2         -1.9837   -2.7784    3.1481 C.ar      1 ATP         0.6867
     30 N3         -1.7408   -1.5668    2.6022 N.ar      1 ATP        -0.7305
     31 C4         -2.5438   -1.3578    1.5483 C.ar      1 ATP         0.5923
     32 HOG2        0.1095   -4.0589   -3.9720 H         1 ATP         0.5059
     33 HOG3       -3.6343   -3.8458   -3.2151 H         1 ATP         0.5059
     34 HOB2       -3.5215   -0.8288   -7.3578 H         1 ATP         0.5086
     35 HOA2        0.1274    1.9110   -6.0045 H         1 ATP         0.5057
     36 H5'1       -1.0111    0.8044   -2.1748 H         1 ATP         0.0623
     37 H5'2        0.2527    2.0160   -2.5113 H         1 ATP         0.0623
     38 H4'        -1.1469    3.5409   -0.8523 H         1 ATP         0.1115
     39 H3'         1.1601    2.1310   -0.2934 H         1 ATP         0.0700
     40 HO3'        0.3098    3.9616    0.8017 H         1 ATP         0.4307
     41 H2'        -0.0024   -0.0091    0.0062 H         1 ATP         0.0742
     42 HO2'        0.0384   -0.3797    2.2403 H         1 ATP         0.4245
     43 H1'        -2.0584    1.4255    1.8301 H         1 ATP         0.1193
     44 H8         -3.8030    0.2355   -0.9657 H         1 ATP         0.0779
     45 HN61       -4.6753   -5.2653    1.6999 H         1 ATP         0.4486
     46 HN62       -5.1476   -4.1759    0.4235 H         1 ATP         0.4486
     47 H2         -1.3778   -3.0348    4.0107 H         1 ATP         0.0538
@<TRIPOS>BOND
     1    1    2 2
     2    1    3 1
     3    1    4 1
     4    1    8 1
     5    3   32 1
     6    4   33 1
     7    5    6 2
     8    5    7 1
     9    5    8 1
    10    5   12 1
    11    7   34 1
    12    9   10 2
    13    9   11 1
    14    9   12 1
    15    9   13 1
    16   11   35 1
    17   13   14 1
    18   14   15 1
    19   14   36 1
    20   14   37 1
    21   15   16 1
    22   15   17 1
    23   15   38 1
    24   16   21 1
    25   17   18 1
    26   17   19 1
    27   17   39 1
    28   18   40 1
    29   19   20 1
    30   19   21 1
    31   19   41 1
    32   20   42 1
    33   21   22 1
    34   21   43 1
    35   22   23 ar
    36   22   31 ar
    37   23   24 ar
    38   23   44 1
    39   24   25 ar
    40   25   26 ar
    41   25   31 ar
    42   26   27 1
    43   26   28 ar
    44   27   45 1
    45   27   46 1
    46   28   29 ar
    47   29   30 ar
    48   29   47 1
    49   30   31 ar
@<TRIPOS>SUBSTRUCTURE
     1 ATP         1 GROUP 0 A     ****
@<TRIPOS>MOLECULE
[[5-(6-aminopurin-9-yl)-3,4-dihydroxy-tetrahydrofuran-2-yl]methoxy-hydroxy-phosphoryl] phosphono hydrogen phosphate
   47    49     1     0     0
SMALL
USER_CHARGES

@<TRIPOS>ATOM
      1 PG         -5.1229    7.2333    2.7893 P.3       1 ATP         1.8096
      2 O1G        -6.2575    7.2723    1.8083 O.2       1 ATP        -0.7943
      3 O2G        -4.4552    8.6648    3.1307 O.3       1 ATP        -0.7926
      4 O3G        -5.4931    6.6338    4.2440 O.3       1 ATP        -0.7926
      5 PB         -2.8848    6.4173    1.0490 P.3       1 ATP         1.9396
      6 O1B        -3.5668    6.2953   -0.2819 O.2       1 ATP        -0.8346
      7 O2B        -2.0791    7.8005    1.2741 O.3       1 ATP        -0.8243
      8 O3B        -3.8656    6.3280    2.3297 O.3       1 ATP        -0.8110
      9 PA         -0.4423    4.8273    0.6350 P.3       1 ATP         1.8043
     10 O1A         0.5926    5.9096    0.5302 O.2       1 ATP        -0.8218
     11 O2A        -0.9606    4.2592   -0.7883 O.3       1 ATP        -0.8115
     12 O3A        -1.8026    5.2679    1.3869 O.3       1 ATP        -0.8294
     13 O5'         0.0173    3.5130    1.4593 O.3       1 ATP        -0.5751
     14 C5'        -0.8811    2.4285    1.6206 C.3       1 ATP         0.1702
     15 C4'        -0.1994    1.3333    2.4288 C.3       1 ATP         0.1167
     16 O4'        -1.1285    0.2356    2.5840 O.3       1 ATP        -0.4221
     17 C3'         1.0324    0.7610    1.7344 C.3       1 ATP         0.1072
     18 O3'         1.9175    0.2377    2.7247 O.3       1 ATP        -0.5896
     19 C2'         0.4468   -0.3802    0.9263 C.3       1 ATP         0.0668
     20 O2'         1.3993   -1.3703    0.5961 O.3       1 ATP        -0.5764
     21 C1'        -0.6159   -0.9100    1.8769 C.3       1 ATP         0.4327
     22 N9         -1.7127   -1.6108    1.2130 N.pl3     1 ATP        -0.7057
     23 C8         -1.7712   -2.9546    0.9544 C.ar      1 ATP         0.5352
     24 N7         -2.8883   -3.2948    0.3462 N.2       1 ATP        -0.5411
     25 C5         -3.5834   -2.1202    0.2043 C.ar      1 ATP        -0.2315
     26 C6         -4.8225   -1.8251   -0.3554 C.ar      1 ATP         0.7606
     27 N6         -5.6154   -2.8394   -0.9189 N.pl3     1 ATP        -0.9553
     28 N1         -5.2589   -0.5425   -0.3507 N.ar      1 ATP        -0.7923
     29 C2         -4.4510    0.3913    0.2069 C.ar      1 ATP         0.6867
     30 N3         -3.2368    0.2296    0.7767 N.ar      1 ATP        -0.7305
     31 C4         -2.8684   -1.0596    0.7376 C.ar      1 ATP         0.5923
     32 HOG2       -4.0534    9.1870    2.4042 H         1 ATP         0.5059
     33 HOG3       -6.1864    7.0770    4.7778 H         1 ATP         0.5059
     34 HOB2       -1.3462    8.0277    0.6632 H         1 ATP         0.5086
     35 HOA2       -0.3121    3.8508   -1.4004 H         1 ATP         0.5057
     36 H5'1       -1.7774    2.7844    2.1388 H         1 ATP         0.0623
     37 H5'2       -1.1657    2.0536    0.6322 H         1 ATP         0.0623
     38 H4'         0.0402    1.7079    3.4343 H         1 ATP         0.1115
     39 H3'         1.5907    1.4859    1.1353 H         1 ATP         0.0700
     40 HO3'        2.6839   -0.1150    2.2479 H         1 ATP         0.4307
     41 H2'        -0.0017    0.0018    0.0005 H         1 ATP         0.0742
     42 HO2'        2.0953   -0.9375    0.0709 H         1 ATP         0.4245
     43 H1'        -0.1998   -1.6319    2.6178 H         1 ATP         0.1193
     44 H8         -0.9745   -3.6312    1.2318 H         1 ATP         0.0779
     45 HN61       -5.2619   -3.7766   -0.9586 H         1 ATP         0.4486
     46 HN62       -6.4834   -2.5990   -1.3590 H         1 ATP         0.4486
     47 H2         -4.8317    1.4071    0.1930 H         1 ATP         0.0538
@<TRIPOS>BOND
     1    1    2 2
     2    1    3 1
     3    1    4 1
     4    1    8 1
     5    3   32 1
     6    4   33 1
     7    5    6 2
     8    5    7 1
     9    5    8 1
    10    5   12 1
    11    7   34 1
    12    9   10 2
    13    9   11 1
    14    9   12 1
    15    9   13 1
    16   11   35 1
    17   13   14 1
    18   14   15 1
    19   14   36 1
    20   14   37 1
    21   15   16 1
    22   15   17 1
    23   15   38 1
    24   16   21 1
    25   17   18 1
    26   17   19 1
    27   17   39 1
    28   18   40 1
    29   19   20 1
    30   19   21 1
    31   19   41 1
    32   20   42 1
    33   21   22 1
    34   21   43 1
    35   22   23 ar
    36   22   31 ar
    37   23   24 ar
    38   23   44 1
    39   24   25 ar
    40   25   26 ar
    41   25   31 ar
    42   26   27 1
    43   26   28 ar
    44   27   45 1
    45   27   46 1
    46   28   29 ar
    47   29   30 ar
    48   29   47 1
    49   30   31 ar
@<TRIPOS>SUBSTRUCTURE
     1 ATP         1 GROUP 0 A     ****
@<TRIPOS>MOLECULE
[[5-(6-aminopurin-9-yl)-3,4-dihydroxy-tetrahydrofuran-2-yl]methoxy-hydroxy-phosphoryl] phosphono hydrogen phosphate
   47    49     1     0     0
SMALL
USER_CHARGES

@<TRIPOS>ATOM
      1 PG         -0.4026   -2.9139   -3.5012 P.3       1 ATP         1.8096
      2 O1G         0.9876   -3.0963   -4.0353 O.2       1 ATP        -0.7943
      3 O2G        -1.0861   -4.2426   -2.8856 O.3       1 ATP        -0.7926
      4 O3G        -0.5439   -1.8310   -2.3096 O.3       1 ATP        -0.7926
      5 PB         -1.5472   -1.0649   -5.4949 P.3       1 ATP         1.9396
      6 O1B        -0.3881   -0.8722   -6.4277 O.2       1 ATP        -0.8346
      7 O2B        -2.9908   -1.1567   -6.2165 O.3       1 ATP        -0.8243
      8 O3B        -1.4811   -2.4021   -4.5904 O.3       1 ATP        -0.8110
      9 PA         -1.9943    1.6687   -4.4986 P.3       1 ATP         1.8043
     10 O1A        -3.2495    2.0420   -5.2325 O.2       1 ATP        -0.8218
     11 O2A        -0.6342    2.2216   -5.1779 O.3       1 ATP        -0.8115
     12 O3A        -1.7370    0.0789   -4.3714 O.3       1 ATP        -0.8294
     13 O5'        -1.9200    2.1712   -2.9623 O.3       1 ATP        -0.5751
     14 C5'        -0.7794    1.8744   -2.1748 C.3       1 ATP         0.1702
     15 C4'        -0.9699    2.4597   -0.7819 C.3       1 ATP         0.1167
     16 O4'        -2.1475    1.8640   -0.2014 O.3       1 ATP        -0.4221
     17 C3'         0.1697    2.1347    0.1695 C.3       1 ATP         0.1072
     18 O3'         0.1809    3.0982    1.2223 O.3       1 ATP        -0.5896
     19 C2'        -0.2543    0.7880    0.7187 C.3       1 ATP         0.0668
     20 O2'         0.3606    0.4944    1.9582 O.3       1 ATP        -0.5764
     21 C1'        -1.7682    0.9516    0.8548 C.3       1 ATP         0.4327
     22 N9         -2.5926   -0.2553    0.7436 N.pl3     1 ATP        -0.7057
     23 C8         -3.5599   -0.4866   -0.1983 C.ar      1 ATP         0.5352
     24 N7         -4.1294   -1.6639   -0.0461 N.2       1 ATP        -0.5411
     25 C5         -3.5041   -2.2191    1.0420 C.ar      1 ATP        -0.2315
     26 C6         -3.6604   -3.4390    1.6925 C.ar      1 ATP         0.7606
     27 N6         -4.6108   -4.3735    1.2468 N.pl3     1 ATP        -0.9553
     28 N1         -2.8820   -3.7179    2.7657 N.ar      1 ATP        -0.7923
     29 C2         -1.9837   -2.7784    3.1481 C.ar      1 ATP         0.6867
     30 N3         -1.7408   -1.5668    2.6022 N.ar      1 ATP        -0.7305
     31 C4         -2.5438   -1.3578    1.5483 C.ar      1 ATP         0.5923
     32 HOG2       -0.6545   -4.6914   -2.1277 H         1 ATP         0.5059
     33 HOG3       -1.4287   -1.6675   -1.9190 H         1 ATP         0.5059
     34 HOB2       -3.1507   -1.8714   -6.8690 H         1 ATP         0.5086
     35 HOA2       -0.5173    3.1895   -5.2852 H         1 ATP         0.5057
     36 H5'1       -0.6595    0.7876   -2.1196 H         1 ATP         0.0623
     37 H5'2        0.1048    2.3070   -2.6539 H         1 ATP         0.0623
     38 H4'        -1.1469    3.5409   -0.8523 H         1 ATP         0.1115
     39 H3'         1.1601    2.1310   -0.2934 H         1 ATP         0.0700
     40 HO3'        0.9173    2.8584    1.8048 H         1 ATP         0.4307
     41 H2'        -0.0024   -0.0091    0.0062 H         1 ATP         0.0742
     42 HO2'        1.3225    0.4909    1.8095 H         1 ATP         0.4245
     43 H1'        -2.0584    1.4255    1.8301 H         1 ATP         0.1193
     44 H8         -3.8030    0.2355   -0.9657 H         1 ATP         0.0779
     45 HN61       -5.2130   -4.1372    0.4810 H         1 ATP         0.4486
     46 HN62       -4.7404   -5.2263    1.7576 H         1 ATP         0.4486
     47 H2         -1.3778   -3.0348    4.0107 H         1 ATP         0.0538
@<TRIPOS>BOND
     1    1    2 2
     2    1    3 1
     3    1    4 1
     4    1    8 1
     5    3   32 1
     6    4   33 1
     7    5    6 2
     8    5    7 1
     9    5    8 1
    10    5   12 1
    11    7   34 1
    12    9   10 2
    13    9   11 1
    14    9   12 1
    15    9   13 1
    16   11   35 1
    17   13   14 1
    18   14   15 1
    19   14   36 1
    20   14   37 1
    21   15   16 1
    22   15   17 1
    23   15   38 1
    24   16   21 1
    25   17   18 1
    26   17   19 1
    27   17   39 1
    28   18   40 1
    29   19   20 1
    30   19   21 1
    31   19   41 1
    32   20   42 1
    33   21   22 1
    34   21   43 1
    35   22   23 ar
    36   22   31 ar
    37   23   24 ar
    38   23   44 1
    39   24   25 ar
    40   25   26 ar
    41   25   31 ar
    42   26   27 1
    43   26   28 ar
    44   27   45 1
    45   27   46 1
    46   28   29 ar
    47   29   30 ar
    48   29   47 1
    49   30   31 ar
@<TRIPOS>SUBSTRUCTURE
     1 ATP         1 GROUP 0 A     ****
@<TRIPOS>MOLECULE
[[5-(6-aminopurin-9-yl)-3,4-dihydroxy-tetrahydrofuran-2-yl]methoxy-hydroxy-phosphoryl] phosphono hydrogen phosphate
   47    49     1     0     0
SMALL
USER_CHARGES

@<TRIPOS>ATOM
      1 PG         -7.2973    2.9213    1.6381 P.3       1 ATP         1.8096
      2 O1G        -8.0985    2.6770    0.3933 O.2       1 ATP        -0.7943
      3 O2G        -7.8601    4.0883    2.6041 O.3       1 ATP        -0.7926
      4 O3G        -7.1579    1.6494    2.6258 O.3       1 ATP        -0.7926
      5 PB         -4.5455    2.6017    0.6237 P.3       1 ATP         1.9396
      6 O1B        -4.1622    1.2730    1.2056 O.2       1 ATP        -0.8346
      7 O2B        -5.0179    2.5547   -0.9216 O.3       1 ATP        -0.8243
      8 O3B        -5.7617    3.3521    1.3774 O.3       1 ATP        -0.8110
      9 PA         -2.5920    4.4092    1.8815 P.3       1 ATP         1.8043
     10 O1A        -3.4583    5.1217    2.8791 O.2       1 ATP        -0.8218
     11 O2A        -1.5008    5.3534    1.1500 O.3       1 ATP        -0.8115
     12 O3A        -3.3958    3.7347    0.6531 O.3       1 ATP        -0.8294
     13 O5'        -1.7335    3.1724    2.4745 O.3       1 ATP        -0.5751
     14 C5'        -0.8811    2.4285    1.6206 C.3       1 ATP         0.1702
     15 C4'        -0.1994    1.3333    2.4288 C.3       1 ATP         0.1167
     16 O4'        -1.1285    0.2356    2.5840 O.3       1 ATP        -0.4221
     17 C3'         1.0324    0.7610    1.7344 C.3       1 ATP         0.1072
     18 O3'         1.9175    0.2377    2.7247 O.3       1 ATP        -0.5896
     19 C2'         0.4468   -0.3802    0.9263 C.3       1 ATP         0.0668
     20 O2'         1.3993   -1.3703    0.5961 O.3       1 ATP        -0.5764
     21 C1'        -0.6159   -0.9100    1.8769 C.3       1 ATP         0.4327
     22 N9         -1.7127   -1.6108    1.2130 N.pl3     1 ATP        -0.7057
     23 C8         -2.5476   -1.0844    0.2632 C.ar      1 ATP         0.5352
     24 N7         -3.4391   -1.9591   -0.1536 N.2       1 ATP        -0.5411
     25 C5         -3.1701   -3.1016    0.5574 C.ar      1 ATP        -0.2315
     26 C6         -3.7593   -4.3620    0.5656 C.ar      1 ATP         0.7606
     27 N6         -4.8512   -4.6493   -0.2712 N.pl3     1 ATP        -0.9553
     28 N1         -3.2659   -5.3144    1.3932 N.ar      1 ATP        -0.7923
     29 C2         -2.2122   -4.9785    2.1759 C.ar      1 ATP         0.6867
     30 N3         -1.5595   -3.7985    2.2572 N.ar      1 ATP        -0.7305
     31 C4         -2.0986   -2.9054    1.4140 C.ar      1 ATP         0.5923
     32 HOG2       -8.7622    4.0008    2.9792 H         1 ATP         0.5059
     33 HOG3       -6.7349    0.8310    2.2891 H         1 ATP         0.5059
     34 HOB2       -4.3912    2.2236   -1.5996 H         1 ATP         0.5086
     35 HOA2       -1.8137    6.1203    0.6247 H         1 ATP         0.5057
     36 H5'1       -1.4796    1.9923    0.8143 H         1 ATP         0.0623
     37 H5'2       -0.1364    3.1037    1.1869 H         1 ATP         0.0623
     38 H4'         0.0402    1.7079    3.4343 H         1 ATP         0.1115
     39 H3'         1.5907    1.4859    1.1353 H         1 ATP         0.0700
     40 HO3'        2.6839   -0.1150    2.2479 H         1 ATP         0.4307
     41 H2'        -0.0017    0.0018    0.0005 H         1 ATP         0.0742
     42 HO2'        2.0953   -0.9375    0.0709 H         1 ATP         0.4245
     43 H1'        -0.1998   -1.6319    2.6178 H         1 ATP         0.1193
     44 H8         -2.4576   -0.0639   -0.0831 H         1 ATP         0.0779
     45 HN61       -5.2371   -3.9234   -0.8448 H         1 ATP         0.4486
     46 HN62       -5.2909   -5.5485   -0.2160 H         1 ATP         0.4486
     47 H2         -1.8433   -5.7650    2.8259 H         1 ATP         0.0538
@<TRIPOS>BOND
     1    1    2 2
     2    1    3 1
     3    1    4 1
     4    1    8 1
     5    3   32 1
     6    4   33 1
     7    5    6 2
     8    5    7 1
     9    5    8 1
    10    5   12 1
    11    7   34 1
    12    9   10 2
    13    9   11 1
    14    9   12 1
    15    9   13 1
    16   11   35 1
    17   13   14 1
    18   14   15 1
    19   14   36 1
    20   14   37 1
    21   15   16 1
    22   15   17 1
    23   15   38 1
    24   16   21 1
    25   17   18 1
    26   17   19 1
    27   17   39 1
    28   18   40 1
    29   19   20 1
    30   19   21 1
    31   19   41 1
    32   20   42 1
    33   21   22 1
    34   21   43 1
    35   22   23 ar
    36   22   31 ar
    37   23   24 ar
    38   23   44 1
    39   24   25 ar
    40   25   26 ar
    41   25   31 ar
    42   26   27 1
    43   26   28 ar
    44   27   45 1
    45   27   46 1
    46   28   29 ar
    47   29   30 ar
    48   29   47 1
    49   30   31 ar
@<TRIPOS>SUBSTRUCTURE
     1 ATP         1 GROUP 0 A     ****
@<TRIPOS>MOLECULE
[[5-(6-aminopurin-9-yl)-3,4-dihydroxy-tetrahydrofuran-2-yl]methoxy-hydroxy-phosphoryl] phosphono hydrogen phosphate
   47    49     1     0     0
SMALL
USER_CHARGES

@<TRIPOS>ATOM
      1 PG         -7.1583    2.6972   -1.0435 P.3       1 ATP         1.8096
      2 O1G        -8.3406    3.4164   -0.4639 O.2       1 ATP        -0.7943
      3 O2G        -7.2976    1.0889   -1.1205 O.3       1 ATP        -0.7926
      4 O3G        -6.7748    3.1149   -2.5572 O.3       1 ATP        -0.7926
      5 PB         -4.9241    4.2537    0.0920 P.3       1 ATP         1.9396
      6 O1B        -4.4492    5.0188   -1.1081 O.2       1 ATP        -0.8346
      7 O2B        -5.8849    5.0860    1.0906 O.3       1 ATP        -0.8243
      8 O3B        -5.7738    2.9203   -0.2405 O.3       1 ATP        -0.8110
      9 PA         -2.5920    4.4092    1.8815 P.3       1 ATP         1.8043
     10 O1A        -3.0763    5.3978    2.9020 O.2       1 ATP        -0.8218
     11 O2A        -1.6526    5.0459    0.7285 O.3       1 ATP        -0.8115
     12 O3A        -3.7645    3.6699    1.0517 O.3       1 ATP        -0.8294
     13 O5'        -1.7335    3.1724    2.4745 O.3       1 ATP        -0.5751
     14 C5'        -0.8811    2.4285    1.6206 C.3       1 ATP         0.1702
     15 C4'        -0.1994    1.3333    2.4288 C.3       1 ATP         0.1167
     16 O4'        -1.1285    0.2356    2.5840 O.3       1 ATP        -0.4221
     17 C3'         1.0324    0.7610    1.7344 C.3       1 ATP         0.1072
     18 O3'         1.9175    0.2377    2.7247 O.3       1 ATP        -0.5896
     19 C2'         0.4468   -0.3802    0.9263 C.3       1 ATP         0.0668
     20 O2'         1.3993   -1.3703    0.5961 O.3       1 ATP        -0.5764
     21 C1'        -0.6159   -0.9100    1.8769 C.3       1 ATP         0.4327
     22 N9         -1.7127   -1.6108    1.2130 N.pl3     1 ATP        -0.7057
     23 C8         -2.0877   -2.9101    1.4304 C.ar      1 ATP         0.5352
     24 N7         -3.1152   -3.2613    0.6857 N.2       1 ATP        -0.5411
     25 C5         -3.4186   -2.1409   -0.0462 C.ar      1 ATP        -0.2315
     26 C6         -4.3953   -1.8809   -1.0023 C.ar      1 ATP         0.7606
     27 N6         -5.3118   -2.8767   -1.3812 N.pl3     1 ATP        -0.9553
     28 N1         -4.4538   -0.6507   -1.5667 N.ar      1 ATP        -0.7923
     29 C2         -3.5442    0.2679   -1.1609 C.ar      1 ATP         0.6867
     30 N3         -2.5561    0.1361   -0.2491 N.ar      1 ATP        -0.7305
     31 C4         -2.5568   -1.1019    0.2674 C.ar      1 ATP         0.5923
     32 HOG2       -7.4327    0.5835   -0.2909 H         1 ATP         0.5059
     33 HOG3       -6.5373    4.0475   -2.7466 H         1 ATP         0.5059
     34 HOB2       -5.5400    5.9029    1.5099 H         1 ATP         0.5086
     35 HOA2       -0.8149    5.4849    0.9882 H         1 ATP         0.5057
     36 H5'1       -1.4796    1.9923    0.8143 H         1 ATP         0.0623
     37 H5'2       -0.1364    3.1037    1.1869 H         1 ATP         0.0623
     38 H4'         0.0402    1.7079    3.4343 H         1 ATP         0.1115
     39 H3'         1.5907    1.4859    1.1353 H         1 ATP         0.0700
     40 HO3'        2.6839   -0.1150    2.2479 H         1 ATP         0.4307
     41 H2'        -0.0017    0.0018    0.0005 H         1 ATP         0.0742
     42 HO2'        2.0953   -0.9375    0.0709 H         1 ATP         0.4245
     43 H1'        -0.1998   -1.6319    2.6178 H         1 ATP         0.1193
     44 H8         -1.5778   -3.5473    2.1399 H         1 ATP         0.0779
     45 HN61       -6.0371   -2.6553   -2.0368 H         1 ATP         0.4486
     46 HN62       -5.2887   -3.7677   -0.9225 H         1 ATP         0.4486
     47 H2         -3.6201    1.2414   -1.6336 H         1 ATP         0.0538
@<TRIPOS>BOND
     1    1    2 2
     2    1    3 1
     3    1    4 1
     4    1    8 1
     5    3   32 1
     6    4   33 1
     7    5    6 2
     8    5    7 1
     9    5    8 1
    10    5   12 1
    11    7   34 1
    12    9   10 2
    13    9   11 1
    14    9   12 1
    15    9   13 1
    16   11   35 1
    17   13   14 1
    18   14   15 1
    19   14   36 1
    20   14   37 1
    21   15   16 1
    22   15   17 1
    23   15   38 1
    24   16   21 1
    25   17   18 1
    26   17   19 1
    27   17   39 1
    28   18   40 1
    29   19   20 1
    30   19   21 1
    31   19   41 1
    32   20   42 1
    33   21   22 1
    34   21   43 1
    35   22   23 ar
    36   22   31 ar
    37   23   24 ar
    38   23   44 1
    39   24   25 ar
    40   25   26 ar
    41   25   31 ar
    42   26   27 1
    43   26   28 ar
    44   27   45 1
    45   27   46 1
    46   28   29 ar
    47   29   30 ar
    48   29   47 1
    49   30   31 ar
@<TRIPOS>SUBSTRUCTURE
     1 ATP         1 GROUP 0 A     ****
@<TRIPOS>MOLECULE
[[5-(6-aminopurin-9-yl)-3,4-dihydroxy-tetrahydrofuran-2-yl]methoxy-hydroxy-phosphoryl] phosphono hydrogen phosphate
   47    49     1     0     0
SMALL
USER_CHARGES

@<TRIPOS>ATOM
      1 PG         -7.1583    2.6972   -1.0435 P.3       1 ATP         1.8096
      2 O1G        -7.1309    3.1469   -2.4746 O.2       1 ATP        -0.7943
      3 O2G        -8.2594    3.4255   -0.1114 O.3       1 ATP        -0.7926
      4 O3G        -7.4595    1.1244   -0.8235 O.3       1 ATP        -0.7926
      5 PB         -4.9241    4.2537    0.0920 P.3       1 ATP         1.9396
      6 O1B        -4.4492    5.0188   -1.1081 O.2       1 ATP        -0.8346
      7 O2B        -5.8849    5.0860    1.0906 O.3       1 ATP        -0.8243
      8 O3B        -5.7738    2.9203   -0.2405 O.3       1 ATP        -0.8110
      9 PA         -2.5920    4.4092    1.8815 P.3       1 ATP         1.8043
     10 O1A        -3.0763    5.3978    2.9020 O.2       1 ATP        -0.8218
     11 O2A        -1.6526    5.0459    0.7285 O.3       1 ATP        -0.8115
     12 O3A        -3.7645    3.6699    1.0517 O.3       1 ATP        -0.8294
     13 O5'        -1.7335    3.1724    2.4745 O.3       1 ATP        -0.5751
     14 C5'        -0.8811    2.4285    1.6206 C.3       1 ATP         0.1702
     15 C4'        -0.1994    1.3333    2.4288 C.3       1 ATP         0.1167
     16 O4'        -1.1285    0.2356    2.5840 O.3       1 ATP        -0.4221
     17 C3'         1.0324    0.7610    1.7344 C.3       1 ATP         0.1072
     18 O3'         1.9175    0.2377    2.7247 O.3       1 ATP        -0.5896
     19 C2'         0.4468   -0.3802    0.9263 C.3       1 ATP         0.0668
     20 O2'         1.3993   -1.3703    0.5961 O.3       1 ATP        -0.5764
     21 C1'        -0.6159   -0.9100    1.8769 C.3       1 ATP         0.4327
     22 N9         -1.7127   -1.6108    1.2130 N.pl3     1 ATP        -0.7057
     23 C8         -2.8641   -1.0399    0.7392 C.ar      1 ATP         0.5352
     24 N7         -3.6659   -1.9257    0.1858 N.2       1 ATP        -0.5411
     25 C5         -3.0053   -3.1223    0.3069 C.ar      1 ATP        -0.2315
     26 C6         -3.3321   -4.4178   -0.0813 C.ar      1 ATP         0.7606
     27 N6         -4.5476   -4.6866   -0.7335 N.pl3     1 ATP        -0.9553
     28 N1         -2.4608   -5.4225    0.1773 N.ar      1 ATP        -0.7923
     29 C2         -1.3053   -5.1020    0.8081 C.ar      1 ATP         0.6867
     30 N3         -0.8788   -3.8921    1.2315 N.ar      1 ATP        -0.7305
     31 C4         -1.7870   -2.9477    0.9438 C.ar      1 ATP         0.5923
     32 HOG2       -8.2172    4.3988    0.0016 H         1 ATP         0.5059
     33 HOG3       -8.3054    0.7524   -1.1524 H         1 ATP         0.5059
     34 HOB2       -5.5400    5.9029    1.5099 H         1 ATP         0.5086
     35 HOA2       -0.8149    5.4849    0.9882 H         1 ATP         0.5057
     36 H5'1       -1.4796    1.9923    0.8143 H         1 ATP         0.0623
     37 H5'2       -0.1364    3.1037    1.1869 H         1 ATP         0.0623
     38 H4'         0.0402    1.7079    3.4343 H         1 ATP         0.1115
     39 H3'         1.5907    1.4859    1.1353 H         1 ATP         0.0700
     40 HO3'        2.6839   -0.1150    2.2479 H         1 ATP         0.4307
     41 H2'        -0.0017    0.0018    0.0005 H         1 ATP         0.0742
     42 HO2'        2.0953   -0.9375    0.0709 H         1 ATP         0.4245
     43 H1'        -0.1998   -1.6319    2.6178 H         1 ATP         0.1193
     44 H8         -3.0609    0.0200    0.8250 H         1 ATP         0.0779
     45 HN61       -4.7432   -5.6184   -1.0469 H         1 ATP         0.4486
     46 HN62       -5.1624   -3.9284   -0.9616 H         1 ATP         0.4486
     47 H2         -0.6318   -5.9307    0.9993 H         1 ATP         0.0538
@<TRIPOS>BOND
     1    1    2 2
     2    1    3 1
     3    1    4 1
     4    1    8 1
     5    3   32 1
     6    4   33 1
     7    5    6 2
     8    5    7 1
     9    5    8 1
    10    5   12 1
    11    7   34 1
    12    9   10 2
    13    9   11 1
    14    9   12 1
    15    9   13 1
    16   11   35 1
    17   13   14 1
    18   14   15 1
    19   14   36 1
    20   14   37 1
    21   15   16 1
    22   15   17 1
    23   15   38 1
    24   16   21 1
    25   17   18 1
    26   17   19 1
    27   17   39 1
    28   18   40 1
    29   19   20 1
    30   19   21 1
    31   19   41 1
    32   20   42 1
    33   21   22 1
    34   21   43 1
    35   22   23 ar
    36   22   31 ar
    37   23   24 ar
    38   23   44 1
    39   24   25 ar
    40   25   26 ar
    41   25   31 ar
    42   26   27 1
    43   26   28 ar
    44   27   45 1
    45   27   46 1
    46   28   29 ar
    47   29   30 ar
    48   29   47 1
    49   30   31 ar
@<TRIPOS>SUBSTRUCTURE
     1 ATP         1 GROUP 0 A     ****
@<TRIPOS>MOLECULE
[[5-(6-aminopurin-9-yl)-3,4-dihydroxy-tetrahydrofuran-2-yl]methoxy-hydroxy-phosphoryl] phosphono hydrogen phosphate
   47    49     1     0     0
SMALL
USER_CHARGES

@<TRIPOS>ATOM
      1 PG         -4.7340    6.8091    2.1123 P.3       1 ATP         1.8096
      2 O1G        -4.6861    6.6499    0.6212 O.2       1 ATP        -0.7943
      3 O2G        -4.4350    8.3006    2.6579 O.3       1 ATP        -0.7926
      4 O3G        -6.1488    6.4339    2.7980 O.3       1 ATP        -0.7926
      5 PB         -2.0666    5.8125    2.8837 P.3       1 ATP         1.9396
      6 O1B        -1.3614    7.0867    3.2443 O.2       1 ATP        -0.8346
      7 O2B        -1.7170    4.5515    3.8329 O.3       1 ATP        -0.8243
      8 O3B        -3.6799    5.8902    2.9223 O.3       1 ATP        -0.8110
      9 PA         -0.4423    4.8273    0.6350 P.3       1 ATP         1.8043
     10 O1A         0.5926    5.9096    0.5302 O.2       1 ATP        -0.8218
     11 O2A        -0.9606    4.2592   -0.7883 O.3       1 ATP        -0.8115
     12 O3A        -1.8026    5.2679    1.3869 O.3       1 ATP        -0.8294
     13 O5'         0.0173    3.5130    1.4593 O.3       1 ATP        -0.5751
     14 C5'        -0.8811    2.4285    1.6206 C.3       1 ATP         0.1702
     15 C4'        -0.1994    1.3333    2.4288 C.3       1 ATP         0.1167
     16 O4'        -1.1285    0.2356    2.5840 O.3       1 ATP        -0.4221
     17 C3'         1.0324    0.7610    1.7344 C.3       1 ATP         0.1072
     18 O3'         1.9175    0.2377    2.7247 O.3       1 ATP        -0.5896
     19 C2'         0.4468   -0.3802    0.9263 C.3       1 ATP         0.0668
     20 O2'         1.3993   -1.3703    0.5961 O.3       1 ATP        -0.5764
     21 C1'        -0.6159   -0.9100    1.8769 C.3       1 ATP         0.4327
     22 N9         -1.7127   -1.6108    1.2130 N.pl3     1 ATP        -0.7057
     23 C8         -2.8641   -1.0399    0.7392 C.ar      1 ATP         0.5352
     24 N7         -3.6659   -1.9257    0.1858 N.2       1 ATP        -0.5411
     25 C5         -3.0053   -3.1223    0.3069 C.ar      1 ATP        -0.2315
     26 C6         -3.3321   -4.4178   -0.0813 C.ar      1 ATP         0.7606
     27 N6         -4.5476   -4.6866   -0.7335 N.pl3     1 ATP        -0.9553
     28 N1         -2.4608   -5.4225    0.1773 N.ar      1 ATP        -0.7923
     29 C2         -1.3053   -5.1020    0.8081 C.ar      1 ATP         0.6867
     30 N3         -0.8788   -3.8921    1.2315 N.ar      1 ATP        -0.7305
     31 C4         -1.7870   -2.9477    0.9438 C.ar      1 ATP         0.5923
     32 HOG2       -3.5698    8.7160    2.4555 H         1 ATP         0.5059
     33 HOG3       -6.9520    6.9297    2.5314 H         1 ATP         0.5059
     34 HOB2       -1.9111    4.6115    4.7925 H         1 ATP         0.5086
     35 HOA2       -1.3877    4.8776   -1.4185 H         1 ATP         0.5057
     36 H5'1       -1.7774    2.7844    2.1388 H         1 ATP         0.0623
     37 H5'2       -1.1657    2.0536    0.6322 H         1 ATP         0.0623
     38 H4'         0.0402    1.7079    3.4343 H         1 ATP         0.1115
     39 H3'         1.5907    1.4859    1.1353 H         1 ATP         0.0700
     40 HO3'        2.6839   -0.1150    2.2479 H         1 ATP         0.4307
     41 H2'        -0.0017    0.0018    0.0005 H         1 ATP         0.0742
     42 HO2'        2.0953   -0.9375    0.0709 H         1 ATP         0.4245
     43 H1'        -0.1998   -1.6319    2.6178 H         1 ATP         0.1193
     44 H8         -3.0609    0.0200    0.8250 H         1 ATP         0.0779
     45 HN61       -5.2046   -3.9433   -0.8775 H         1 ATP         0.4486
     46 HN62       -4.7849   -5.6332   -0.9625 H         1 ATP         0.4486
     47 H2         -0.6318   -5.9307    0.9993 H         1 ATP         0.0538
@<TRIPOS>BOND
     1    1    2 2
     2    1    3 1
     3    1    4 1
     4    1    8 1
     5    3   32 1
     6    4   33 1
     7    5    6 2
     8    5    7 1
     9    5    8 1
    10    5   12 1
    11    7   34 1
    12    9   10 2
    13    9   11 1
    14    9   12 1
    15    9   13 1
    16   11   35 1
    17   13   14 1
    18   14   15 1
    19   14   36 1
    20   14   37 1
    21   15   16 1
    22   15   17 1
    23   15   38 1
    24   16   21 1
    25   17   18 1
    26   17   19 1
    27   17   39 1
    28   18   40 1
    29   19   20 1
    30   19   21 1
    31   19   41 1
    32   20   42 1
    33   21   22 1
    34   21   43 1
    35   22   23 ar
    36   22   31 ar
    37   23   24 ar
    38   23   44 1
    39   24   25 ar
    40   25   26 ar
    41   25   31 ar
    42   26   27 1
    43   26   28 ar
    44   27   45 1
    45   27   46 1
    46   28   29 ar
    47   29   30 ar
    48   29   47 1
    49   30   31 ar
@<TRIPOS>SUBSTRUCTURE
     1 ATP         1 GROUP 0 A     ****
@<TRIPOS>MOLECULE
[[5-(6-aminopurin-9-yl)-3,4-dihydroxy-tetrahydrofuran-2-yl]methoxy-hydroxy-phosphoryl] phosphono hydrogen phosphate
   47    49     1     0     0
SMALL
USER_CHARGES

@<TRIPOS>ATOM
      1 PG         -5.2965   -0.3471   -2.2840 P.3       1 ATP         1.8096
      2 O1G        -6.7644   -0.5001   -2.0144 O.2       1 ATP        -0.7943
      3 O2G        -4.4516   -1.7245   -2.3104 O.3       1 ATP        -0.7926
      4 O3G        -4.9261    0.3490   -3.6950 O.3       1 ATP        -0.7926
      5 PB         -4.6844    2.1058   -0.7634 P.3       1 ATP         1.9396
      6 O1B        -4.5098    3.1083   -1.8659 O.2       1 ATP        -0.8346
      7 O2B        -6.1310    2.1352   -0.0425 O.3       1 ATP        -0.8243
      8 O3B        -4.5051    0.5630   -1.2083 O.3       1 ATP        -0.8110
      9 PA         -3.3131    3.4211    1.4850 P.3       1 ATP         1.8043
     10 O1A        -4.4812    3.8508    2.3242 O.2       1 ATP        -0.8218
     11 O2A        -2.7085    4.5840    0.5367 O.3       1 ATP        -0.8115
     12 O3A        -3.6313    2.2176    0.4553 O.3       1 ATP        -0.8294
     13 O5'        -2.0398    2.8621    2.3123 O.3       1 ATP        -0.5751
     14 C5'        -0.8811    2.4285    1.6206 C.3       1 ATP         0.1702
     15 C4'        -0.1994    1.3333    2.4288 C.3       1 ATP         0.1167
     16 O4'        -1.1285    0.2356    2.5840 O.3       1 ATP        -0.4221
     17 C3'         1.0324    0.7610    1.7344 C.3       1 ATP         0.1072
     18 O3'         1.9175    0.2377    2.7247 O.3       1 ATP        -0.5896
     19 C2'         0.4468   -0.3802    0.9263 C.3       1 ATP         0.0668
     20 O2'         1.3993   -1.3703    0.5961 O.3       1 ATP        -0.5764
     21 C1'        -0.6159   -0.9100    1.8769 C.3       1 ATP         0.4327
     22 N9         -1.7127   -1.6108    1.2130 N.pl3     1 ATP        -0.7057
     23 C8         -3.0342   -1.2519    1.2439 C.ar      1 ATP         0.5352
     24 N7         -3.7886   -2.0756    0.5467 N.2       1 ATP        -0.5411
     25 C5         -2.9179   -3.0087    0.0426 C.ar      1 ATP        -0.2315
     26 C6         -3.1045   -4.1262   -0.7649 C.ar      1 ATP         0.7606
     27 N6         -4.3870   -4.4763   -1.2206 N.pl3     1 ATP        -0.9553
     28 N1         -2.0306   -4.8769   -1.1094 N.ar      1 ATP        -0.7923
     29 C2         -0.8199   -4.4895   -0.6402 C.ar      1 ATP         0.6867
     30 N3         -0.5140   -3.4335    0.1448 N.ar      1 ATP        -0.7305
     31 C4         -1.6202   -2.7371    0.4460 C.ar      1 ATP         0.5923
     32 HOG2       -4.6888   -2.4149   -2.9655 H         1 ATP         0.5059
     33 HOG3       -5.2446    1.2594   -3.8734 H         1 ATP         0.5059
     34 HOB2       -6.4233    2.9594    0.4016 H         1 ATP         0.5086
     35 HOA2       -2.3604    5.4014    0.9522 H         1 ATP         0.5057
     36 H5'1       -1.1763    2.0500    0.6366 H         1 ATP         0.0623
     37 H5'2       -0.2075    3.2812    1.4874 H         1 ATP         0.0623
     38 H4'         0.0402    1.7079    3.4343 H         1 ATP         0.1115
     39 H3'         1.5907    1.4859    1.1353 H         1 ATP         0.0700
     40 HO3'        2.6839   -0.1150    2.2479 H         1 ATP         0.4307
     41 H2'        -0.0017    0.0018    0.0005 H         1 ATP         0.0742
     42 HO2'        2.0953   -0.9375    0.0709 H         1 ATP         0.4245
     43 H1'        -0.1998   -1.6319    2.6178 H         1 ATP         0.1193
     44 H8         -3.3847   -0.3852    1.7876 H         1 ATP         0.0779
     45 HN61       -4.4940   -5.2574   -1.8397 H         1 ATP         0.4486
     46 HN62       -5.1668   -3.8868   -0.9985 H         1 ATP         0.4486
     47 H2          0.0171   -5.1133   -0.9354 H         1 ATP         0.0538
@<TRIPOS>BOND
     1    1    2 2
     2    1    3 1
     3    1    4 1
     4    1    8 1
     5    3   32 1
     6    4   33 1
     7    5    6 2
     8    5    7 1
     9    5    8 1
    10    5   12 1
    11    7   34 1
    12    9   10 2
    13    9   11 1
    14    9   12 1
    15    9   13 1
    16   11   35 1
    17   13   14 1
    18   14   15 1
    19   14   36 1
    20   14   37 1
    21   15   16 1
    22   15   17 1
    23   15   38 1
    24   16   21 1
    25   17   18 1
    26   17   19 1
    27   17   39 1
    28   18   40 1
    29   19   20 1
    30   19   21 1
    31   19   41 1
    32   20   42 1
    33   21   22 1
    34   21   43 1
    35   22   23 ar
    36   22   31 ar
    37   23   24 ar
    38   23   44 1
    39   24   25 ar
    40   25   26 ar
    41   25   31 ar
    42   26   27 1
    43   26   28 ar
    44   27   45 1
    45   27   46 1
    46   28   29 ar
    47   29   30 ar
    48   29   47 1
    49   30   31 ar
@<TRIPOS>SUBSTRUCTURE
     1 ATP         1 GROUP 0 A     ****
@<TRIPOS>MOLECULE
[[5-(6-aminopurin-9-yl)-3,4-dihydroxy-tetrahydrofuran-2-yl]methoxy-hydroxy-phosphoryl] phosphono hydrogen phosphate
   47    49     1     0     0
SMALL
USER_CHARGES

@<TRIPOS>ATOM
      1 PG         -6.1419    2.8554   -1.8570 P.3       1 ATP         1.8096
      2 O1G        -6.7366    1.5200   -2.1951 O.2       1 ATP        -0.7943
      3 O2G        -5.1885    3.4951   -2.9944 O.3       1 ATP        -0.7926
      4 O3G        -7.2130    4.0288   -1.5596 O.3       1 ATP        -0.7926
      5 PB         -5.5322    2.5053    1.0082 P.3       1 ATP         1.9396
      6 O1B        -6.5969    3.3469    1.6479 O.2       1 ATP        -0.8346
      7 O2B        -5.8464    0.9198    0.9800 O.3       1 ATP        -0.8243
      8 O3B        -5.2132    2.8640   -0.5345 O.3       1 ATP        -0.8110
      9 PA         -3.0702    3.8634    1.8796 P.3       1 ATP         1.8043
     10 O1A        -3.6344    4.9807    2.7082 O.2       1 ATP        -0.8218
     11 O2A        -2.6765    4.2860    0.3684 O.3       1 ATP        -0.8115
     12 O3A        -4.0660    2.6076    1.6762 O.3       1 ATP        -0.8294
     13 O5'        -1.7335    3.1724    2.4745 O.3       1 ATP        -0.5751
     14 C5'        -0.8811    2.4285    1.6206 C.3       1 ATP         0.1702
     15 C4'        -0.1994    1.3333    2.4288 C.3       1 ATP         0.1167
     16 O4'        -1.1285    0.2356    2.5840 O.3       1 ATP        -0.4221
     17 C3'         1.0324    0.7610    1.7344 C.3       1 ATP         0.1072
     18 O3'         1.9175    0.2377    2.7247 O.3       1 ATP        -0.5896
     19 C2'         0.4468   -0.3802    0.9263 C.3       1 ATP         0.0668
     20 O2'         1.3993   -1.3703    0.5961 O.3       1 ATP        -0.5764
     21 C1'        -0.6159   -0.9100    1.8769 C.3       1 ATP         0.4327
     22 N9         -1.7127   -1.6108    1.2130 N.pl3     1 ATP        -0.7057
     23 C8         -2.0877   -2.9101    1.4304 C.ar      1 ATP         0.5352
     24 N7         -3.1152   -3.2613    0.6857 N.2       1 ATP        -0.5411
     25 C5         -3.4186   -2.1409   -0.0462 C.ar      1 ATP        -0.2315
     26 C6         -4.3953   -1.8809   -1.0023 C.ar      1 ATP         0.7606
     27 N6         -5.3118   -2.8767   -1.3812 N.pl3     1 ATP        -0.9553
     28 N1         -4.4538   -0.6507   -1.5667 N.ar      1 ATP        -0.7923
     29 C2         -3.5442    0.2679   -1.1609 C.ar      1 ATP         0.6867
     30 N3         -2.5561    0.1361   -0.2491 N.ar      1 ATP        -0.7305
     31 C4         -2.5568   -1.1019    0.2674 C.ar      1 ATP         0.5923
     32 HOG2       -4.3885    3.0025   -3.2759 H         1 ATP         0.5059
     33 HOG3       -7.8488    3.9153   -0.8214 H         1 ATP         0.5059
     34 HOB2       -5.9782    0.4469    1.8292 H         1 ATP         0.5086
     35 HOA2       -2.0057    4.9884    0.2320 H         1 ATP         0.5057
     36 H5'1       -1.4796    1.9923    0.8143 H         1 ATP         0.0623
     37 H5'2       -0.1364    3.1037    1.1869 H         1 ATP         0.0623
     38 H4'         0.0402    1.7079    3.4343 H         1 ATP         0.1115
     39 H3'         1.5907    1.4859    1.1353 H         1 ATP         0.0700
     40 HO3'        2.6839   -0.1150    2.2479 H         1 ATP         0.4307
     41 H2'        -0.0017    0.0018    0.0005 H         1 ATP         0.0742
     42 HO2'        2.0953   -0.9375    0.0709 H         1 ATP         0.4245
     43 H1'        -0.1998   -1.6319    2.6178 H         1 ATP         0.1193
     44 H8         -1.5778   -3.5473    2.1399 H         1 ATP         0.0779
     45 HN61       -5.2294   -3.7965   -0.9914 H         1 ATP         0.4486
     46 HN62       -5.9774   -2.6837   -2.1055 H         1 ATP         0.4486
     47 H2         -3.6201    1.2414   -1.6336 H         1 ATP         0.0538
@<TRIPOS>BOND
     1    1    2 2
     2    1    3 1
     3    1    4 1
     4    1    8 1
     5    3   32 1
     6    4   33 1
     7    5    6 2
     8    5    7 1
     9    5    8 1
    10    5   12 1
    11    7   34 1
    12    9   10 2
    13    9   11 1
    14    9   12 1
    15    9   13 1
    16   11   35 1
    17   13   14 1
    18   14   15 1
    19   14   36 1
    20   14   37 1
    21   15   16 1
    22   15   17 1
    23   15   38 1
    24   16   21 1
    25   17   18 1
    26   17   19 1
    27   17   39 1
    28   18   40 1
    29   19   20 1
    30   19   21 1
    31   19   41 1
    32   20   42 1
    33   21   22 1
    34   21   43 1
    35   22   23 ar
    36   22   31 ar
    37   23   24 ar
    38   23   44 1
    39   24   25 ar
    40   25   26 ar
    41   25   31 ar
    42   26   27 1
    43   26   28 ar
    44   27   45 1
    45   27   46 1
    46   28   29 ar
    47   29   30 ar
    48   29   47 1
    49   30   31 ar
@<TRIPOS>SUBSTRUCTURE
     1 ATP         1 GROUP 0 A     ****
@<TRIPOS>MOLECULE
[[5-(6-aminopurin-9-yl)-3,4-dihydroxy-tetrahydrofuran-2-yl]methoxy-hydroxy-phosphoryl] phosphono hydrogen phosphate
   47    49     1     0     0
SMALL
USER_CHARGES

@<TRIPOS>ATOM
      1 PG         -4.9952    7.1223    1.8387 P.3       1 ATP         1.8096
      2 O1G        -4.8571    8.6147    1.7701 O.2       1 ATP        -0.7943
      3 O2G        -5.8876    6.5667    3.0661 O.3       1 ATP        -0.7926
      4 O3G        -5.6701    6.4347    0.5408 O.3       1 ATP        -0.7926
      5 PB         -2.4513    6.3674    3.1279 P.3       1 ATP         1.9396
      6 O1B        -1.8028    7.7063    3.3222 O.2       1 ATP        -0.8346
      7 O2B        -3.1824    5.7709    4.4405 O.3       1 ATP        -0.8243
      8 O3B        -3.5992    6.3228    1.9919 O.3       1 ATP        -0.8110
      9 PA         -0.5527    5.0214    1.3254 P.3       1 ATP         1.8043
     10 O1A         0.4921    6.0864    1.1590 O.2       1 ATP        -0.8218
     11 O2A        -1.6294    4.9483    0.1202 O.3       1 ATP        -0.8115
     12 O3A        -1.4699    5.1795    2.6459 O.3       1 ATP        -0.8294
     13 O5'         0.0173    3.5130    1.4593 O.3       1 ATP        -0.5751
     14 C5'        -0.8811    2.4285    1.6206 C.3       1 ATP         0.1702
     15 C4'        -0.1994    1.3333    2.4288 C.3       1 ATP         0.1167
     16 O4'        -1.1285    0.2356    2.5840 O.3       1 ATP        -0.4221
     17 C3'         1.0324    0.7610    1.7344 C.3       1 ATP         0.1072
     18 O3'         1.9175    0.2377    2.7247 O.3       1 ATP        -0.5896
     19 C2'         0.4468   -0.3802    0.9263 C.3       1 ATP         0.0668
     20 O2'         1.3993   -1.3703    0.5961 O.3       1 ATP        -0.5764
     21 C1'        -0.6159   -0.9100    1.8769 C.3       1 ATP         0.4327
     22 N9         -1.7127   -1.6108    1.2130 N.pl3     1 ATP        -0.7057
     23 C8         -2.8641   -1.0399    0.7392 C.ar      1 ATP         0.5352
     24 N7         -3.6659   -1.9257    0.1858 N.2       1 ATP        -0.5411
     25 C5         -3.0053   -3.1223    0.3069 C.ar      1 ATP        -0.2315
     26 C6         -3.3321   -4.4178   -0.0813 C.ar      1 ATP         0.7606
     27 N6         -4.5476   -4.6866   -0.7335 N.pl3     1 ATP        -0.9553
     28 N1         -2.4608   -5.4225    0.1773 N.ar      1 ATP        -0.7923
     29 C2         -1.3053   -5.1020    0.8081 C.ar      1 ATP         0.6867
     30 N3         -0.8788   -3.8921    1.2315 N.ar      1 ATP        -0.7305
     31 C4         -1.7870   -2.9477    0.9438 C.ar      1 ATP         0.5923
     32 HOG2       -5.6101    6.7689    3.9849 H         1 ATP         0.5059
     33 HOG3       -6.5806    6.6949    0.2850 H         1 ATP         0.5059
     34 HOB2       -2.6498    5.6091    5.2482 H         1 ATP         0.5086
     35 HOA2       -2.1819    5.7360   -0.0704 H         1 ATP         0.5057
     36 H5'1       -1.7774    2.7844    2.1388 H         1 ATP         0.0623
     37 H5'2       -1.1657    2.0536    0.6322 H         1 ATP         0.0623
     38 H4'         0.0402    1.7079    3.4343 H         1 ATP         0.1115
     39 H3'         1.5907    1.4859    1.1353 H         1 ATP         0.0700
     40 HO3'        2.6839   -0.1150    2.2479 H         1 ATP         0.4307
     41 H2'        -0.0017    0.0018    0.0005 H         1 ATP         0.0742
     42 HO2'        0.9369   -2.0558    0.0825 H         1 ATP         0.4245
     43 H1'        -0.1998   -1.6319    2.6178 H         1 ATP         0.1193
     44 H8         -3.0609    0.0200    0.8250 H         1 ATP         0.0779
     45 HN61       -5.2046   -3.9433   -0.8775 H         1 ATP         0.4486
     46 HN62       -4.7849   -5.6332   -0.9625 H         1 ATP         0.4486
     47 H2         -0.6318   -5.9307    0.9993 H         1 ATP         0.0538
@<TRIPOS>BOND
     1    1    2 2
     2    1    3 1
     3    1    4 1
     4    1    8 1
     5    3   32 1
     6    4   33 1
     7    5    6 2
     8    5    7 1
     9    5    8 1
    10    5   12 1
    11    7   34 1
    12    9   10 2
    13    9   11 1
    14    9   12 1
    15    9   13 1
    16   11   35 1
    17   13   14 1
    18   14   15 1
    19   14   36 1
    20   14   37 1
    21   15   16 1
    22   15   17 1
    23   15   38 1
    24   16   21 1
    25   17   18 1
    26   17   19 1
    27   17   39 1
    28   18   40 1
    29   19   20 1
    30   19   21 1
    31   19   41 1
    32   20   42 1
    33   21   22 1
    34   21   43 1
    35   22   23 ar
    36   22   31 ar
    37   23   24 ar
    38   23   44 1
    39   24   25 ar
    40   25   26 ar
    41   25   31 ar
    42   26   27 1
    43   26   28 ar
    44   27   45 1
    45   27   46 1
    46   28   29 ar
    47   29   30 ar
    48   29   47 1
    49   30   31 ar
@<TRIPOS>SUBSTRUCTURE
     1 ATP         1 GROUP 0 A     ****
@<TRIPOS>MOLECULE
[[5-(6-aminopurin-9-yl)-3,4-dihydroxy-tetrahydrofuran-2-yl]methoxy-hydroxy-phosphoryl] phosphono hydrogen phosphate
   47    49     1     0     0
SMALL
USER_CHARGES

@<TRIPOS>ATOM
      1 PG         -4.7140    6.2308    4.1166 P.3       1 ATP         1.8096
      2 O1G        -4.5426    7.5923    4.7231 O.2       1 ATP        -0.7943
      3 O2G        -4.5351    4.9916    5.1384 O.3       1 ATP        -0.7926
      4 O3G        -6.1565    5.9565    3.4408 O.3       1 ATP        -0.7926
      5 PB         -2.0666    5.8125    2.8837 P.3       1 ATP         1.9396
      6 O1B        -1.3614    7.0867    3.2443 O.2       1 ATP        -0.8346
      7 O2B        -1.7170    4.5515    3.8329 O.3       1 ATP        -0.8243
      8 O3B        -3.6799    5.8902    2.9223 O.3       1 ATP        -0.8110
      9 PA         -0.4423    4.8273    0.6350 P.3       1 ATP         1.8043
     10 O1A         0.5926    5.9096    0.5302 O.2       1 ATP        -0.8218
     11 O2A        -0.9606    4.2592   -0.7883 O.3       1 ATP        -0.8115
     12 O3A        -1.8026    5.2679    1.3869 O.3       1 ATP        -0.8294
     13 O5'         0.0173    3.5130    1.4593 O.3       1 ATP        -0.5751
     14 C5'        -0.8811    2.4285    1.6206 C.3       1 ATP         0.1702
     15 C4'        -0.1994    1.3333    2.4288 C.3       1 ATP         0.1167
     16 O4'        -1.1285    0.2356    2.5840 O.3       1 ATP        -0.4221
     17 C3'         1.0324    0.7610    1.7344 C.3       1 ATP         0.1072
     18 O3'         1.9175    0.2377    2.7247 O.3       1 ATP        -0.5896
     19 C2'         0.4468   -0.3802    0.9263 C.3       1 ATP         0.0668
     20 O2'         1.3993   -1.3703    0.5961 O.3       1 ATP        -0.5764
     21 C1'        -0.6159   -0.9100    1.8769 C.3       1 ATP         0.4327
     22 N9         -1.7127   -1.6108    1.2130 N.pl3     1 ATP        -0.7057
     23 C8         -2.8641   -1.0399    0.7392 C.ar      1 ATP         0.5352
     24 N7         -3.6659   -1.9257    0.1858 N.2       1 ATP        -0.5411
     25 C5         -3.0053   -3.1223    0.3069 C.ar      1 ATP        -0.2315
     26 C6         -3.3321   -4.4178   -0.0813 C.ar      1 ATP         0.7606
     27 N6         -4.5476   -4.6866   -0.7335 N.pl3     1 ATP        -0.9553
     28 N1         -2.4608   -5.4225    0.1773 N.ar      1 ATP        -0.7923
     29 C2         -1.3053   -5.1020    0.8081 C.ar      1 ATP         0.6867
     30 N3         -0.8788   -3.8921    1.2315 N.ar      1 ATP        -0.7305
     31 C4         -1.7870   -2.9477    0.9438 C.ar      1 ATP         0.5923
     32 HOG2       -3.6794    4.8798    5.6045 H         1 ATP         0.5059
     33 HOG3       -6.9610    6.0149    3.9987 H         1 ATP         0.5059
     34 HOB2       -0.7872    4.2446    3.8910 H         1 ATP         0.5086
     35 HOA2       -1.3877    4.8776   -1.4185 H         1 ATP         0.5057
     36 H5'1       -1.7774    2.7844    2.1388 H         1 ATP         0.0623
     37 H5'2       -1.1657    2.0536    0.6322 H         1 ATP         0.0623
     38 H4'         0.0402    1.7079    3.4343 H         1 ATP         0.1115
     39 H3'         1.5907    1.4859    1.1353 H         1 ATP         0.0700
     40 HO3'        2.6839   -0.1150    2.2479 H         1 ATP         0.4307
     41 H2'        -0.0017    0.0018    0.0005 H         1 ATP         0.0742
     42 HO2'        2.0953   -0.9375    0.0709 H         1 ATP         0.4245
     43 H1'        -0.1998   -1.6319    2.6178 H         1 ATP         0.1193
     44 H8         -3.0609    0.0200    0.8250 H         1 ATP         0.0779
     45 HN61       -5.2046   -3.9433   -0.8775 H         1 ATP         0.4486
     46 HN62       -4.7849   -5.6332   -0.9625 H         1 ATP         0.4486
     47 H2         -0.6318   -5.9307    0.9993 H         1 ATP         0.0538
@<TRIPOS>BOND
     1    1    2 2
     2    1    3 1
     3    1    4 1
     4    1    8 1
     5    3   32 1
     6    4   33 1
     7    5    6 2
     8    5    7 1
     9    5    8 1
    10    5   12 1
    11    7   34 1
    12    9   10 2
    13    9   11 1
    14    9   12 1
    15    9   13 1
    16   11   35 1
    17   13   14 1
    18   14   15 1
    19   14   36 1
    20   14   37 1
    21   15   16 1
    22   15   17 1
    23   15   38 1
    24   16   21 1
    25   17   18 1
    26   17   19 1
    27   17   39 1
    28   18   40 1
    29   19   20 1
    30   19   21 1
    31   19   41 1
    32   20   42 1
    33   21   22 1
    34   21   43 1
    35   22   23 ar
    36   22   31 ar
    37   23   24 ar
    38   23   44 1
    39   24   25 ar
    40   25   26 ar
    41   25   31 ar
    42   26   27 1
    43   26   28 ar
    44   27   45 1
    45   27   46 1
    46   28   29 ar
    47   29   30 ar
    48   29   47 1
    49   30   31 ar
@<TRIPOS>SUBSTRUCTURE
     1 ATP         1 GROUP 0 A     ****
@<TRIPOS>MOLECULE
[[5-(6-aminopurin-9-yl)-3,4-dihydroxy-tetrahydrofuran-2-yl]methoxy-hydroxy-phosphoryl] phosphono hydrogen phosphate
   47    49     1     0     0
SMALL
USER_CHARGES

@<TRIPOS>ATOM
      1 PG         -3.7616    6.5482    5.7650 P.3       1 ATP         1.8096
      2 O1G        -3.2015    7.8404    6.2823 O.2       1 ATP        -0.7943
      3 O2G        -3.9235    5.3756    6.8653 O.3       1 ATP        -0.7926
      4 O3G        -5.2341    6.6526    5.1064 O.3       1 ATP        -0.7926
      5 PB         -2.4513    6.3674    3.1279 P.3       1 ATP         1.9396
      6 O1B        -3.5897    6.6839    2.2034 O.2       1 ATP        -0.8346
      7 O2B        -1.4576    7.6062    3.4295 O.3       1 ATP        -0.8243
      8 O3B        -2.8868    5.8543    4.5967 O.3       1 ATP        -0.8110
      9 PA         -0.5527    5.0214    1.3254 P.3       1 ATP         1.8043
     10 O1A         0.4921    6.0864    1.1590 O.2       1 ATP        -0.8218
     11 O2A        -1.6294    4.9483    0.1202 O.3       1 ATP        -0.8115
     12 O3A        -1.4699    5.1795    2.6459 O.3       1 ATP        -0.8294
     13 O5'         0.0173    3.5130    1.4593 O.3       1 ATP        -0.5751
     14 C5'        -0.8811    2.4285    1.6206 C.3       1 ATP         0.1702
     15 C4'        -0.1994    1.3333    2.4288 C.3       1 ATP         0.1167
     16 O4'        -1.1285    0.2356    2.5840 O.3       1 ATP        -0.4221
     17 C3'         1.0324    0.7610    1.7344 C.3       1 ATP         0.1072
     18 O3'         1.9175    0.2377    2.7247 O.3       1 ATP        -0.5896
     19 C2'         0.4468   -0.3802    0.9263 C.3       1 ATP         0.0668
     20 O2'         1.3993   -1.3703    0.5961 O.3       1 ATP        -0.5764
     21 C1'        -0.6159   -0.9100    1.8769 C.3       1 ATP         0.4327
     22 N9         -1.7127   -1.6108    1.2130 N.pl3     1 ATP        -0.7057
     23 C8         -2.8641   -1.0399    0.7392 C.ar      1 ATP         0.5352
     24 N7         -3.6659   -1.9257    0.1858 N.2       1 ATP        -0.5411
     25 C5         -3.0053   -3.1223    0.3069 C.ar      1 ATP        -0.2315
     26 C6         -3.3321   -4.4178   -0.0813 C.ar      1 ATP         0.7606
     27 N6         -4.5476   -4.6866   -0.7335 N.pl3     1 ATP        -0.9553
     28 N1         -2.4608   -5.4225    0.1773 N.ar      1 ATP        -0.7923
     29 C2         -1.3053   -5.1020    0.8081 C.ar      1 ATP         0.6867
     30 N3         -0.8788   -3.8921    1.2315 N.ar      1 ATP        -0.7305
     31 C4         -1.7870   -2.9477    0.9438 C.ar      1 ATP         0.5923
     32 HOG2       -3.1266    5.0551    7.3388 H         1 ATP         0.5059
     33 HOG3       -5.3667    7.2376    4.3303 H         1 ATP         0.5059
     34 HOB2       -1.8217    8.4162    3.8461 H         1 ATP         0.5086
     35 HOA2       -2.1819    5.7360   -0.0704 H         1 ATP         0.5057
     36 H5'1       -1.7774    2.7844    2.1388 H         1 ATP         0.0623
     37 H5'2       -1.1657    2.0536    0.6322 H         1 ATP         0.0623
     38 H4'         0.0402    1.7079    3.4343 H         1 ATP         0.1115
     39 H3'         1.5907    1.4859    1.1353 H         1 ATP         0.0700
     40 HO3'        2.6839   -0.1150    2.2479 H         1 ATP         0.4307
     41 H2'        -0.0017    0.0018    0.0005 H         1 ATP         0.0742
     42 HO2'        2.0953   -0.9375    0.0709 H         1 ATP         0.4245
     43 H1'        -0.1998   -1.6319    2.6178 H         1 ATP         0.1193
     44 H8         -3.0609    0.0200    0.8250 H         1 ATP         0.0779
     45 HN61       -4.7432   -5.6184   -1.0469 H         1 ATP         0.4486
     46 HN62       -5.1624   -3.9284   -0.9616 H         1 ATP         0.4486
     47 H2         -0.6318   -5.9307    0.9993 H         1 ATP         0.0538
@<TRIPOS>BOND
     1    1    2 2
     2    1    3 1
     3    1    4 1
     4    1    8 1
     5    3   32 1
     6    4   33 1
     7    5    6 2
     8    5    7 1
     9    5    8 1
    10    5   12 1
    11    7   34 1
    12    9   10 2
    13    9   11 1
    14    9   12 1
    15    9   13 1
    16   11   35 1
    17   13   14 1
    18   14   15 1
    19   14   36 1
    20   14   37 1
    21   15   16 1
    22   15   17 1
    23   15   38 1
    24   16   21 1
    25   17   18 1
    26   17   19 1
    27   17   39 1
    28   18   40 1
    29   19   20 1
    30   19   21 1
    31   19   41 1
    32   20   42 1
    33   21   22 1
    34   21   43 1
    35   22   23 ar
    36   22   31 ar
    37   23   24 ar
    38   23   44 1
    39   24   25 ar
    40   25   26 ar
    41   25   31 ar
    42   26   27 1
    43   26   28 ar
    44   27   45 1
    45   27   46 1
    46   28   29 ar
    47   29   30 ar
    48   29   47 1
    49   30   31 ar
@<TRIPOS>SUBSTRUCTURE
     1 ATP         1 GROUP 0 A     ****
@<TRIPOS>MOLECULE
[[5-(6-aminopurin-9-yl)-3,4-dihydroxy-tetrahydrofuran-2-yl]methoxy-hydroxy-phosphoryl] phosphono hydrogen phosphate
   47    49     1     0     0
SMALL
USER_CHARGES

@<TRIPOS>ATOM
      1 PG          0.4320    7.3252    5.5841 P.3       1 ATP         1.8096
      2 O1G         1.4153    6.5167    6.3780 O.2       1 ATP        -0.7943
      3 O2G        -0.8587    7.8448    6.4061 O.3       1 ATP        -0.7926
      4 O3G         1.0270    8.6756    4.9244 O.3       1 ATP        -0.7926
      5 PB         -1.0882    5.1999    4.2145 P.3       1 ATP         1.9396
      6 O1B        -0.4143    3.9644    4.7345 O.2       1 ATP        -0.8346
      7 O2B        -2.4735    5.5801    4.9557 O.3       1 ATP        -0.8243
      8 O3B        -0.2100    6.5520    4.3185 O.3       1 ATP        -0.8110
      9 PA         -0.5527    5.0214    1.3254 P.3       1 ATP         1.8043
     10 O1A         0.4921    6.0864    1.1590 O.2       1 ATP        -0.8218
     11 O2A        -1.6294    4.9483    0.1202 O.3       1 ATP        -0.8115
     12 O3A        -1.4699    5.1795    2.6459 O.3       1 ATP        -0.8294
     13 O5'         0.0173    3.5130    1.4593 O.3       1 ATP        -0.5751
     14 C5'        -0.8811    2.4285    1.6206 C.3       1 ATP         0.1702
     15 C4'        -0.1994    1.3333    2.4288 C.3       1 ATP         0.1167
     16 O4'        -1.1285    0.2356    2.5840 O.3       1 ATP        -0.4221
     17 C3'         1.0324    0.7610    1.7344 C.3       1 ATP         0.1072
     18 O3'         1.9175    0.2377    2.7247 O.3       1 ATP        -0.5896
     19 C2'         0.4468   -0.3802    0.9263 C.3       1 ATP         0.0668
     20 O2'         1.3993   -1.3703    0.5961 O.3       1 ATP        -0.5764
     21 C1'        -0.6159   -0.9100    1.8769 C.3       1 ATP         0.4327
     22 N9         -1.7127   -1.6108    1.2130 N.pl3     1 ATP        -0.7057
     23 C8         -2.8641   -1.0399    0.7392 C.ar      1 ATP         0.5352
     24 N7         -3.6659   -1.9257    0.1858 N.2       1 ATP        -0.5411
     25 C5         -3.0053   -3.1223    0.3069 C.ar      1 ATP        -0.2315
     26 C6         -3.3321   -4.4178   -0.0813 C.ar      1 ATP         0.7606
     27 N6         -4.5476   -4.6866   -0.7335 N.pl3     1 ATP        -0.9553
     28 N1         -2.4608   -5.4225    0.1773 N.ar      1 ATP        -0.7923
     29 C2         -1.3053   -5.1020    0.8081 C.ar      1 ATP         0.6867
     30 N3         -0.8788   -3.8921    1.2315 N.ar      1 ATP        -0.7305
     31 C4         -1.7870   -2.9477    0.9438 C.ar      1 ATP         0.5923
     32 HOG2       -0.7240    8.4285    7.1828 H         1 ATP         0.5059
     33 HOG3        1.7691    8.6055    4.2868 H         1 ATP         0.5059
     34 HOB2       -3.2140    4.9371    4.9368 H         1 ATP         0.5086
     35 HOA2       -2.1819    5.7360   -0.0704 H         1 ATP         0.5057
     36 H5'1       -1.7774    2.7844    2.1388 H         1 ATP         0.0623
     37 H5'2       -1.1657    2.0536    0.6322 H         1 ATP         0.0623
     38 H4'         0.0402    1.7079    3.4343 H         1 ATP         0.1115
     39 H3'         1.5907    1.4859    1.1353 H         1 ATP         0.0700
     40 HO3'        2.1521    0.9800    3.3017 H         1 ATP         0.4307
     41 H2'        -0.0017    0.0018    0.0005 H         1 ATP         0.0742
     42 HO2'        0.9369   -2.0558    0.0825 H         1 ATP         0.4245
     43 H1'        -0.1998   -1.6319    2.6178 H         1 ATP         0.1193
     44 H8         -3.0609    0.0200    0.8250 H         1 ATP         0.0779
     45 HN61       -4.7432   -5.6184   -1.0469 H         1 ATP         0.4486
     46 HN62       -5.1624   -3.9284   -0.9616 H         1 ATP         0.4486
     47 H2         -0.6318   -5.9307    0.9993 H         1 ATP         0.0538
@<TRIPOS>BOND
     1    1    2 2
     2    1    3 1
     3    1    4 1
     4    1    8 1
     5    3   32 1
     6    4   33 1
     7    5    6 2
     8    5    7 1
     9    5    8 1
    10    5   12 1
    11    7   34 1
    12    9   10 2
    13    9   11 1
    14    9   12 1
    15    9   13 1
    16   11   35 1
    17   13   14 1
    18   14   15 1
    19   14   36 1
    20   14   37 1
    21   15   16 1
    22   15   17 1
    23   15   38 1
    24   16   21 1
    25   17   18 1
    26   17   19 1
    27   17   39 1
    28   18   40 1
    29   19   20 1
    30   19   21 1
    31   19   41 1
    32   20   42 1
    33   21   22 1
    34   21   43 1
    35   22   23 ar
    36   22   31 ar
    37   23   24 ar
    38   23   44 1
    39   24   25 ar
    40   25   26 ar
    41   25   31 ar
    42   26   27 1
    43   26   28 ar
    44   27   45 1
    45   27   46 1
    46   28   29 ar
    47   29   30 ar
    48   29   47 1
    49   30   31 ar
@<TRIPOS>SUBSTRUCTURE
     1 ATP         1 GROUP 0 A     ****
@<TRIPOS>MOLECULE
[[5-(6-aminopurin-9-yl)-3,4-dihydroxy-tetrahydrofuran-2-yl]methoxy-hydroxy-phosphoryl] phosphono hydrogen phosphate
   47    49     1     0     0
SMALL
USER_CHARGES

@<TRIPOS>ATOM
      1 PG         -1.7255   -2.7582   -3.7475 P.3       1 ATP         1.8096
      2 O1G        -0.4005   -3.3586   -4.1149 O.2       1 ATP        -0.7943
      3 O2G        -2.8655   -3.8160   -3.3081 O.3       1 ATP        -0.7926
      4 O3G        -1.6877   -1.7120   -2.5160 O.3       1 ATP        -0.7926
      5 PB         -1.9533   -0.5998   -5.7458 P.3       1 ATP         1.9396
      6 O1B        -0.6742   -0.7628   -6.5128 O.2       1 ATP        -0.8346
      7 O2B        -3.2398   -0.2154   -6.6460 O.3       1 ATP        -0.8243
      8 O3B        -2.4307   -1.9086   -4.9277 O.3       1 ATP        -0.8110
      9 PA         -1.6645    2.1131   -4.6401 P.3       1 ATP         1.8043
     10 O1A        -2.6279    2.8793   -5.4993 O.2       1 ATP        -0.8218
     11 O2A        -0.1197    2.2227   -5.1080 O.3       1 ATP        -0.8115
     12 O3A        -1.9328    0.5210   -4.5839 O.3       1 ATP        -0.8294
     13 O5'        -1.6513    2.5331   -3.0776 O.3       1 ATP        -0.5751
     14 C5'        -0.7794    1.8744   -2.1748 C.3       1 ATP         0.1702
     15 C4'        -0.9699    2.4597   -0.7819 C.3       1 ATP         0.1167
     16 O4'        -2.1475    1.8640   -0.2014 O.3       1 ATP        -0.4221
     17 C3'         0.1697    2.1347    0.1695 C.3       1 ATP         0.1072
     18 O3'         0.1809    3.0982    1.2223 O.3       1 ATP        -0.5896
     19 C2'        -0.2543    0.7880    0.7187 C.3       1 ATP         0.0668
     20 O2'         0.3606    0.4944    1.9582 O.3       1 ATP        -0.5764
     21 C1'        -1.7682    0.9516    0.8548 C.3       1 ATP         0.4327
     22 N9         -2.5926   -0.2553    0.7436 N.pl3     1 ATP        -0.7057
     23 C8         -2.2217   -1.5214    1.1120 C.ar      1 ATP         0.5352
     24 N7         -3.1772   -2.4011    0.8958 N.2       1 ATP        -0.5411
     25 C5         -4.2118   -1.6733    0.3639 C.ar      1 ATP        -0.2315
     26 C6         -5.4850   -2.0305   -0.0685 C.ar      1 ATP         0.7606
     27 N6         -5.9178   -3.3658   -0.0004 N.pl3     1 ATP        -0.9553
     28 N1         -6.3076   -1.0717   -0.5581 N.ar      1 ATP        -0.7923
     29 C2         -5.8349    0.1974   -0.5985 C.ar      1 ATP         0.6867
     30 N3         -4.6277    0.6645   -0.2117 N.ar      1 ATP        -0.7305
     31 C4         -3.8678   -0.3348    0.2608 C.ar      1 ATP         0.5923
     32 HOG2       -2.7034   -4.3944   -2.5327 H         1 ATP         0.5059
     33 HOG3       -2.5233   -1.2859   -2.2290 H         1 ATP         0.5059
     34 HOB2       -3.5215   -0.8288   -7.3578 H         1 ATP         0.5086
     35 HOA2        0.3050    3.1063   -5.1378 H         1 ATP         0.5057
     36 H5'1       -1.0111    0.8044   -2.1748 H         1 ATP         0.0623
     37 H5'2        0.2527    2.0160   -2.5113 H         1 ATP         0.0623
     38 H4'        -1.1469    3.5409   -0.8523 H         1 ATP         0.1115
     39 H3'         1.1601    2.1310   -0.2934 H         1 ATP         0.0700
     40 HO3'        0.9173    2.8584    1.8048 H         1 ATP         0.4307
     41 H2'        -0.0024   -0.0091    0.0062 H         1 ATP         0.0742
     42 HO2'        1.3225    0.4909    1.8095 H         1 ATP         0.4245
     43 H1'        -2.0584    1.4255    1.8301 H         1 ATP         0.1193
     44 H8         -1.2484   -1.7393    1.5300 H         1 ATP         0.0779
     45 HN61       -5.2843   -4.0736    0.3198 H         1 ATP         0.4486
     46 HN62       -6.8209   -3.6099   -0.3606 H         1 ATP         0.4486
     47 H2         -6.5198    0.9388   -0.9964 H         1 ATP         0.0538
@<TRIPOS>BOND
     1    1    2 2
     2    1    3 1
     3    1    4 1
     4    1    8 1
     5    3   32 1
     6    4   33 1
     7    5    6 2
     8    5    7 1
     9    5    8 1
    10    5   12 1
    11    7   34 1
    12    9   10 2
    13    9   11 1
    14    9   12 1
    15    9   13 1
    16   11   35 1
    17   13   14 1
    18   14   15 1
    19   14   36 1
    20   14   37 1
    21   15   16 1
    22   15   17 1
    23   15   38 1
    24   16   21 1
    25   17   18 1
    26   17   19 1
    27   17   39 1
    28   18   40 1
    29   19   20 1
    30   19   21 1
    31   19   41 1
    32   20   42 1
    33   21   22 1
    34   21   43 1
    35   22   23 ar
    36   22   31 ar
    37   23   24 ar
    38   23   44 1
    39   24   25 ar
    40   25   26 ar
    41   25   31 ar
    42   26   27 1
    43   26   28 ar
    44   27   45 1
    45   27   46 1
    46   28   29 ar
    47   29   30 ar
    48   29   47 1
    49   30   31 ar
@<TRIPOS>SUBSTRUCTURE
     1 ATP         1 GROUP 0 A     ****
@<TRIPOS>MOLECULE
[[5-(6-aminopurin-9-yl)-3,4-dihydroxy-tetrahydrofuran-2-yl]methoxy-hydroxy-phosphoryl] phosphono hydrogen phosphate
   47    49     1     0     0
SMALL
USER_CHARGES

@<TRIPOS>ATOM
      1 PG         -4.5460    3.6128   -3.2959 P.3       1 ATP         1.8096
      2 O1G        -4.4440    2.4979   -4.2947 O.2       1 ATP        -0.7943
      3 O2G        -3.6433    4.9139   -3.6180 O.3       1 ATP        -0.7926
      4 O3G        -6.0294    4.2233   -3.0971 O.3       1 ATP        -0.7926
      5 PB         -4.6844    2.1058   -0.7634 P.3       1 ATP         1.9396
      6 O1B        -6.1280    2.2741   -0.3909 O.2       1 ATP        -0.8346
      7 O2B        -4.3259    0.6970   -1.4704 O.3       1 ATP        -0.8243
      8 O3B        -4.1110    3.2119   -1.7920 O.3       1 ATP        -0.8110
      9 PA         -3.3131    3.4211    1.4850 P.3       1 ATP         1.8043
     10 O1A        -4.4812    3.8508    2.3242 O.2       1 ATP        -0.8218
     11 O2A        -2.7085    4.5840    0.5367 O.3       1 ATP        -0.8115
     12 O3A        -3.6313    2.2176    0.4553 O.3       1 ATP        -0.8294
     13 O5'        -2.0398    2.8621    2.3123 O.3       1 ATP        -0.5751
     14 C5'        -0.8811    2.4285    1.6206 C.3       1 ATP         0.1702
     15 C4'        -0.1994    1.3333    2.4288 C.3       1 ATP         0.1167
     16 O4'        -1.1285    0.2356    2.5840 O.3       1 ATP        -0.4221
     17 C3'         1.0324    0.7610    1.7344 C.3       1 ATP         0.1072
     18 O3'         1.9175    0.2377    2.7247 O.3       1 ATP        -0.5896
     19 C2'         0.4468   -0.3802    0.9263 C.3       1 ATP         0.0668
     20 O2'         1.3993   -1.3703    0.5961 O.3       1 ATP        -0.5764
     21 C1'        -0.6159   -0.9100    1.8769 C.3       1 ATP         0.4327
     22 N9         -1.7127   -1.6108    1.2130 N.pl3     1 ATP        -0.7057
     23 C8         -3.0342   -1.2519    1.2439 C.ar      1 ATP         0.5352
     24 N7         -3.7886   -2.0756    0.5467 N.2       1 ATP        -0.5411
     25 C5         -2.9179   -3.0087    0.0426 C.ar      1 ATP        -0.2315
     26 C6         -3.1045   -4.1262   -0.7649 C.ar      1 ATP         0.7606
     27 N6         -4.3870   -4.4763   -1.2206 N.pl3     1 ATP        -0.9553
     28 N1         -2.0306   -4.8769   -1.1094 N.ar      1 ATP        -0.7923
     29 C2         -0.8199   -4.4895   -0.6402 C.ar      1 ATP         0.6867
     30 N3         -0.5140   -3.4335    0.1448 N.ar      1 ATP        -0.7305
     31 C4         -1.6202   -2.7371    0.4460 C.ar      1 ATP         0.5923
     32 HOG2       -3.7947    5.4017   -4.4554 H         1 ATP         0.5059
     33 HOG3       -6.7492    3.6317   -2.7907 H         1 ATP         0.5059
     34 HOB2       -4.4947   -0.1362   -0.9811 H         1 ATP         0.5086
     35 HOA2       -3.2905    4.9977   -0.1357 H         1 ATP         0.5057
     36 H5'1       -1.1763    2.0500    0.6366 H         1 ATP         0.0623
     37 H5'2       -0.2075    3.2812    1.4874 H         1 ATP         0.0623
     38 H4'         0.0402    1.7079    3.4343 H         1 ATP         0.1115
     39 H3'         1.5907    1.4859    1.1353 H         1 ATP         0.0700
     40 HO3'        2.1521    0.9800    3.3017 H         1 ATP         0.4307
     41 H2'        -0.0017    0.0018    0.0005 H         1 ATP         0.0742
     42 HO2'        0.9369   -2.0558    0.0825 H         1 ATP         0.4245
     43 H1'        -0.1998   -1.6319    2.6178 H         1 ATP         0.1193
     44 H8         -3.3847   -0.3852    1.7876 H         1 ATP         0.0779
     45 HN61       -4.4940   -5.2574   -1.8397 H         1 ATP         0.4486
     46 HN62       -5.1668   -3.8868   -0.9985 H         1 ATP         0.4486
     47 H2          0.0171   -5.1133   -0.9354 H         1 ATP         0.0538
@<TRIPOS>BOND
     1    1    2 2
     2    1    3 1
     3    1    4 1
     4    1    8 1
     5    3   32 1
     6    4   33 1
     7    5    6 2
     8    5    7 1
     9    5    8 1
    10    5   12 1
    11    7   34 1
    12    9   10 2
    13    9   11 1
    14    9   12 1
    15    9   13 1
    16   11   35 1
    17   13   14 1
    18   14   15 1
    19   14   36 1
    20   14   37 1
    21   15   16 1
    22   15   17 1
    23   15   38 1
    24   16   21 1
    25   17   18 1
    26   17   19 1
    27   17   39 1
    28   18   40 1
    29   19   20 1
    30   19   21 1
    31   19   41 1
    32   20   42 1
    33   21   22 1
    34   21   43 1
    35   22   23 ar
    36   22   31 ar
    37   23   24 ar
    38   23   44 1
    39   24   25 ar
    40   25   26 ar
    41   25   31 ar
    42   26   27 1
    43   26   28 ar
    44   27   45 1
    45   27   46 1
    46   28   29 ar
    47   29   30 ar
    48   29   47 1
    49   30   31 ar
@<TRIPOS>SUBSTRUCTURE
     1 ATP         1 GROUP 0 A     ****
@<TRIPOS>MOLECULE
[[5-(6-aminopurin-9-yl)-3,4-dihydroxy-tetrahydrofuran-2-yl]methoxy-hydroxy-phosphoryl] phosphono hydrogen phosphate
   47    49     1     0     0
SMALL
USER_CHARGES

@<TRIPOS>ATOM
      1 PG         -2.9161    7.7900    4.5403 P.3       1 ATP         1.8096
      2 O1G        -2.5833    7.2625    5.9048 O.2       1 ATP        -0.7943
      3 O2G        -4.4807    8.1024    4.2829 O.3       1 ATP        -0.7926
      4 O3G        -2.1849    9.1756    4.1424 O.3       1 ATP        -0.7926
      5 PB         -2.9823    5.2992    2.9606 P.3       1 ATP         1.9396
      6 O1B        -2.6667    4.2706    4.0062 O.2       1 ATP        -0.8346
      7 O2B        -4.5531    5.4500    2.6097 O.3       1 ATP        -0.8243
      8 O3B        -2.5204    6.8046    3.3220 O.3       1 ATP        -0.8110
      9 PA         -0.7172    5.0023    1.1041 P.3       1 ATP         1.8043
     10 O1A         0.0745    6.2394    1.4142 O.2       1 ATP        -0.8218
     11 O2A        -0.7666    4.6175   -0.4665 O.3       1 ATP        -0.8115
     12 O3A        -2.2748    5.0770    1.5265 O.3       1 ATP        -0.8294
     13 O5'        -0.2067    3.6555    1.8414 O.3       1 ATP        -0.5751
     14 C5'        -0.8811    2.4285    1.6206 C.3       1 ATP         0.1702
     15 C4'        -0.1994    1.3333    2.4288 C.3       1 ATP         0.1167
     16 O4'        -1.1285    0.2356    2.5840 O.3       1 ATP        -0.4221
     17 C3'         1.0324    0.7610    1.7344 C.3       1 ATP         0.1072
     18 O3'         1.9175    0.2377    2.7247 O.3       1 ATP        -0.5896
     19 C2'         0.4468   -0.3802    0.9263 C.3       1 ATP         0.0668
     20 O2'         1.3993   -1.3703    0.5961 O.3       1 ATP        -0.5764
     21 C1'        -0.6159   -0.9100    1.8769 C.3       1 ATP         0.4327
     22 N9         -1.7127   -1.6108    1.2130 N.pl3     1 ATP        -0.7057
     23 C8         -1.7712   -2.9546    0.9544 C.ar      1 ATP         0.5352
     24 N7         -2.8883   -3.2948    0.3462 N.2       1 ATP        -0.5411
     25 C5         -3.5834   -2.1202    0.2043 C.ar      1 ATP        -0.2315
     26 C6         -4.8225   -1.8251   -0.3554 C.ar      1 ATP         0.7606
     27 N6         -5.6154   -2.8394   -0.9189 N.pl3     1 ATP        -0.9553
     28 N1         -5.2589   -0.5425   -0.3507 N.ar      1 ATP        -0.7923
     29 C2         -4.4510    0.3913    0.2069 C.ar      1 ATP         0.6867
     30 N3         -3.2368    0.2296    0.7767 N.ar      1 ATP        -0.7305
     31 C4         -2.8684   -1.0596    0.7376 C.ar      1 ATP         0.5923
     32 HOG2       -5.1303    7.3718    4.3621 H         1 ATP         0.5059
     33 HOG3       -2.3429    9.9712    4.6938 H         1 ATP         0.5059
     34 HOB2       -5.0390    4.6714    2.2636 H         1 ATP         0.5086
     35 HOA2       -1.1514    5.2596   -1.1001 H         1 ATP         0.5057
     36 H5'1       -1.9258    2.5374    1.9293 H         1 ATP         0.0623
     37 H5'2       -0.8476    2.1925    0.5521 H         1 ATP         0.0623
     38 H4'         0.0402    1.7079    3.4343 H         1 ATP         0.1115
     39 H3'         1.5907    1.4859    1.1353 H         1 ATP         0.0700
     40 HO3'        2.6839   -0.1150    2.2479 H         1 ATP         0.4307
     41 H2'        -0.0017    0.0018    0.0005 H         1 ATP         0.0742
     42 HO2'        0.9369   -2.0558    0.0825 H         1 ATP         0.4245
     43 H1'        -0.1998   -1.6319    2.6178 H         1 ATP         0.1193
     44 H8         -0.9745   -3.6312    1.2318 H         1 ATP         0.0779
     45 HN61       -5.2619   -3.7766   -0.9586 H         1 ATP         0.4486
     46 HN62       -6.4834   -2.5990   -1.3590 H         1 ATP         0.4486
     47 H2         -4.8317    1.4071    0.1930 H         1 ATP         0.0538
@<TRIPOS>BOND
     1    1    2 2
     2    1    3 1
     3    1    4 1
     4    1    8 1
     5    3   32 1
     6    4   33 1
     7    5    6 2
     8    5    7 1
     9    5    8 1
    10    5   12 1
    11    7   34 1
    12    9   10 2
    13    9   11 1
    14    9   12 1
    15    9   13 1
    16   11   35 1
    17   13   14 1
    18   14   15 1
    19   14   36 1
    20   14   37 1
    21   15   16 1
    22   15   17 1
    23   15   38 1
    24   16   21 1
    25   17   18 1
    26   17   19 1
    27   17   39 1
    28   18   40 1
    29   19   20 1
    30   19   21 1
    31   19   41 1
    32   20   42 1
    33   21   22 1
    34   21   43 1
    35   22   23 ar
    36   22   31 ar
    37   23   24 ar
    38   23   44 1
    39   24   25 ar
    40   25   26 ar
    41   25   31 ar
    42   26   27 1
    43   26   28 ar
    44   27   45 1
    45   27   46 1
    46   28   29 ar
    47   29   30 ar
    48   29   47 1
    49   30   31 ar
@<TRIPOS>SUBSTRUCTURE
     1 ATP         1 GROUP 0 A     ****
@<TRIPOS>MOLECULE
[[5-(6-aminopurin-9-yl)-3,4-dihydroxy-tetrahydrofuran-2-yl]methoxy-hydroxy-phosphoryl] phosphono hydrogen phosphate
   47    49     1     0     0
SMALL
USER_CHARGES

@<TRIPOS>ATOM
      1 PG         -2.9161    7.7900    4.5403 P.3       1 ATP         1.8096
      2 O1G        -2.5833    7.2625    5.9048 O.2       1 ATP        -0.7943
      3 O2G        -4.4807    8.1024    4.2829 O.3       1 ATP        -0.7926
      4 O3G        -2.1849    9.1756    4.1424 O.3       1 ATP        -0.7926
      5 PB         -2.9823    5.2992    2.9606 P.3       1 ATP         1.9396
      6 O1B        -2.6667    4.2706    4.0062 O.2       1 ATP        -0.8346
      7 O2B        -4.5531    5.4500    2.6097 O.3       1 ATP        -0.8243
      8 O3B        -2.5204    6.8046    3.3220 O.3       1 ATP        -0.8110
      9 PA         -0.7172    5.0023    1.1041 P.3       1 ATP         1.8043
     10 O1A         0.0745    6.2394    1.4142 O.2       1 ATP        -0.8218
     11 O2A        -0.7666    4.6175   -0.4665 O.3       1 ATP        -0.8115
     12 O3A        -2.2748    5.0770    1.5265 O.3       1 ATP        -0.8294
     13 O5'        -0.2067    3.6555    1.8414 O.3       1 ATP        -0.5751
     14 C5'        -0.8811    2.4285    1.6206 C.3       1 ATP         0.1702
     15 C4'        -0.1994    1.3333    2.4288 C.3       1 ATP         0.1167
     16 O4'        -1.1285    0.2356    2.5840 O.3       1 ATP        -0.4221
     17 C3'         1.0324    0.7610    1.7344 C.3       1 ATP         0.1072
     18 O3'         1.9175    0.2377    2.7247 O.3       1 ATP        -0.5896
     19 C2'         0.4468   -0.3802    0.9263 C.3       1 ATP         0.0668
     20 O2'         1.3993   -1.3703    0.5961 O.3       1 ATP        -0.5764
     21 C1'        -0.6159   -0.9100    1.8769 C.3       1 ATP         0.4327
     22 N9         -1.7127   -1.6108    1.2130 N.pl3     1 ATP        -0.7057
     23 C8         -2.8641   -1.0399    0.7392 C.ar      1 ATP         0.5352
     24 N7         -3.6659   -1.9257    0.1858 N.2       1 ATP        -0.5411
     25 C5         -3.0053   -3.1223    0.3069 C.ar      1 ATP        -0.2315
     26 C6         -3.3321   -4.4178   -0.0813 C.ar      1 ATP         0.7606
     27 N6         -4.5476   -4.6866   -0.7335 N.pl3     1 ATP        -0.9553
     28 N1         -2.4608   -5.4225    0.1773 N.ar      1 ATP        -0.7923
     29 C2         -1.3053   -5.1020    0.8081 C.ar      1 ATP         0.6867
     30 N3         -0.8788   -3.8921    1.2315 N.ar      1 ATP        -0.7305
     31 C4         -1.7870   -2.9477    0.9438 C.ar      1 ATP         0.5923
     32 HOG2       -5.1303    7.3718    4.3621 H         1 ATP         0.5059
     33 HOG3       -2.3429    9.9712    4.6938 H         1 ATP         0.5059
     34 HOB2       -5.0390    4.6714    2.2636 H         1 ATP         0.5086
     35 HOA2       -1.1514    5.2596   -1.1001 H         1 ATP         0.5057
     36 H5'1       -1.9258    2.5374    1.9293 H         1 ATP         0.0623
     37 H5'2       -0.8476    2.1925    0.5521 H         1 ATP         0.0623
     38 H4'         0.0402    1.7079    3.4343 H         1 ATP         0.1115
     39 H3'         1.5907    1.4859    1.1353 H         1 ATP         0.0700
     40 HO3'        2.1521    0.9800    3.3017 H         1 ATP         0.4307
     41 H2'        -0.0017    0.0018    0.0005 H         1 ATP         0.0742
     42 HO2'        0.9369   -2.0558    0.0825 H         1 ATP         0.4245
     43 H1'        -0.1998   -1.6319    2.6178 H         1 ATP         0.1193
     44 H8         -3.0609    0.0200    0.8250 H         1 ATP         0.0779
     45 HN61       -5.2046   -3.9433   -0.8775 H         1 ATP         0.4486
     46 HN62       -4.7849   -5.6332   -0.9625 H         1 ATP         0.4486
     47 H2         -0.6318   -5.9307    0.9993 H         1 ATP         0.0538
@<TRIPOS>BOND
     1    1    2 2
     2    1    3 1
     3    1    4 1
     4    1    8 1
     5    3   32 1
     6    4   33 1
     7    5    6 2
     8    5    7 1
     9    5    8 1
    10    5   12 1
    11    7   34 1
    12    9   10 2
    13    9   11 1
    14    9   12 1
    15    9   13 1
    16   11   35 1
    17   13   14 1
    18   14   15 1
    19   14   36 1
    20   14   37 1
    21   15   16 1
    22   15   17 1
    23   15   38 1
    24   16   21 1
    25   17   18 1
    26   17   19 1
    27   17   39 1
    28   18   40 1
    29   19   20 1
    30   19   21 1
    31   19   41 1
    32   20   42 1
    33   21   22 1
    34   21   43 1
    35   22   23 ar
    36   22   31 ar
    37   23   24 ar
    38   23   44 1
    39   24   25 ar
    40   25   26 ar
    41   25   31 ar
    42   26   27 1
    43   26   28 ar
    44   27   45 1
    45   27   46 1
    46   28   29 ar
    47   29   30 ar
    48   29   47 1
    49   30   31 ar
@<TRIPOS>SUBSTRUCTURE
     1 ATP         1 GROUP 0 A     ****
@<TRIPOS>MOLECULE
[[5-(6-aminopurin-9-yl)-3,4-dihydroxy-tetrahydrofuran-2-yl]methoxy-hydroxy-phosphoryl] phosphono hydrogen phosphate
   47    49     1     0     0
SMALL
USER_CHARGES

@<TRIPOS>ATOM
      1 PG         -4.7131    6.4268   -1.2665 P.3       1 ATP         1.8096
      2 O1G        -4.5471    7.8322   -1.7648 O.2       1 ATP        -0.7943
      3 O2G        -6.0198    6.1679   -0.3515 O.3       1 ATP        -0.7926
      4 O3G        -4.8304    5.2990   -2.4184 O.3       1 ATP        -0.7926
      5 PB         -2.8848    6.4173    1.0490 P.3       1 ATP         1.9396
      6 O1B        -2.3537    7.8201    1.0194 O.2       1 ATP        -0.8346
      7 O2B        -4.0769    6.1655    2.1113 O.3       1 ATP        -0.8243
      8 O3B        -3.4955    5.8886   -0.3503 O.3       1 ATP        -0.8110
      9 PA         -0.4423    4.8273    0.6350 P.3       1 ATP         1.8043
     10 O1A         0.5926    5.9096    0.5302 O.2       1 ATP        -0.8218
     11 O2A        -0.9606    4.2592   -0.7883 O.3       1 ATP        -0.8115
     12 O3A        -1.8026    5.2679    1.3869 O.3       1 ATP        -0.8294
     13 O5'         0.0173    3.5130    1.4593 O.3       1 ATP        -0.5751
     14 C5'        -0.8811    2.4285    1.6206 C.3       1 ATP         0.1702
     15 C4'        -0.1994    1.3333    2.4288 C.3       1 ATP         0.1167
     16 O4'        -1.1285    0.2356    2.5840 O.3       1 ATP        -0.4221
     17 C3'         1.0324    0.7610    1.7344 C.3       1 ATP         0.1072
     18 O3'         1.9175    0.2377    2.7247 O.3       1 ATP        -0.5896
     19 C2'         0.4468   -0.3802    0.9263 C.3       1 ATP         0.0668
     20 O2'         1.3993   -1.3703    0.5961 O.3       1 ATP        -0.5764
     21 C1'        -0.6159   -0.9100    1.8769 C.3       1 ATP         0.4327
     22 N9         -1.7127   -1.6108    1.2130 N.pl3     1 ATP        -0.7057
     23 C8         -2.0877   -2.9101    1.4304 C.ar      1 ATP         0.5352
     24 N7         -3.1152   -3.2613    0.6857 N.2       1 ATP        -0.5411
     25 C5         -3.4186   -2.1409   -0.0462 C.ar      1 ATP        -0.2315
     26 C6         -4.3953   -1.8809   -1.0023 C.ar      1 ATP         0.7606
     27 N6         -5.3118   -2.8767   -1.3812 N.pl3     1 ATP        -0.9553
     28 N1         -4.4538   -0.6507   -1.5667 N.ar      1 ATP        -0.7923
     29 C2         -3.5442    0.2679   -1.1609 C.ar      1 ATP         0.6867
     30 N3         -2.5561    0.1361   -0.2491 N.ar      1 ATP        -0.7305
     31 C4         -2.5568   -1.1019    0.2674 C.ar      1 ATP         0.5923
     32 HOG2       -6.9077    6.3346   -0.7333 H         1 ATP         0.5059
     33 HOG3       -4.0886    5.1867   -3.0502 H         1 ATP         0.5059
     34 HOB2       -3.9052    6.3241    3.0639 H         1 ATP         0.5086
     35 HOA2       -1.3877    4.8776   -1.4185 H         1 ATP         0.5057
     36 H5'1       -1.7774    2.7844    2.1388 H         1 ATP         0.0623
     37 H5'2       -1.1657    2.0536    0.6322 H         1 ATP         0.0623
     38 H4'         0.0402    1.7079    3.4343 H         1 ATP         0.1115
     39 H3'         1.5907    1.4859    1.1353 H         1 ATP         0.0700
     40 HO3'        2.6839   -0.1150    2.2479 H         1 ATP         0.4307
     41 H2'        -0.0017    0.0018    0.0005 H         1 ATP         0.0742
     42 HO2'        0.9369   -2.0558    0.0825 H         1 ATP         0.4245
     43 H1'        -0.1998   -1.6319    2.6178 H         1 ATP         0.1193
     44 H8         -1.5778   -3.5473    2.1399 H         1 ATP         0.0779
     45 HN61       -5.2294   -3.7965   -0.9914 H         1 ATP         0.4486
     46 HN62       -5.9774   -2.6837   -2.1055 H         1 ATP         0.4486
     47 H2         -3.6201    1.2414   -1.6336 H         1 ATP         0.0538
@<TRIPOS>BOND
     1    1    2 2
     2    1    3 1
     3    1    4 1
     4    1    8 1
     5    3   32 1
     6    4   33 1
     7    5    6 2
     8    5    7 1
     9    5    8 1
    10    5   12 1
    11    7   34 1
    12    9   10 2
    13    9   11 1
    14    9   12 1
    15    9   13 1
    16   11   35 1
    17   13   14 1
    18   14   15 1
    19   14   36 1
    20   14   37 1
    21   15   16 1
    22   15   17 1
    23   15   38 1
    24   16   21 1
    25   17   18 1
    26   17   19 1
    27   17   39 1
    28   18   40 1
    29   19   20 1
    30   19   21 1
    31   19   41 1
    32   20   42 1
    33   21   22 1
    34   21   43 1
    35   22   23 ar
    36   22   31 ar
    37   23   24 ar
    38   23   44 1
    39   24   25 ar
    40   25   26 ar
    41   25   31 ar
    42   26   27 1
    43   26   28 ar
    44   27   45 1
    45   27   46 1
    46   28   29 ar
    47   29   30 ar
    48   29   47 1
    49   30   31 ar
@<TRIPOS>SUBSTRUCTURE
     1 ATP         1 GROUP 0 A     ****
@<TRIPOS>MOLECULE
[[5-(6-aminopurin-9-yl)-3,4-dihydroxy-tetrahydrofuran-2-yl]methoxy-hydroxy-phosphoryl] phosphono hydrogen phosphate
   47    49     1     0     0
SMALL
USER_CHARGES

@<TRIPOS>ATOM
      1 PG         -4.7340    6.8091    2.1123 P.3       1 ATP         1.8096
      2 O1G        -4.6861    6.6499    0.6212 O.2       1 ATP        -0.7943
      3 O2G        -4.4350    8.3006    2.6579 O.3       1 ATP        -0.7926
      4 O3G        -6.1488    6.4339    2.7980 O.3       1 ATP        -0.7926
      5 PB         -2.0666    5.8125    2.8837 P.3       1 ATP         1.9396
      6 O1B        -1.3614    7.0867    3.2443 O.2       1 ATP        -0.8346
      7 O2B        -1.7170    4.5515    3.8329 O.3       1 ATP        -0.8243
      8 O3B        -3.6799    5.8902    2.9223 O.3       1 ATP        -0.8110
      9 PA         -0.4423    4.8273    0.6350 P.3       1 ATP         1.8043
     10 O1A         0.5926    5.9096    0.5302 O.2       1 ATP        -0.8218
     11 O2A        -0.9606    4.2592   -0.7883 O.3       1 ATP        -0.8115
     12 O3A        -1.8026    5.2679    1.3869 O.3       1 ATP        -0.8294
     13 O5'         0.0173    3.5130    1.4593 O.3       1 ATP        -0.5751
     14 C5'        -0.8811    2.4285    1.6206 C.3       1 ATP         0.1702
     15 C4'        -0.1994    1.3333    2.4288 C.3       1 ATP         0.1167
     16 O4'        -1.1285    0.2356    2.5840 O.3       1 ATP        -0.4221
     17 C3'         1.0324    0.7610    1.7344 C.3       1 ATP         0.1072
     18 O3'         1.9175    0.2377    2.7247 O.3       1 ATP        -0.5896
     19 C2'         0.4468   -0.3802    0.9263 C.3       1 ATP         0.0668
     20 O2'         1.3993   -1.3703    0.5961 O.3       1 ATP        -0.5764
     21 C1'        -0.6159   -0.9100    1.8769 C.3       1 ATP         0.4327
     22 N9         -1.7127   -1.6108    1.2130 N.pl3     1 ATP        -0.7057
     23 C8         -1.7712   -2.9546    0.9544 C.ar      1 ATP         0.5352
     24 N7         -2.8883   -3.2948    0.3462 N.2       1 ATP        -0.5411
     25 C5         -3.5834   -2.1202    0.2043 C.ar      1 ATP        -0.2315
     26 C6         -4.8225   -1.8251   -0.3554 C.ar      1 ATP         0.7606
     27 N6         -5.6154   -2.8394   -0.9189 N.pl3     1 ATP        -0.9553
     28 N1         -5.2589   -0.5425   -0.3507 N.ar      1 ATP        -0.7923
     29 C2         -4.4510    0.3913    0.2069 C.ar      1 ATP         0.6867
     30 N3         -3.2368    0.2296    0.7767 N.ar      1 ATP        -0.7305
     31 C4         -2.8684   -1.0596    0.7376 C.ar      1 ATP         0.5923
     32 HOG2       -3.5698    8.7160    2.4555 H         1 ATP         0.5059
     33 HOG3       -6.9520    6.9297    2.5314 H         1 ATP         0.5059
     34 HOB2       -1.9111    4.6115    4.7925 H         1 ATP         0.5086
     35 HOA2       -1.3877    4.8776   -1.4185 H         1 ATP         0.5057
     36 H5'1       -1.7774    2.7844    2.1388 H         1 ATP         0.0623
     37 H5'2       -1.1657    2.0536    0.6322 H         1 ATP         0.0623
     38 H4'         0.0402    1.7079    3.4343 H         1 ATP         0.1115
     39 H3'         1.5907    1.4859    1.1353 H         1 ATP         0.0700
     40 HO3'        2.6839   -0.1150    2.2479 H         1 ATP         0.4307
     41 H2'        -0.0017    0.0018    0.0005 H         1 ATP         0.0742
     42 HO2'        2.0953   -0.9375    0.0709 H         1 ATP         0.4245
     43 H1'        -0.1998   -1.6319    2.6178 H         1 ATP         0.1193
     44 H8         -0.9745   -3.6312    1.2318 H         1 ATP         0.0779
     45 HN61       -5.2619   -3.7766   -0.9586 H         1 ATP         0.4486
     46 HN62       -6.4834   -2.5990   -1.3590 H         1 ATP         0.4486
     47 H2         -4.8317    1.4071    0.1930 H         1 ATP         0.0538
@<TRIPOS>BOND
     1    1    2 2
     2    1    3 1
     3    1    4 1
     4    1    8 1
     5    3   32 1
     6    4   33 1
     7    5    6 2
     8    5    7 1
     9    5    8 1
    10    5   12 1
    11    7   34 1
    12    9   10 2
    13    9   11 1
    14    9   12 1
    15    9   13 1
    16   11   35 1
    17   13   14 1
    18   14   15 1
    19   14   36 1
    20   14   37 1
    21   15   16 1
    22   15   17 1
    23   15   38 1
    24   16   21 1
    25   17   18 1
    26   17   19 1
    27   17   39 1
    28   18   40 1
    29   19   20 1
    30   19   21 1
    31   19   41 1
    32   20   42 1
    33   21   22 1
    34   21   43 1
    35   22   23 ar
    36   22   31 ar
    37   23   24 ar
    38   23   44 1
    39   24   25 ar
    40   25   26 ar
    41   25   31 ar
    42   26   27 1
    43   26   28 ar
    44   27   45 1
    45   27   46 1
    46   28   29 ar
    47   29   30 ar
    48   29   47 1
    49   30   31 ar
@<TRIPOS>SUBSTRUCTURE
     1 ATP         1 GROUP 0 A     ****
@<TRIPOS>MOLECULE
[[5-(6-aminopurin-9-yl)-3,4-dihydroxy-tetrahydrofuran-2-yl]methoxy-hydroxy-phosphoryl] phosphono hydrogen phosphate
   47    49     1     0     0
SMALL
USER_CHARGES

@<TRIPOS>ATOM
      1 PG         -4.7140    6.2308    4.1166 P.3       1 ATP         1.8096
      2 O1G        -4.5426    7.5923    4.7231 O.2       1 ATP        -0.7943
      3 O2G        -4.5351    4.9916    5.1384 O.3       1 ATP        -0.7926
      4 O3G        -6.1565    5.9565    3.4408 O.3       1 ATP        -0.7926
      5 PB         -2.0666    5.8125    2.8837 P.3       1 ATP         1.9396
      6 O1B        -1.3614    7.0867    3.2443 O.2       1 ATP        -0.8346
      7 O2B        -1.7170    4.5515    3.8329 O.3       1 ATP        -0.8243
      8 O3B        -3.6799    5.8902    2.9223 O.3       1 ATP        -0.8110
      9 PA         -0.4423    4.8273    0.6350 P.3       1 ATP         1.8043
     10 O1A         0.5926    5.9096    0.5302 O.2       1 ATP        -0.8218
     11 O2A        -0.9606    4.2592   -0.7883 O.3       1 ATP        -0.8115
     12 O3A        -1.8026    5.2679    1.3869 O.3       1 ATP        -0.8294
     13 O5'         0.0173    3.5130    1.4593 O.3       1 ATP        -0.5751
     14 C5'        -0.8811    2.4285    1.6206 C.3       1 ATP         0.1702
     15 C4'        -0.1994    1.3333    2.4288 C.3       1 ATP         0.1167
     16 O4'        -1.1285    0.2356    2.5840 O.3       1 ATP        -0.4221
     17 C3'         1.0324    0.7610    1.7344 C.3       1 ATP         0.1072
     18 O3'         1.9175    0.2377    2.7247 O.3       1 ATP        -0.5896
     19 C2'         0.4468   -0.3802    0.9263 C.3       1 ATP         0.0668
     20 O2'         1.3993   -1.3703    0.5961 O.3       1 ATP        -0.5764
     21 C1'        -0.6159   -0.9100    1.8769 C.3       1 ATP         0.4327
     22 N9         -1.7127   -1.6108    1.2130 N.pl3     1 ATP        -0.7057
     23 C8         -1.7712   -2.9546    0.9544 C.ar      1 ATP         0.5352
     24 N7         -2.8883   -3.2948    0.3462 N.2       1 ATP        -0.5411
     25 C5         -3.5834   -2.1202    0.2043 C.ar      1 ATP        -0.2315
     26 C6         -4.8225   -1.8251   -0.3554 C.ar      1 ATP         0.7606
     27 N6         -5.6154   -2.8394   -0.9189 N.pl3     1 ATP        -0.9553
     28 N1         -5.2589   -0.5425   -0.3507 N.ar      1 ATP        -0.7923
     29 C2         -4.4510    0.3913    0.2069 C.ar      1 ATP         0.6867
     30 N3         -3.2368    0.2296    0.7767 N.ar      1 ATP        -0.7305
     31 C4         -2.8684   -1.0596    0.7376 C.ar      1 ATP         0.5923
     32 HOG2       -3.6794    4.8798    5.6045 H         1 ATP         0.5059
     33 HOG3       -6.9610    6.0149    3.9987 H         1 ATP         0.5059
     34 HOB2       -0.7872    4.2446    3.8910 H         1 ATP         0.5086
     35 HOA2       -1.3877    4.8776   -1.4185 H         1 ATP         0.5057
     36 H5'1       -1.7774    2.7844    2.1388 H         1 ATP         0.0623
     37 H5'2       -1.1657    2.0536    0.6322 H         1 ATP         0.0623
     38 H4'         0.0402    1.7079    3.4343 H         1 ATP         0.1115
     39 H3'         1.5907    1.4859    1.1353 H         1 ATP         0.0700
     40 HO3'        2.6839   -0.1150    2.2479 H         1 ATP         0.4307
     41 H2'        -0.0017    0.0018    0.0005 H         1 ATP         0.0742
     42 HO2'        2.0953   -0.9375    0.0709 H         1 ATP         0.4245
     43 H1'        -0.1998   -1.6319    2.6178 H         1 ATP         0.1193
     44 H8         -0.9745   -3.6312    1.2318 H         1 ATP         0.0779
     45 HN61       -5.2619   -3.7766   -0.9586 H         1 ATP         0.4486
     46 HN62       -6.4834   -2.5990   -1.3590 H         1 ATP         0.4486
     47 H2         -4.8317    1.4071    0.1930 H         1 ATP         0.0538
@<TRIPOS>BOND
     1    1    2 2
     2    1    3 1
     3    1    4 1
     4    1    8 1
     5    3   32 1
     6    4   33 1
     7    5    6 2
     8    5    7 1
     9    5    8 1
    10    5   12 1
    11    7   34 1
    12    9   10 2
    13    9   11 1
    14    9   12 1
    15    9   13 1
    16   11   35 1
    17   13   14 1
    18   14   15 1
    19   14   36 1
    20   14   37 1
    21   15   16 1
    22   15   17 1
    23   15   38 1
    24   16   21 1
    25   17   18 1
    26   17   19 1
    27   17   39 1
    28   18   40 1
    29   19   20 1
    30   19   21 1
    31   19   41 1
    32   20   42 1
    33   21   22 1
    34   21   43 1
    35   22   23 ar
    36   22   31 ar
    37   23   24 ar
    38   23   44 1
    39   24   25 ar
    40   25   26 ar
    41   25   31 ar
    42   26   27 1
    43   26   28 ar
    44   27   45 1
    45   27   46 1
    46   28   29 ar
    47   29   30 ar
    48   29   47 1
    49   30   31 ar
@<TRIPOS>SUBSTRUCTURE
     1 ATP         1 GROUP 0 A     ****
@<TRIPOS>MOLECULE
[[5-(6-aminopurin-9-yl)-3,4-dihydroxy-tetrahydrofuran-2-yl]methoxy-hydroxy-phosphoryl] phosphono hydrogen phosphate
   47    49     1     0     0
SMALL
USER_CHARGES

@<TRIPOS>ATOM
      1 PG         -3.9294    6.1485    3.8944 P.3       1 ATP         1.8096
      2 O1G        -5.2895    5.9183    3.3045 O.2       1 ATP        -0.7943
      3 O2G        -3.9158    6.8831    5.3338 O.3       1 ATP        -0.7926
      4 O3G        -3.0544    4.8127    4.1450 O.3       1 ATP        -0.7926
      5 PB         -2.3759    6.8741    1.4936 P.3       1 ATP         1.9396
      6 O1B        -3.4209    6.7869    0.4206 O.2       1 ATP        -0.8346
      7 O2B        -1.3285    8.0936    1.3231 O.3       1 ATP        -0.8243
      8 O3B        -2.9496    7.0636    2.9920 O.3       1 ATP        -0.8110
      9 PA         -0.4423    4.8273    0.6350 P.3       1 ATP         1.8043
     10 O1A         0.6788    5.6851    0.1243 O.2       1 ATP        -0.8218
     11 O2A        -1.4308    4.2656   -0.5159 O.3       1 ATP        -0.8115
     12 O3A        -1.4411    5.5691    1.6656 O.3       1 ATP        -0.8294
     13 O5'         0.0173    3.5130    1.4593 O.3       1 ATP        -0.5751
     14 C5'        -0.8811    2.4285    1.6206 C.3       1 ATP         0.1702
     15 C4'        -0.1994    1.3333    2.4288 C.3       1 ATP         0.1167
     16 O4'        -1.1285    0.2356    2.5840 O.3       1 ATP        -0.4221
     17 C3'         1.0324    0.7610    1.7344 C.3       1 ATP         0.1072
     18 O3'         1.9175    0.2377    2.7247 O.3       1 ATP        -0.5896
     19 C2'         0.4468   -0.3802    0.9263 C.3       1 ATP         0.0668
     20 O2'         1.3993   -1.3703    0.5961 O.3       1 ATP        -0.5764
     21 C1'        -0.6159   -0.9100    1.8769 C.3       1 ATP         0.4327
     22 N9         -1.7127   -1.6108    1.2130 N.pl3     1 ATP        -0.7057
     23 C8         -2.8641   -1.0399    0.7392 C.ar      1 ATP         0.5352
     24 N7         -3.6659   -1.9257    0.1858 N.2       1 ATP        -0.5411
     25 C5         -3.0053   -3.1223    0.3069 C.ar      1 ATP        -0.2315
     26 C6         -3.3321   -4.4178   -0.0813 C.ar      1 ATP         0.7606
     27 N6         -4.5476   -4.6866   -0.7335 N.pl3     1 ATP        -0.9553
     28 N1         -2.4608   -5.4225    0.1773 N.ar      1 ATP        -0.7923
     29 C2         -1.3053   -5.1020    0.8081 C.ar      1 ATP         0.6867
     30 N3         -0.8788   -3.8921    1.2315 N.ar      1 ATP        -0.7305
     31 C4         -1.7870   -2.9477    0.9438 C.ar      1 ATP         0.5923
     32 HOG2       -4.3058    7.7795    5.4134 H         1 ATP         0.5059
     33 HOG3       -2.8317    4.2405    3.3801 H         1 ATP         0.5059
     34 HOB2       -1.6686    9.0135    1.3133 H         1 ATP         0.5086
     35 HOA2       -1.0591    3.6994   -1.2253 H         1 ATP         0.5057
     36 H5'1       -1.7774    2.7844    2.1388 H         1 ATP         0.0623
     37 H5'2       -1.1657    2.0536    0.6322 H         1 ATP         0.0623
     38 H4'         0.0402    1.7079    3.4343 H         1 ATP         0.1115
     39 H3'         1.5907    1.4859    1.1353 H         1 ATP         0.0700
     40 HO3'        2.6839   -0.1150    2.2479 H         1 ATP         0.4307
     41 H2'        -0.0017    0.0018    0.0005 H         1 ATP         0.0742
     42 HO2'        2.0953   -0.9375    0.0709 H         1 ATP         0.4245
     43 H1'        -0.1998   -1.6319    2.6178 H         1 ATP         0.1193
     44 H8         -3.0609    0.0200    0.8250 H         1 ATP         0.0779
     45 HN61       -5.2046   -3.9433   -0.8775 H         1 ATP         0.4486
     46 HN62       -4.7849   -5.6332   -0.9625 H         1 ATP         0.4486
     47 H2         -0.6318   -5.9307    0.9993 H         1 ATP         0.0538
@<TRIPOS>BOND
     1    1    2 2
     2    1    3 1
     3    1    4 1
     4    1    8 1
     5    3   32 1
     6    4   33 1
     7    5    6 2
     8    5    7 1
     9    5    8 1
    10    5   12 1
    11    7   34 1
    12    9   10 2
    13    9   11 1
    14    9   12 1
    15    9   13 1
    16   11   35 1
    17   13   14 1
    18   14   15 1
    19   14   36 1
    20   14   37 1
    21   15   16 1
    22   15   17 1
    23   15   38 1
    24   16   21 1
    25   17   18 1
    26   17   19 1
    27   17   39 1
    28   18   40 1
    29   19   20 1
    30   19   21 1
    31   19   41 1
    32   20   42 1
    33   21   22 1
    34   21   43 1
    35   22   23 ar
    36   22   31 ar
    37   23   24 ar
    38   23   44 1
    39   24   25 ar
    40   25   26 ar
    41   25   31 ar
    42   26   27 1
    43   26   28 ar
    44   27   45 1
    45   27   46 1
    46   28   29 ar
    47   29   30 ar
    48   29   47 1
    49   30   31 ar
@<TRIPOS>SUBSTRUCTURE
     1 ATP         1 GROUP 0 A     ****
@<TRIPOS>MOLECULE
[[5-(6-aminopurin-9-yl)-3,4-dihydroxy-tetrahydrofuran-2-yl]methoxy-hydroxy-phosphoryl] phosphono hydrogen phosphate
   47    49     1     0     0
SMALL
USER_CHARGES

@<TRIPOS>ATOM
      1 PG         -3.3135   -3.2612   -3.7817 P.3       1 ATP         1.8096
      2 O1G        -3.6286   -3.3910   -2.3206 O.2       1 ATP        -0.7943
      3 O2G        -2.2672   -4.3474   -4.3622 O.3       1 ATP        -0.7926
      4 O3G        -4.5835   -3.3946   -4.7727 O.3       1 ATP        -0.7926
      5 PB         -3.2139   -0.3289   -4.0908 P.3       1 ATP         1.9396
      6 O1B        -4.4934   -0.0597   -4.8265 O.2       1 ATP        -0.8346
      7 O2B        -3.2784   -0.0624   -2.4977 O.3       1 ATP        -0.8243
      8 O3B        -2.6645   -1.8437   -4.2077 O.3       1 ATP        -0.8110
      9 PA         -1.6645    2.1131   -4.6401 P.3       1 ATP         1.8043
     10 O1A        -2.6279    2.8793   -5.4993 O.2       1 ATP        -0.8218
     11 O2A        -0.1197    2.2227   -5.1080 O.3       1 ATP        -0.8115
     12 O3A        -1.9328    0.5210   -4.5839 O.3       1 ATP        -0.8294
     13 O5'        -1.6513    2.5331   -3.0776 O.3       1 ATP        -0.5751
     14 C5'        -0.7794    1.8744   -2.1748 C.3       1 ATP         0.1702
     15 C4'        -0.9699    2.4597   -0.7819 C.3       1 ATP         0.1167
     16 O4'        -2.1475    1.8640   -0.2014 O.3       1 ATP        -0.4221
     17 C3'         0.1697    2.1347    0.1695 C.3       1 ATP         0.1072
     18 O3'         0.1809    3.0982    1.2223 O.3       1 ATP        -0.5896
     19 C2'        -0.2543    0.7880    0.7187 C.3       1 ATP         0.0668
     20 O2'         0.3606    0.4944    1.9582 O.3       1 ATP        -0.5764
     21 C1'        -1.7682    0.9516    0.8548 C.3       1 ATP         0.4327
     22 N9         -2.5926   -0.2553    0.7436 N.pl3     1 ATP        -0.7057
     23 C8         -2.1324   -1.5302    0.5457 C.ar      1 ATP         0.5352
     24 N7         -3.1118   -2.4085    0.4915 N.2       1 ATP        -0.5411
     25 C5         -4.2561   -1.6704    0.6612 C.ar      1 ATP        -0.2315
     26 C6         -5.6018   -2.0215    0.6998 C.ar      1 ATP         0.7606
     27 N6         -5.9988   -3.3610    0.5479 N.pl3     1 ATP        -0.9553
     28 N1         -6.5303   -1.0528    0.8871 N.ar      1 ATP        -0.7923
     29 C2         -6.0872    0.2199    1.0276 C.ar      1 ATP         0.6867
     30 N3         -4.8179    0.6820    1.0081 N.ar      1 ATP        -0.7305
     31 C4         -3.9544   -0.3272    0.8198 C.ar      1 ATP         0.5923
     32 HOG2       -2.4915   -5.3006   -4.3056 H         1 ATP         0.5059
     33 HOG3       -5.3239   -2.7575   -4.6840 H         1 ATP         0.5059
     34 HOB2       -3.4974    0.8378   -2.1755 H         1 ATP         0.5086
     35 HOA2        0.1274    1.9110   -6.0045 H         1 ATP         0.5057
     36 H5'1       -1.0111    0.8044   -2.1748 H         1 ATP         0.0623
     37 H5'2        0.2527    2.0160   -2.5113 H         1 ATP         0.0623
     38 H4'        -1.1469    3.5409   -0.8523 H         1 ATP         0.1115
     39 H3'         1.1601    2.1310   -0.2934 H         1 ATP         0.0700
     40 HO3'        0.9173    2.8584    1.8048 H         1 ATP         0.4307
     41 H2'        -0.0024   -0.0091    0.0062 H         1 ATP         0.0742
     42 HO2'        1.3225    0.4909    1.8095 H         1 ATP         0.4245
     43 H1'        -2.0584    1.4255    1.8301 H         1 ATP         0.1193
     44 H8         -1.0791   -1.7555    0.4498 H         1 ATP         0.0779
     45 HN61       -6.9693   -3.5994    0.6259 H         1 ATP         0.4486
     46 HN62       -5.3005   -4.0746    0.4576 H         1 ATP         0.4486
     47 H2         -6.8575    0.9694    1.1755 H         1 ATP         0.0538
@<TRIPOS>BOND
     1    1    2 2
     2    1    3 1
     3    1    4 1
     4    1    8 1
     5    3   32 1
     6    4   33 1
     7    5    6 2
     8    5    7 1
     9    5    8 1
    10    5   12 1
    11    7   34 1
    12    9   10 2
    13    9   11 1
    14    9   12 1
    15    9   13 1
    16   11   35 1
    17   13   14 1
    18   14   15 1
    19   14   36 1
    20   14   37 1
    21   15   16 1
    22   15   17 1
    23   15   38 1
    24   16   21 1
    25   17   18 1
    26   17   19 1
    27   17   39 1
    28   18   40 1
    29   19   20 1
    30   19   21 1
    31   19   41 1
    32   20   42 1
    33   21   22 1
    34   21   43 1
    35   22   23 ar
    36   22   31 ar
    37   23   24 ar
    38   23   44 1
    39   24   25 ar
    40   25   26 ar
    41   25   31 ar
    42   26   27 1
    43   26   28 ar
    44   27   45 1
    45   27   46 1
    46   28   29 ar
    47   29   30 ar
    48   29   47 1
    49   30   31 ar
@<TRIPOS>SUBSTRUCTURE
     1 ATP         1 GROUP 0 A     ****
@<TRIPOS>MOLECULE
[[5-(6-aminopurin-9-yl)-3,4-dihydroxy-tetrahydrofuran-2-yl]methoxy-hydroxy-phosphoryl] phosphono hydrogen phosphate
   47    49     1     0     0
SMALL
USER_CHARGES

@<TRIPOS>ATOM
      1 PG         -3.7616    6.5482    5.7650 P.3       1 ATP         1.8096
      2 O1G        -3.2015    7.8404    6.2823 O.2       1 ATP        -0.7943
      3 O2G        -3.9235    5.3756    6.8653 O.3       1 ATP        -0.7926
      4 O3G        -5.2341    6.6526    5.1064 O.3       1 ATP        -0.7926
      5 PB         -2.4513    6.3674    3.1279 P.3       1 ATP         1.9396
      6 O1B        -3.5897    6.6839    2.2034 O.2       1 ATP        -0.8346
      7 O2B        -1.4576    7.6062    3.4295 O.3       1 ATP        -0.8243
      8 O3B        -2.8868    5.8543    4.5967 O.3       1 ATP        -0.8110
      9 PA         -0.5527    5.0214    1.3254 P.3       1 ATP         1.8043
     10 O1A         0.4921    6.0864    1.1590 O.2       1 ATP        -0.8218
     11 O2A        -1.6294    4.9483    0.1202 O.3       1 ATP        -0.8115
     12 O3A        -1.4699    5.1795    2.6459 O.3       1 ATP        -0.8294
     13 O5'         0.0173    3.5130    1.4593 O.3       1 ATP        -0.5751
     14 C5'        -0.8811    2.4285    1.6206 C.3       1 ATP         0.1702
     15 C4'        -0.1994    1.3333    2.4288 C.3       1 ATP         0.1167
     16 O4'        -1.1285    0.2356    2.5840 O.3       1 ATP        -0.4221
     17 C3'         1.0324    0.7610    1.7344 C.3       1 ATP         0.1072
     18 O3'         1.9175    0.2377    2.7247 O.3       1 ATP        -0.5896
     19 C2'         0.4468   -0.3802    0.9263 C.3       1 ATP         0.0668
     20 O2'         1.3993   -1.3703    0.5961 O.3       1 ATP        -0.5764
     21 C1'        -0.6159   -0.9100    1.8769 C.3       1 ATP         0.4327
     22 N9         -1.7127   -1.6108    1.2130 N.pl3     1 ATP        -0.7057
     23 C8         -1.7712   -2.9546    0.9544 C.ar      1 ATP         0.5352
     24 N7         -2.8883   -3.2948    0.3462 N.2       1 ATP        -0.5411
     25 C5         -3.5834   -2.1202    0.2043 C.ar      1 ATP        -0.2315
     26 C6         -4.8225   -1.8251   -0.3554 C.ar      1 ATP         0.7606
     27 N6         -5.6154   -2.8394   -0.9189 N.pl3     1 ATP        -0.9553
     28 N1         -5.2589   -0.5425   -0.3507 N.ar      1 ATP        -0.7923
     29 C2         -4.4510    0.3913    0.2069 C.ar      1 ATP         0.6867
     30 N3         -3.2368    0.2296    0.7767 N.ar      1 ATP        -0.7305
     31 C4         -2.8684   -1.0596    0.7376 C.ar      1 ATP         0.5923
     32 HOG2       -3.1266    5.0551    7.3388 H         1 ATP         0.5059
     33 HOG3       -5.3667    7.2376    4.3303 H         1 ATP         0.5059
     34 HOB2       -0.9836    8.0275    2.6812 H         1 ATP         0.5086
     35 HOA2       -2.1819    5.7360   -0.0704 H         1 ATP         0.5057
     36 H5'1       -1.7774    2.7844    2.1388 H         1 ATP         0.0623
     37 H5'2       -1.1657    2.0536    0.6322 H         1 ATP         0.0623
     38 H4'         0.0402    1.7079    3.4343 H         1 ATP         0.1115
     39 H3'         1.5907    1.4859    1.1353 H         1 ATP         0.0700
     40 HO3'        2.6839   -0.1150    2.2479 H         1 ATP         0.4307
     41 H2'        -0.0017    0.0018    0.0005 H         1 ATP         0.0742
     42 HO2'        2.0953   -0.9375    0.0709 H         1 ATP         0.4245
     43 H1'        -0.1998   -1.6319    2.6178 H         1 ATP         0.1193
     44 H8         -0.9745   -3.6312    1.2318 H         1 ATP         0.0779
     45 HN61       -5.2619   -3.7766   -0.9586 H         1 ATP         0.4486
     46 HN62       -6.4834   -2.5990   -1.3590 H         1 ATP         0.4486
     47 H2         -4.8317    1.4071    0.1930 H         1 ATP         0.0538
@<TRIPOS>BOND
     1    1    2 2
     2    1    3 1
     3    1    4 1
     4    1    8 1
     5    3   32 1
     6    4   33 1
     7    5    6 2
     8    5    7 1
     9    5    8 1
    10    5   12 1
    11    7   34 1
    12    9   10 2
    13    9   11 1
    14    9   12 1
    15    9   13 1
    16   11   35 1
    17   13   14 1
    18   14   15 1
    19   14   36 1
    20   14   37 1
    21   15   16 1
    22   15   17 1
    23   15   38 1
    24   16   21 1
    25   17   18 1
    26   17   19 1
    27   17   39 1
    28   18   40 1
    29   19   20 1
    30   19   21 1
    31   19   41 1
    32   20   42 1
    33   21   22 1
    34   21   43 1
    35   22   23 ar
    36   22   31 ar
    37   23   24 ar
    38   23   44 1
    39   24   25 ar
    40   25   26 ar
    41   25   31 ar
    42   26   27 1
    43   26   28 ar
    44   27   45 1
    45   27   46 1
    46   28   29 ar
    47   29   30 ar
    48   29   47 1
    49   30   31 ar
@<TRIPOS>SUBSTRUCTURE
     1 ATP         1 GROUP 0 A     ****
@<TRIPOS>MOLECULE
[[5-(6-aminopurin-9-yl)-3,4-dihydroxy-tetrahydrofuran-2-yl]methoxy-hydroxy-phosphoryl] phosphono hydrogen phosphate
   47    49     1     0     0
SMALL
USER_CHARGES

@<TRIPOS>ATOM
      1 PG          0.4320    7.3252    5.5841 P.3       1 ATP         1.8096
      2 O1G         1.4153    6.5167    6.3780 O.2       1 ATP        -0.7943
      3 O2G        -0.8587    7.8448    6.4061 O.3       1 ATP        -0.7926
      4 O3G         1.0270    8.6756    4.9244 O.3       1 ATP        -0.7926
      5 PB         -1.0882    5.1999    4.2145 P.3       1 ATP         1.9396
      6 O1B        -0.4143    3.9644    4.7345 O.2       1 ATP        -0.8346
      7 O2B        -2.4735    5.5801    4.9557 O.3       1 ATP        -0.8243
      8 O3B        -0.2100    6.5520    4.3185 O.3       1 ATP        -0.8110
      9 PA         -0.5527    5.0214    1.3254 P.3       1 ATP         1.8043
     10 O1A         0.4921    6.0864    1.1590 O.2       1 ATP        -0.8218
     11 O2A        -1.6294    4.9483    0.1202 O.3       1 ATP        -0.8115
     12 O3A        -1.4699    5.1795    2.6459 O.3       1 ATP        -0.8294
     13 O5'         0.0173    3.5130    1.4593 O.3       1 ATP        -0.5751
     14 C5'        -0.8811    2.4285    1.6206 C.3       1 ATP         0.1702
     15 C4'        -0.1994    1.3333    2.4288 C.3       1 ATP         0.1167
     16 O4'        -1.1285    0.2356    2.5840 O.3       1 ATP        -0.4221
     17 C3'         1.0324    0.7610    1.7344 C.3       1 ATP         0.1072
     18 O3'         1.9175    0.2377    2.7247 O.3       1 ATP        -0.5896
     19 C2'         0.4468   -0.3802    0.9263 C.3       1 ATP         0.0668
     20 O2'         1.3993   -1.3703    0.5961 O.3       1 ATP        -0.5764
     21 C1'        -0.6159   -0.9100    1.8769 C.3       1 ATP         0.4327
     22 N9         -1.7127   -1.6108    1.2130 N.pl3     1 ATP        -0.7057
     23 C8         -1.7712   -2.9546    0.9544 C.ar      1 ATP         0.5352
     24 N7         -2.8883   -3.2948    0.3462 N.2       1 ATP        -0.5411
     25 C5         -3.5834   -2.1202    0.2043 C.ar      1 ATP        -0.2315
     26 C6         -4.8225   -1.8251   -0.3554 C.ar      1 ATP         0.7606
     27 N6         -5.6154   -2.8394   -0.9189 N.pl3     1 ATP        -0.9553
     28 N1         -5.2589   -0.5425   -0.3507 N.ar      1 ATP        -0.7923
     29 C2         -4.4510    0.3913    0.2069 C.ar      1 ATP         0.6867
     30 N3         -3.2368    0.2296    0.7767 N.ar      1 ATP        -0.7305
     31 C4         -2.8684   -1.0596    0.7376 C.ar      1 ATP         0.5923
     32 HOG2       -0.7240    8.4285    7.1828 H         1 ATP         0.5059
     33 HOG3        1.7691    8.6055    4.2868 H         1 ATP         0.5059
     34 HOB2       -3.2140    4.9371    4.9368 H         1 ATP         0.5086
     35 HOA2       -2.1819    5.7360   -0.0704 H         1 ATP         0.5057
     36 H5'1       -1.7774    2.7844    2.1388 H         1 ATP         0.0623
     37 H5'2       -1.1657    2.0536    0.6322 H         1 ATP         0.0623
     38 H4'         0.0402    1.7079    3.4343 H         1 ATP         0.1115
     39 H3'         1.5907    1.4859    1.1353 H         1 ATP         0.0700
     40 HO3'        2.1521    0.9800    3.3017 H         1 ATP         0.4307
     41 H2'        -0.0017    0.0018    0.0005 H         1 ATP         0.0742
     42 HO2'        2.0953   -0.9375    0.0709 H         1 ATP         0.4245
     43 H1'        -0.1998   -1.6319    2.6178 H         1 ATP         0.1193
     44 H8         -0.9745   -3.6312    1.2318 H         1 ATP         0.0779
     45 HN61       -5.2619   -3.7766   -0.9586 H         1 ATP         0.4486
     46 HN62       -6.4834   -2.5990   -1.3590 H         1 ATP         0.4486
     47 H2         -4.8317    1.4071    0.1930 H         1 ATP         0.0538
@<TRIPOS>BOND
     1    1    2 2
     2    1    3 1
     3    1    4 1
     4    1    8 1
     5    3   32 1
     6    4   33 1
     7    5    6 2
     8    5    7 1
     9    5    8 1
    10    5   12 1
    11    7   34 1
    12    9   10 2
    13    9   11 1
    14    9   12 1
    15    9   13 1
    16   11   35 1
    17   13   14 1
    18   14   15 1
    19   14   36 1
    20   14   37 1
    21   15   16 1
    22   15   17 1
    23   15   38 1
    24   16   21 1
    25   17   18 1
    26   17   19 1
    27   17   39 1
    28   18   40 1
    29   19   20 1
    30   19   21 1
    31   19   41 1
    32   20   42 1
    33   21   22 1
    34   21   43 1
    35   22   23 ar
    36   22   31 ar
    37   23   24 ar
    38   23   44 1
    39   24   25 ar
    40   25   26 ar
    41   25   31 ar
    42   26   27 1
    43   26   28 ar
    44   27   45 1
    45   27   46 1
    46   28   29 ar
    47   29   30 ar
    48   29   47 1
    49   30   31 ar
@<TRIPOS>SUBSTRUCTURE
     1 ATP         1 GROUP 0 A     ****
@<TRIPOS>MOLECULE
[[5-(6-aminopurin-9-yl)-3,4-dihydroxy-tetrahydrofuran-2-yl]methoxy-hydroxy-phosphoryl] phosphono hydrogen phosphate
   47    49     1     0     0
SMALL
USER_CHARGES

@<TRIPOS>ATOM
      1 PG         -0.4026   -2.9139   -3.5012 P.3       1 ATP         1.8096
      2 O1G        -0.2185   -1.9997   -2.3258 O.2       1 ATP        -0.7943
      3 O2G         0.9259   -3.1847   -4.3806 O.3       1 ATP        -0.7926
      4 O3G        -0.9246   -4.4004   -3.1400 O.3       1 ATP        -0.7926
      5 PB         -1.5472   -1.0649   -5.4949 P.3       1 ATP         1.9396
      6 O1B        -0.3881   -0.8722   -6.4277 O.2       1 ATP        -0.8346
      7 O2B        -2.9908   -1.1567   -6.2165 O.3       1 ATP        -0.8243
      8 O3B        -1.4811   -2.4021   -4.5904 O.3       1 ATP        -0.8110
      9 PA         -1.9943    1.6687   -4.4986 P.3       1 ATP         1.8043
     10 O1A        -3.2495    2.0420   -5.2325 O.2       1 ATP        -0.8218
     11 O2A        -0.6342    2.2216   -5.1779 O.3       1 ATP        -0.8115
     12 O3A        -1.7370    0.0789   -4.3714 O.3       1 ATP        -0.8294
     13 O5'        -1.9200    2.1712   -2.9623 O.3       1 ATP        -0.5751
     14 C5'        -0.7794    1.8744   -2.1748 C.3       1 ATP         0.1702
     15 C4'        -0.9699    2.4597   -0.7819 C.3       1 ATP         0.1167
     16 O4'        -2.1475    1.8640   -0.2014 O.3       1 ATP        -0.4221
     17 C3'         0.1697    2.1347    0.1695 C.3       1 ATP         0.1072
     18 O3'         0.1809    3.0982    1.2223 O.3       1 ATP        -0.5896
     19 C2'        -0.2543    0.7880    0.7187 C.3       1 ATP         0.0668
     20 O2'         0.3606    0.4944    1.9582 O.3       1 ATP        -0.5764
     21 C1'        -1.7682    0.9516    0.8548 C.3       1 ATP         0.4327
     22 N9         -2.5926   -0.2553    0.7436 N.pl3     1 ATP        -0.7057
     23 C8         -2.1324   -1.5302    0.5457 C.ar      1 ATP         0.5352
     24 N7         -3.1118   -2.4085    0.4915 N.2       1 ATP        -0.5411
     25 C5         -4.2561   -1.6704    0.6612 C.ar      1 ATP        -0.2315
     26 C6         -5.6018   -2.0215    0.6998 C.ar      1 ATP         0.7606
     27 N6         -5.9988   -3.3610    0.5479 N.pl3     1 ATP        -0.9553
     28 N1         -6.5303   -1.0528    0.8871 N.ar      1 ATP        -0.7923
     29 C2         -6.0872    0.2199    1.0276 C.ar      1 ATP         0.6867
     30 N3         -4.8179    0.6820    1.0081 N.ar      1 ATP        -0.7305
     31 C4         -3.9544   -0.3272    0.8198 C.ar      1 ATP         0.5923
     32 HOG2        1.3769   -2.4248   -4.8065 H         1 ATP         0.5059
     33 HOG3       -0.3816   -4.9637   -2.5485 H         1 ATP         0.5059
     34 HOB2       -3.1507   -1.8714   -6.8690 H         1 ATP         0.5086
     35 HOA2       -0.5173    3.1895   -5.2852 H         1 ATP         0.5057
     36 H5'1       -0.6595    0.7876   -2.1196 H         1 ATP         0.0623
     37 H5'2        0.1048    2.3070   -2.6539 H         1 ATP         0.0623
     38 H4'        -1.1469    3.5409   -0.8523 H         1 ATP         0.1115
     39 H3'         1.1601    2.1310   -0.2934 H         1 ATP         0.0700
     40 HO3'        0.9173    2.8584    1.8048 H         1 ATP         0.4307
     41 H2'        -0.0024   -0.0091    0.0062 H         1 ATP         0.0742
     42 HO2'        1.3225    0.4909    1.8095 H         1 ATP         0.4245
     43 H1'        -2.0584    1.4255    1.8301 H         1 ATP         0.1193
     44 H8         -1.0791   -1.7555    0.4498 H         1 ATP         0.0779
     45 HN61       -5.3067   -4.0623    0.3633 H         1 ATP         0.4486
     46 HN62       -6.9754   -3.5867    0.5317 H         1 ATP         0.4486
     47 H2         -6.8575    0.9694    1.1755 H         1 ATP         0.0538
@<TRIPOS>BOND
     1    1    2 2
     2    1    3 1
     3    1    4 1
     4    1    8 1
     5    3   32 1
     6    4   33 1
     7    5    6 2
     8    5    7 1
     9    5    8 1
    10    5   12 1
    11    7   34 1
    12    9   10 2
    13    9   11 1
    14    9   12 1
    15    9   13 1
    16   11   35 1
    17   13   14 1
    18   14   15 1
    19   14   36 1
    20   14   37 1
    21   15   16 1
    22   15   17 1
    23   15   38 1
    24   16   21 1
    25   17   18 1
    26   17   19 1
    27   17   39 1
    28   18   40 1
    29   19   20 1
    30   19   21 1
    31   19   41 1
    32   20   42 1
    33   21   22 1
    34   21   43 1
    35   22   23 ar
    36   22   31 ar
    37   23   24 ar
    38   23   44 1
    39   24   25 ar
    40   25   26 ar
    41   25   31 ar
    42   26   27 1
    43   26   28 ar
    44   27   45 1
    45   27   46 1
    46   28   29 ar
    47   29   30 ar
    48   29   47 1
    49   30   31 ar
@<TRIPOS>SUBSTRUCTURE
     1 ATP         1 GROUP 0 A     ****
@<TRIPOS>MOLECULE
[[5-(6-aminopurin-9-yl)-3,4-dihydroxy-tetrahydrofuran-2-yl]methoxy-hydroxy-phosphoryl] phosphono hydrogen phosphate
   47    49     1     0     0
SMALL
USER_CHARGES

@<TRIPOS>ATOM
      1 PG         -6.1551    6.1997    2.2593 P.3       1 ATP         1.8096
      2 O1G        -6.1927    7.6155    2.7546 O.2       1 ATP        -0.7943
      3 O2G        -6.8540    5.1104    3.2270 O.3       1 ATP        -0.7926
      4 O3G        -6.8733    5.9520    0.8326 O.3       1 ATP        -0.7926
      5 PB         -3.4576    6.0770    1.0710 P.3       1 ATP         1.9396
      6 O1B        -3.7737    6.0825   -0.3957 O.2       1 ATP        -0.8346
      7 O2B        -3.0209    7.5110    1.6762 O.3       1 ATP        -0.8243
      8 O3B        -4.6699    5.6056    2.0292 O.3       1 ATP        -0.8110
      9 PA         -0.7172    5.0023    1.1041 P.3       1 ATP         1.8043
     10 O1A         0.0745    6.2394    1.4142 O.2       1 ATP        -0.8218
     11 O2A        -0.7666    4.6175   -0.4665 O.3       1 ATP        -0.8115
     12 O3A        -2.2748    5.0770    1.5265 O.3       1 ATP        -0.8294
     13 O5'        -0.2067    3.6555    1.8414 O.3       1 ATP        -0.5751
     14 C5'        -0.8811    2.4285    1.6206 C.3       1 ATP         0.1702
     15 C4'        -0.1994    1.3333    2.4288 C.3       1 ATP         0.1167
     16 O4'        -1.1285    0.2356    2.5840 O.3       1 ATP        -0.4221
     17 C3'         1.0324    0.7610    1.7344 C.3       1 ATP         0.1072
     18 O3'         1.9175    0.2377    2.7247 O.3       1 ATP        -0.5896
     19 C2'         0.4468   -0.3802    0.9263 C.3       1 ATP         0.0668
     20 O2'         1.3993   -1.3703    0.5961 O.3       1 ATP        -0.5764
     21 C1'        -0.6159   -0.9100    1.8769 C.3       1 ATP         0.4327
     22 N9         -1.7127   -1.6108    1.2130 N.pl3     1 ATP        -0.7057
     23 C8         -2.0877   -2.9101    1.4304 C.ar      1 ATP         0.5352
     24 N7         -3.1152   -3.2613    0.6857 N.2       1 ATP        -0.5411
     25 C5         -3.4186   -2.1409   -0.0462 C.ar      1 ATP        -0.2315
     26 C6         -4.3953   -1.8809   -1.0023 C.ar      1 ATP         0.7606
     27 N6         -5.3118   -2.8767   -1.3812 N.pl3     1 ATP        -0.9553
     28 N1         -4.4538   -0.6507   -1.5667 N.ar      1 ATP        -0.7923
     29 C2         -3.5442    0.2679   -1.1609 C.ar      1 ATP         0.6867
     30 N3         -2.5561    0.1361   -0.2491 N.ar      1 ATP        -0.7305
     31 C4         -2.5568   -1.1019    0.2674 C.ar      1 ATP         0.5923
     32 HOG2       -7.8066    5.2062    3.4403 H         1 ATP         0.5059
     33 HOG3       -6.5433    6.4343    0.0448 H         1 ATP         0.5059
     34 HOB2       -2.2274    7.9581    1.3121 H         1 ATP         0.5086
     35 HOA2       -1.1514    5.2596   -1.1001 H         1 ATP         0.5057
     36 H5'1       -1.9258    2.5374    1.9293 H         1 ATP         0.0623
     37 H5'2       -0.8476    2.1925    0.5521 H         1 ATP         0.0623
     38 H4'         0.0402    1.7079    3.4343 H         1 ATP         0.1115
     39 H3'         1.5907    1.4859    1.1353 H         1 ATP         0.0700
     40 HO3'        2.6839   -0.1150    2.2479 H         1 ATP         0.4307
     41 H2'        -0.0017    0.0018    0.0005 H         1 ATP         0.0742
     42 HO2'        0.9369   -2.0558    0.0825 H         1 ATP         0.4245
     43 H1'        -0.1998   -1.6319    2.6178 H         1 ATP         0.1193
     44 H8         -1.5778   -3.5473    2.1399 H         1 ATP         0.0779
     45 HN61       -5.2294   -3.7965   -0.9914 H         1 ATP         0.4486
     46 HN62       -5.9774   -2.6837   -2.1055 H         1 ATP         0.4486
     47 H2         -3.6201    1.2414   -1.6336 H         1 ATP         0.0538
@<TRIPOS>BOND
     1    1    2 2
     2    1    3 1
     3    1    4 1
     4    1    8 1
     5    3   32 1
     6    4   33 1
     7    5    6 2
     8    5    7 1
     9    5    8 1
    10    5   12 1
    11    7   34 1
    12    9   10 2
    13    9   11 1
    14    9   12 1
    15    9   13 1
    16   11   35 1
    17   13   14 1
    18   14   15 1
    19   14   36 1
    20   14   37 1
    21   15   16 1
    22   15   17 1
    23   15   38 1
    24   16   21 1
    25   17   18 1
    26   17   19 1
    27   17   39 1
    28   18   40 1
    29   19   20 1
    30   19   21 1
    31   19   41 1
    32   20   42 1
    33   21   22 1
    34   21   43 1
    35   22   23 ar
    36   22   31 ar
    37   23   24 ar
    38   23   44 1
    39   24   25 ar
    40   25   26 ar
    41   25   31 ar
    42   26   27 1
    43   26   28 ar
    44   27   45 1
    45   27   46 1
    46   28   29 ar
    47   29   30 ar
    48   29   47 1
    49   30   31 ar
@<TRIPOS>SUBSTRUCTURE
     1 ATP         1 GROUP 0 A     ****
@<TRIPOS>MOLECULE
[[5-(6-aminopurin-9-yl)-3,4-dihydroxy-tetrahydrofuran-2-yl]methoxy-hydroxy-phosphoryl] phosphono hydrogen phosphate
   47    49     1     0     0
SMALL
USER_CHARGES

@<TRIPOS>ATOM
      1 PG         -3.7527    4.5779    5.0794 P.3       1 ATP         1.8096
      2 O1G        -3.1806    3.2484    4.6844 O.2       1 ATP        -0.7943
      3 O2G        -5.2342    4.8884    4.5134 O.3       1 ATP        -0.7926
      4 O3G        -3.8999    4.8166    6.6713 O.3       1 ATP        -0.7926
      5 PB         -2.4513    6.3674    3.1279 P.3       1 ATP         1.9396
      6 O1B        -3.5897    6.6839    2.2034 O.2       1 ATP        -0.8346
      7 O2B        -1.4576    7.6062    3.4295 O.3       1 ATP        -0.8243
      8 O3B        -2.8868    5.8543    4.5967 O.3       1 ATP        -0.8110
      9 PA         -0.5527    5.0214    1.3254 P.3       1 ATP         1.8043
     10 O1A         0.4921    6.0864    1.1590 O.2       1 ATP        -0.8218
     11 O2A        -1.6294    4.9483    0.1202 O.3       1 ATP        -0.8115
     12 O3A        -1.4699    5.1795    2.6459 O.3       1 ATP        -0.8294
     13 O5'         0.0173    3.5130    1.4593 O.3       1 ATP        -0.5751
     14 C5'        -0.8811    2.4285    1.6206 C.3       1 ATP         0.1702
     15 C4'        -0.1994    1.3333    2.4288 C.3       1 ATP         0.1167
     16 O4'        -1.1285    0.2356    2.5840 O.3       1 ATP        -0.4221
     17 C3'         1.0324    0.7610    1.7344 C.3       1 ATP         0.1072
     18 O3'         1.9175    0.2377    2.7247 O.3       1 ATP        -0.5896
     19 C2'         0.4468   -0.3802    0.9263 C.3       1 ATP         0.0668
     20 O2'         1.3993   -1.3703    0.5961 O.3       1 ATP        -0.5764
     21 C1'        -0.6159   -0.9100    1.8769 C.3       1 ATP         0.4327
     22 N9         -1.7127   -1.6108    1.2130 N.pl3     1 ATP        -0.7057
     23 C8         -2.0877   -2.9101    1.4304 C.ar      1 ATP         0.5352
     24 N7         -3.1152   -3.2613    0.6857 N.2       1 ATP        -0.5411
     25 C5         -3.4186   -2.1409   -0.0462 C.ar      1 ATP        -0.2315
     26 C6         -4.3953   -1.8809   -1.0023 C.ar      1 ATP         0.7606
     27 N6         -5.3118   -2.8767   -1.3812 N.pl3     1 ATP        -0.9553
     28 N1         -4.4538   -0.6507   -1.5667 N.ar      1 ATP        -0.7923
     29 C2         -3.5442    0.2679   -1.1609 C.ar      1 ATP         0.6867
     30 N3         -2.5561    0.1361   -0.2491 N.ar      1 ATP        -0.7305
     31 C4         -2.5568   -1.1019    0.2674 C.ar      1 ATP         0.5923
     32 HOG2       -5.9715    4.2898    4.7586 H         1 ATP         0.5059
     33 HOG3       -3.0961    4.7851    7.2325 H         1 ATP         0.5059
     34 HOB2       -1.8217    8.4162    3.8461 H         1 ATP         0.5086
     35 HOA2       -1.3109    4.7690   -0.7899 H         1 ATP         0.5057
     36 H5'1       -1.7774    2.7844    2.1388 H         1 ATP         0.0623
     37 H5'2       -1.1657    2.0536    0.6322 H         1 ATP         0.0623
     38 H4'         0.0402    1.7079    3.4343 H         1 ATP         0.1115
     39 H3'         1.5907    1.4859    1.1353 H         1 ATP         0.0700
     40 HO3'        2.6839   -0.1150    2.2479 H         1 ATP         0.4307
     41 H2'        -0.0017    0.0018    0.0005 H         1 ATP         0.0742
     42 HO2'        0.9369   -2.0558    0.0825 H         1 ATP         0.4245
     43 H1'        -0.1998   -1.6319    2.6178 H         1 ATP         0.1193
     44 H8         -1.5778   -3.5473    2.1399 H         1 ATP         0.0779
     45 HN61       -6.0371   -2.6553   -2.0368 H         1 ATP         0.4486
     46 HN62       -5.2887   -3.7677   -0.9225 H         1 ATP         0.4486
     47 H2         -3.6201    1.2414   -1.6336 H         1 ATP         0.0538
@<TRIPOS>BOND
     1    1    2 2
     2    1    3 1
     3    1    4 1
     4    1    8 1
     5    3   32 1
     6    4   33 1
     7    5    6 2
     8    5    7 1
     9    5    8 1
    10    5   12 1
    11    7   34 1
    12    9   10 2
    13    9   11 1
    14    9   12 1
    15    9   13 1
    16   11   35 1
    17   13   14 1
    18   14   15 1
    19   14   36 1
    20   14   37 1
    21   15   16 1
    22   15   17 1
    23   15   38 1
    24   16   21 1
    25   17   18 1
    26   17   19 1
    27   17   39 1
    28   18   40 1
    29   19   20 1
    30   19   21 1
    31   19   41 1
    32   20   42 1
    33   21   22 1
    34   21   43 1
    35   22   23 ar
    36   22   31 ar
    37   23   24 ar
    38   23   44 1
    39   24   25 ar
    40   25   26 ar
    41   25   31 ar
    42   26   27 1
    43   26   28 ar
    44   27   45 1
    45   27   46 1
    46   28   29 ar
    47   29   30 ar
    48   29   47 1
    49   30   31 ar
@<TRIPOS>SUBSTRUCTURE
     1 ATP         1 GROUP 0 A     ****
@<TRIPOS>MOLECULE
[[5-(6-aminopurin-9-yl)-3,4-dihydroxy-tetrahydrofuran-2-yl]methoxy-hydroxy-phosphoryl] phosphono hydrogen phosphate
   47    49     1     0     0
SMALL
USER_CHARGES

@<TRIPOS>ATOM
      1 PG         -3.9294    6.1485    3.8944 P.3       1 ATP         1.8096
      2 O1G        -5.2895    5.9183    3.3045 O.2       1 ATP        -0.7943
      3 O2G        -3.9158    6.8831    5.3338 O.3       1 ATP        -0.7926
      4 O3G        -3.0544    4.8127    4.1450 O.3       1 ATP        -0.7926
      5 PB         -2.3759    6.8741    1.4936 P.3       1 ATP         1.9396
      6 O1B        -3.4209    6.7869    0.4206 O.2       1 ATP        -0.8346
      7 O2B        -1.3285    8.0936    1.3231 O.3       1 ATP        -0.8243
      8 O3B        -2.9496    7.0636    2.9920 O.3       1 ATP        -0.8110
      9 PA         -0.4423    4.8273    0.6350 P.3       1 ATP         1.8043
     10 O1A         0.6788    5.6851    0.1243 O.2       1 ATP        -0.8218
     11 O2A        -1.4308    4.2656   -0.5159 O.3       1 ATP        -0.8115
     12 O3A        -1.4411    5.5691    1.6656 O.3       1 ATP        -0.8294
     13 O5'         0.0173    3.5130    1.4593 O.3       1 ATP        -0.5751
     14 C5'        -0.8811    2.4285    1.6206 C.3       1 ATP         0.1702
     15 C4'        -0.1994    1.3333    2.4288 C.3       1 ATP         0.1167
     16 O4'        -1.1285    0.2356    2.5840 O.3       1 ATP        -0.4221
     17 C3'         1.0324    0.7610    1.7344 C.3       1 ATP         0.1072
     18 O3'         1.9175    0.2377    2.7247 O.3       1 ATP        -0.5896
     19 C2'         0.4468   -0.3802    0.9263 C.3       1 ATP         0.0668
     20 O2'         1.3993   -1.3703    0.5961 O.3       1 ATP        -0.5764
     21 C1'        -0.6159   -0.9100    1.8769 C.3       1 ATP         0.4327
     22 N9         -1.7127   -1.6108    1.2130 N.pl3     1 ATP        -0.7057
     23 C8         -1.7712   -2.9546    0.9544 C.ar      1 ATP         0.5352
     24 N7         -2.8883   -3.2948    0.3462 N.2       1 ATP        -0.5411
     25 C5         -3.5834   -2.1202    0.2043 C.ar      1 ATP        -0.2315
     26 C6         -4.8225   -1.8251   -0.3554 C.ar      1 ATP         0.7606
     27 N6         -5.6154   -2.8394   -0.9189 N.pl3     1 ATP        -0.9553
     28 N1         -5.2589   -0.5425   -0.3507 N.ar      1 ATP        -0.7923
     29 C2         -4.4510    0.3913    0.2069 C.ar      1 ATP         0.6867
     30 N3         -3.2368    0.2296    0.7767 N.ar      1 ATP        -0.7305
     31 C4         -2.8684   -1.0596    0.7376 C.ar      1 ATP         0.5923
     32 HOG2       -4.3058    7.7795    5.4134 H         1 ATP         0.5059
     33 HOG3       -2.8317    4.2405    3.3801 H         1 ATP         0.5059
     34 HOB2       -1.6686    9.0135    1.3133 H         1 ATP         0.5086
     35 HOA2       -1.0591    3.6994   -1.2253 H         1 ATP         0.5057
     36 H5'1       -1.7774    2.7844    2.1388 H         1 ATP         0.0623
     37 H5'2       -1.1657    2.0536    0.6322 H         1 ATP         0.0623
     38 H4'         0.0402    1.7079    3.4343 H         1 ATP         0.1115
     39 H3'         1.5907    1.4859    1.1353 H         1 ATP         0.0700
     40 HO3'        2.6839   -0.1150    2.2479 H         1 ATP         0.4307
     41 H2'        -0.0017    0.0018    0.0005 H         1 ATP         0.0742
     42 HO2'        2.0953   -0.9375    0.0709 H         1 ATP         0.4245
     43 H1'        -0.1998   -1.6319    2.6178 H         1 ATP         0.1193
     44 H8         -0.9745   -3.6312    1.2318 H         1 ATP         0.0779
     45 HN61       -5.2619   -3.7766   -0.9586 H         1 ATP         0.4486
     46 HN62       -6.4834   -2.5990   -1.3590 H         1 ATP         0.4486
     47 H2         -4.8317    1.4071    0.1930 H         1 ATP         0.0538
@<TRIPOS>BOND
     1    1    2 2
     2    1    3 1
     3    1    4 1
     4    1    8 1
     5    3   32 1
     6    4   33 1
     7    5    6 2
     8    5    7 1
     9    5    8 1
    10    5   12 1
    11    7   34 1
    12    9   10 2
    13    9   11 1
    14    9   12 1
    15    9   13 1
    16   11   35 1
    17   13   14 1
    18   14   15 1
    19   14   36 1
    20   14   37 1
    21   15   16 1
    22   15   17 1
    23   15   38 1
    24   16   21 1
    25   17   18 1
    26   17   19 1
    27   17   39 1
    28   18   40 1
    29   19   20 1
    30   19   21 1
    31   19   41 1
    32   20   42 1
    33   21   22 1
    34   21   43 1
    35   22   23 ar
    36   22   31 ar
    37   23   24 ar
    38   23   44 1
    39   24   25 ar
    40   25   26 ar
    41   25   31 ar
    42   26   27 1
    43   26   28 ar
    44   27   45 1
    45   27   46 1
    46   28   29 ar
    47   29   30 ar
    48   29   47 1
    49   30   31 ar
@<TRIPOS>SUBSTRUCTURE
     1 ATP         1 GROUP 0 A     ****
@<TRIPOS>MOLECULE
[[5-(6-aminopurin-9-yl)-3,4-dihydroxy-tetrahydrofuran-2-yl]methoxy-hydroxy-phosphoryl] phosphono hydrogen phosphate
   47    49     1     0     0
SMALL
USER_CHARGES

@<TRIPOS>ATOM
      1 PG         -4.6630    6.1978   -1.6190 P.3       1 ATP         1.8096
      2 O1G        -4.6721    7.6770   -1.8697 O.2       1 ATP        -0.7943
      3 O2G        -6.0667    5.5733   -1.1176 O.3       1 ATP        -0.7926
      4 O3G        -4.2810    5.2867   -2.8984 O.3       1 ATP        -0.7926
      5 PB         -3.4576    6.0770    1.0710 P.3       1 ATP         1.9396
      6 O1B        -3.2272    7.5304    1.3635 O.2       1 ATP        -0.8346
      7 O2B        -4.7878    5.4521    1.7441 O.3       1 ATP        -0.8243
      8 O3B        -3.6082    5.7112   -0.4955 O.3       1 ATP        -0.8110
      9 PA         -0.7172    5.0023    1.1041 P.3       1 ATP         1.8043
     10 O1A         0.0745    6.2394    1.4142 O.2       1 ATP        -0.8218
     11 O2A        -0.7666    4.6175   -0.4665 O.3       1 ATP        -0.8115
     12 O3A        -2.2748    5.0770    1.5265 O.3       1 ATP        -0.8294
     13 O5'        -0.2067    3.6555    1.8414 O.3       1 ATP        -0.5751
     14 C5'        -0.8811    2.4285    1.6206 C.3       1 ATP         0.1702
     15 C4'        -0.1994    1.3333    2.4288 C.3       1 ATP         0.1167
     16 O4'        -1.1285    0.2356    2.5840 O.3       1 ATP        -0.4221
     17 C3'         1.0324    0.7610    1.7344 C.3       1 ATP         0.1072
     18 O3'         1.9175    0.2377    2.7247 O.3       1 ATP        -0.5896
     19 C2'         0.4468   -0.3802    0.9263 C.3       1 ATP         0.0668
     20 O2'         1.3993   -1.3703    0.5961 O.3       1 ATP        -0.5764
     21 C1'        -0.6159   -0.9100    1.8769 C.3       1 ATP         0.4327
     22 N9         -1.7127   -1.6108    1.2130 N.pl3     1 ATP        -0.7057
     23 C8         -2.5476   -1.0844    0.2632 C.ar      1 ATP         0.5352
     24 N7         -3.4391   -1.9591   -0.1536 N.2       1 ATP        -0.5411
     25 C5         -3.1701   -3.1016    0.5574 C.ar      1 ATP        -0.2315
     26 C6         -3.7593   -4.3620    0.5656 C.ar      1 ATP         0.7606
     27 N6         -4.8512   -4.6493   -0.2712 N.pl3     1 ATP        -0.9553
     28 N1         -3.2659   -5.3144    1.3932 N.ar      1 ATP        -0.7923
     29 C2         -2.2122   -4.9785    2.1759 C.ar      1 ATP         0.6867
     30 N3         -1.5595   -3.7985    2.2572 N.ar      1 ATP        -0.7305
     31 C4         -2.0986   -2.9054    1.4140 C.ar      1 ATP         0.5923
     32 HOG2       -6.4601    5.9001   -0.2807 H         1 ATP         0.5059
     33 HOG3       -3.4060    5.4093   -3.3243 H         1 ATP         0.5059
     34 HOB2       -4.8769    5.4661    2.7208 H         1 ATP         0.5086
     35 HOA2       -1.1514    5.2596   -1.1001 H         1 ATP         0.5057
     36 H5'1       -1.9258    2.5374    1.9293 H         1 ATP         0.0623
     37 H5'2       -0.8476    2.1925    0.5521 H         1 ATP         0.0623
     38 H4'         0.0402    1.7079    3.4343 H         1 ATP         0.1115
     39 H3'         1.5907    1.4859    1.1353 H         1 ATP         0.0700
     40 HO3'        2.6839   -0.1150    2.2479 H         1 ATP         0.4307
     41 H2'        -0.0017    0.0018    0.0005 H         1 ATP         0.0742
     42 HO2'        2.0953   -0.9375    0.0709 H         1 ATP         0.4245
     43 H1'        -0.1998   -1.6319    2.6178 H         1 ATP         0.1193
     44 H8         -2.4576   -0.0639   -0.0831 H         1 ATP         0.0779
     45 HN61       -5.2371   -3.9234   -0.8448 H         1 ATP         0.4486
     46 HN62       -5.2909   -5.5485   -0.2160 H         1 ATP         0.4486
     47 H2         -1.8433   -5.7650    2.8259 H         1 ATP         0.0538
@<TRIPOS>BOND
     1    1    2 2
     2    1    3 1
     3    1    4 1
     4    1    8 1
     5    3   32 1
     6    4   33 1
     7    5    6 2
     8    5    7 1
     9    5    8 1
    10    5   12 1
    11    7   34 1
    12    9   10 2
    13    9   11 1
    14    9   12 1
    15    9   13 1
    16   11   35 1
    17   13   14 1
    18   14   15 1
    19   14   36 1
    20   14   37 1
    21   15   16 1
    22   15   17 1
    23   15   38 1
    24   16   21 1
    25   17   18 1
    26   17   19 1
    27   17   39 1
    28   18   40 1
    29   19   20 1
    30   19   21 1
    31   19   41 1
    32   20   42 1
    33   21   22 1
    34   21   43 1
    35   22   23 ar
    36   22   31 ar
    37   23   24 ar
    38   23   44 1
    39   24   25 ar
    40   25   26 ar
    41   25   31 ar
    42   26   27 1
    43   26   28 ar
    44   27   45 1
    45   27   46 1
    46   28   29 ar
    47   29   30 ar
    48   29   47 1
    49   30   31 ar
@<TRIPOS>SUBSTRUCTURE
     1 ATP         1 GROUP 0 A     ****
@<TRIPOS>MOLECULE
[[5-(6-aminopurin-9-yl)-3,4-dihydroxy-tetrahydrofuran-2-yl]methoxy-hydroxy-phosphoryl] phosphono hydrogen phosphate
   47    49     1     0     0
SMALL
USER_CHARGES

@<TRIPOS>ATOM
      1 PG         -6.1551    6.1997    2.2593 P.3       1 ATP         1.8096
      2 O1G        -6.1927    7.6155    2.7546 O.2       1 ATP        -0.7943
      3 O2G        -6.8540    5.1104    3.2270 O.3       1 ATP        -0.7926
      4 O3G        -6.8733    5.9520    0.8326 O.3       1 ATP        -0.7926
      5 PB         -3.4576    6.0770    1.0710 P.3       1 ATP         1.9396
      6 O1B        -3.7737    6.0825   -0.3957 O.2       1 ATP        -0.8346
      7 O2B        -3.0209    7.5110    1.6762 O.3       1 ATP        -0.8243
      8 O3B        -4.6699    5.6056    2.0292 O.3       1 ATP        -0.8110
      9 PA         -0.7172    5.0023    1.1041 P.3       1 ATP         1.8043
     10 O1A         0.0745    6.2394    1.4142 O.2       1 ATP        -0.8218
     11 O2A        -0.7666    4.6175   -0.4665 O.3       1 ATP        -0.8115
     12 O3A        -2.2748    5.0770    1.5265 O.3       1 ATP        -0.8294
     13 O5'        -0.2067    3.6555    1.8414 O.3       1 ATP        -0.5751
     14 C5'        -0.8811    2.4285    1.6206 C.3       1 ATP         0.1702
     15 C4'        -0.1994    1.3333    2.4288 C.3       1 ATP         0.1167
     16 O4'        -1.1285    0.2356    2.5840 O.3       1 ATP        -0.4221
     17 C3'         1.0324    0.7610    1.7344 C.3       1 ATP         0.1072
     18 O3'         1.9175    0.2377    2.7247 O.3       1 ATP        -0.5896
     19 C2'         0.4468   -0.3802    0.9263 C.3       1 ATP         0.0668
     20 O2'         1.3993   -1.3703    0.5961 O.3       1 ATP        -0.5764
     21 C1'        -0.6159   -0.9100    1.8769 C.3       1 ATP         0.4327
     22 N9         -1.7127   -1.6108    1.2130 N.pl3     1 ATP        -0.7057
     23 C8         -2.5476   -1.0844    0.2632 C.ar      1 ATP         0.5352
     24 N7         -3.4391   -1.9591   -0.1536 N.2       1 ATP        -0.5411
     25 C5         -3.1701   -3.1016    0.5574 C.ar      1 ATP        -0.2315
     26 C6         -3.7593   -4.3620    0.5656 C.ar      1 ATP         0.7606
     27 N6         -4.8512   -4.6493   -0.2712 N.pl3     1 ATP        -0.9553
     28 N1         -3.2659   -5.3144    1.3932 N.ar      1 ATP        -0.7923
     29 C2         -2.2122   -4.9785    2.1759 C.ar      1 ATP         0.6867
     30 N3         -1.5595   -3.7985    2.2572 N.ar      1 ATP        -0.7305
     31 C4         -2.0986   -2.9054    1.4140 C.ar      1 ATP         0.5923
     32 HOG2       -7.8066    5.2062    3.4403 H         1 ATP         0.5059
     33 HOG3       -6.5433    6.4343    0.0448 H         1 ATP         0.5059
     34 HOB2       -2.2274    7.9581    1.3121 H         1 ATP         0.5086
     35 HOA2       -1.1514    5.2596   -1.1001 H         1 ATP         0.5057
     36 H5'1       -1.9258    2.5374    1.9293 H         1 ATP         0.0623
     37 H5'2       -0.8476    2.1925    0.5521 H         1 ATP         0.0623
     38 H4'         0.0402    1.7079    3.4343 H         1 ATP         0.1115
     39 H3'         1.5907    1.4859    1.1353 H         1 ATP         0.0700
     40 HO3'        2.6839   -0.1150    2.2479 H         1 ATP         0.4307
     41 H2'        -0.0017    0.0018    0.0005 H         1 ATP         0.0742
     42 HO2'        0.9369   -2.0558    0.0825 H         1 ATP         0.4245
     43 H1'        -0.1998   -1.6319    2.6178 H         1 ATP         0.1193
     44 H8         -2.4576   -0.0639   -0.0831 H         1 ATP         0.0779
     45 HN61       -5.2371   -3.9234   -0.8448 H         1 ATP         0.4486
     46 HN62       -5.2909   -5.5485   -0.2160 H         1 ATP         0.4486
     47 H2         -1.8433   -5.7650    2.8259 H         1 ATP         0.0538
@<TRIPOS>BOND
     1    1    2 2
     2    1    3 1
     3    1    4 1
     4    1    8 1
     5    3   32 1
     6    4   33 1
     7    5    6 2
     8    5    7 1
     9    5    8 1
    10    5   12 1
    11    7   34 1
    12    9   10 2
    13    9   11 1
    14    9   12 1
    15    9   13 1
    16   11   35 1
    17   13   14 1
    18   14   15 1
    19   14   36 1
    20   14   37 1
    21   15   16 1
    22   15   17 1
    23   15   38 1
    24   16   21 1
    25   17   18 1
    26   17   19 1
    27   17   39 1
    28   18   40 1
    29   19   20 1
    30   19   21 1
    31   19   41 1
    32   20   42 1
    33   21   22 1
    34   21   43 1
    35   22   23 ar
    36   22   31 ar
    37   23   24 ar
    38   23   44 1
    39   24   25 ar
    40   25   26 ar
    41   25   31 ar
    42   26   27 1
    43   26   28 ar
    44   27   45 1
    45   27   46 1
    46   28   29 ar
    47   29   30 ar
    48   29   47 1
    49   30   31 ar
@<TRIPOS>SUBSTRUCTURE
     1 ATP         1 GROUP 0 A     ****
@<TRIPOS>MOLECULE
[[5-(6-aminopurin-9-yl)-3,4-dihydroxy-tetrahydrofuran-2-yl]methoxy-hydroxy-phosphoryl] phosphono hydrogen phosphate
   47    49     1     0     0
SMALL
USER_CHARGES

@<TRIPOS>ATOM
      1 PG         -4.5000    5.5193   -2.5390 P.3       1 ATP         1.8096
      2 O1G        -5.3676    6.7377   -2.4211 O.2       1 ATP        -0.7943
      3 O2G        -5.1551    4.2797   -3.3427 O.3       1 ATP        -0.7926
      4 O3G        -3.0881    5.7517   -3.2908 O.3       1 ATP        -0.7926
      5 PB         -4.9241    4.2537    0.0920 P.3       1 ATP         1.9396
      6 O1B        -5.8788    5.2140    0.7381 O.2       1 ATP        -0.8346
      7 O2B        -5.6131    2.9373   -0.5449 O.3       1 ATP        -0.8243
      8 O3B        -4.0598    4.8664   -1.1277 O.3       1 ATP        -0.8110
      9 PA         -2.5920    4.4092    1.8815 P.3       1 ATP         1.8043
     10 O1A        -3.0763    5.3978    2.9020 O.2       1 ATP        -0.8218
     11 O2A        -1.6526    5.0459    0.7285 O.3       1 ATP        -0.8115
     12 O3A        -3.7645    3.6699    1.0517 O.3       1 ATP        -0.8294
     13 O5'        -1.7335    3.1724    2.4745 O.3       1 ATP        -0.5751
     14 C5'        -0.8811    2.4285    1.6206 C.3       1 ATP         0.1702
     15 C4'        -0.1994    1.3333    2.4288 C.3       1 ATP         0.1167
     16 O4'        -1.1285    0.2356    2.5840 O.3       1 ATP        -0.4221
     17 C3'         1.0324    0.7610    1.7344 C.3       1 ATP         0.1072
     18 O3'         1.9175    0.2377    2.7247 O.3       1 ATP        -0.5896
     19 C2'         0.4468   -0.3802    0.9263 C.3       1 ATP         0.0668
     20 O2'         1.3993   -1.3703    0.5961 O.3       1 ATP        -0.5764
     21 C1'        -0.6159   -0.9100    1.8769 C.3       1 ATP         0.4327
     22 N9         -1.7127   -1.6108    1.2130 N.pl3     1 ATP        -0.7057
     23 C8         -2.0877   -2.9101    1.4304 C.ar      1 ATP         0.5352
     24 N7         -3.1152   -3.2613    0.6857 N.2       1 ATP        -0.5411
     25 C5         -3.4186   -2.1409   -0.0462 C.ar      1 ATP        -0.2315
     26 C6         -4.3953   -1.8809   -1.0023 C.ar      1 ATP         0.7606
     27 N6         -5.3118   -2.8767   -1.3812 N.pl3     1 ATP        -0.9553
     28 N1         -4.4538   -0.6507   -1.5667 N.ar      1 ATP        -0.7923
     29 C2         -3.5442    0.2679   -1.1609 C.ar      1 ATP         0.6867
     30 N3         -2.5561    0.1361   -0.2491 N.ar      1 ATP        -0.7305
     31 C4         -2.5568   -1.1019    0.2674 C.ar      1 ATP         0.5923
     32 HOG2       -5.9868    3.8825   -3.0075 H         1 ATP         0.5059
     33 HOG3       -3.0909    6.0694   -4.2188 H         1 ATP         0.5059
     34 HOB2       -6.1202    2.3362    0.0414 H         1 ATP         0.5086
     35 HOA2       -0.8149    5.4849    0.9882 H         1 ATP         0.5057
     36 H5'1       -1.4796    1.9923    0.8143 H         1 ATP         0.0623
     37 H5'2       -0.1364    3.1037    1.1869 H         1 ATP         0.0623
     38 H4'         0.0402    1.7079    3.4343 H         1 ATP         0.1115
     39 H3'         1.5907    1.4859    1.1353 H         1 ATP         0.0700
     40 HO3'        2.6839   -0.1150    2.2479 H         1 ATP         0.4307
     41 H2'        -0.0017    0.0018    0.0005 H         1 ATP         0.0742
     42 HO2'        2.0953   -0.9375    0.0709 H         1 ATP         0.4245
     43 H1'        -0.1998   -1.6319    2.6178 H         1 ATP         0.1193
     44 H8         -1.5778   -3.5473    2.1399 H         1 ATP         0.0779
     45 HN61       -5.2294   -3.7965   -0.9914 H         1 ATP         0.4486
     46 HN62       -5.9774   -2.6837   -2.1055 H         1 ATP         0.4486
     47 H2         -3.6201    1.2414   -1.6336 H         1 ATP         0.0538
@<TRIPOS>BOND
     1    1    2 2
     2    1    3 1
     3    1    4 1
     4    1    8 1
     5    3   32 1
     6    4   33 1
     7    5    6 2
     8    5    7 1
     9    5    8 1
    10    5   12 1
    11    7   34 1
    12    9   10 2
    13    9   11 1
    14    9   12 1
    15    9   13 1
    16   11   35 1
    17   13   14 1
    18   14   15 1
    19   14   36 1
    20   14   37 1
    21   15   16 1
    22   15   17 1
    23   15   38 1
    24   16   21 1
    25   17   18 1
    26   17   19 1
    27   17   39 1
    28   18   40 1
    29   19   20 1
    30   19   21 1
    31   19   41 1
    32   20   42 1
    33   21   22 1
    34   21   43 1
    35   22   23 ar
    36   22   31 ar
    37   23   24 ar
    38   23   44 1
    39   24   25 ar
    40   25   26 ar
    41   25   31 ar
    42   26   27 1
    43   26   28 ar
    44   27   45 1
    45   27   46 1
    46   28   29 ar
    47   29   30 ar
    48   29   47 1
    49   30   31 ar
@<TRIPOS>SUBSTRUCTURE
     1 ATP         1 GROUP 0 A     ****
@<TRIPOS>MOLECULE
[[5-(6-aminopurin-9-yl)-3,4-dihydroxy-tetrahydrofuran-2-yl]methoxy-hydroxy-phosphoryl] phosphono hydrogen phosphate
   47    49     1     0     0
SMALL
USER_CHARGES

@<TRIPOS>ATOM
      1 PG         -1.4216   -3.9681   -4.9852 P.3       1 ATP         1.8096
      2 O1G        -2.5935   -4.4566   -5.7845 O.2       1 ATP        -0.7943
      3 O2G        -1.1958   -4.7088   -3.5667 O.3       1 ATP        -0.7926
      4 O3G         0.0137   -4.1070   -5.7154 O.3       1 ATP        -0.7926
      5 PB         -1.5472   -1.0649   -5.4949 P.3       1 ATP         1.9396
      6 O1B        -0.3881   -0.8722   -6.4277 O.2       1 ATP        -0.8346
      7 O2B        -2.9908   -1.1567   -6.2165 O.3       1 ATP        -0.8243
      8 O3B        -1.4811   -2.4021   -4.5904 O.3       1 ATP        -0.8110
      9 PA         -1.9943    1.6687   -4.4986 P.3       1 ATP         1.8043
     10 O1A        -3.2495    2.0420   -5.2325 O.2       1 ATP        -0.8218
     11 O2A        -0.6342    2.2216   -5.1779 O.3       1 ATP        -0.8115
     12 O3A        -1.7370    0.0789   -4.3714 O.3       1 ATP        -0.8294
     13 O5'        -1.9200    2.1712   -2.9623 O.3       1 ATP        -0.5751
     14 C5'        -0.7794    1.8744   -2.1748 C.3       1 ATP         0.1702
     15 C4'        -0.9699    2.4597   -0.7819 C.3       1 ATP         0.1167
     16 O4'        -2.1475    1.8640   -0.2014 O.3       1 ATP        -0.4221
     17 C3'         0.1697    2.1347    0.1695 C.3       1 ATP         0.1072
     18 O3'         0.1809    3.0982    1.2223 O.3       1 ATP        -0.5896
     19 C2'        -0.2543    0.7880    0.7187 C.3       1 ATP         0.0668
     20 O2'         0.3606    0.4944    1.9582 O.3       1 ATP        -0.5764
     21 C1'        -1.7682    0.9516    0.8548 C.3       1 ATP         0.4327
     22 N9         -2.5926   -0.2553    0.7436 N.pl3     1 ATP        -0.7057
     23 C8         -2.2217   -1.5214    1.1120 C.ar      1 ATP         0.5352
     24 N7         -3.1772   -2.4011    0.8958 N.2       1 ATP        -0.5411
     25 C5         -4.2118   -1.6733    0.3639 C.ar      1 ATP        -0.2315
     26 C6         -5.4850   -2.0305   -0.0685 C.ar      1 ATP         0.7606
     27 N6         -5.9178   -3.3658   -0.0004 N.pl3     1 ATP        -0.9553
     28 N1         -6.3076   -1.0717   -0.5581 N.ar      1 ATP        -0.7923
     29 C2         -5.8349    0.1974   -0.5985 C.ar      1 ATP         0.6867
     30 N3         -4.6277    0.6645   -0.2117 N.ar      1 ATP        -0.7305
     31 C4         -3.8678   -0.3348    0.2608 C.ar      1 ATP         0.5923
     32 HOG2       -1.9074   -4.6717   -2.8927 H         1 ATP         0.5059
     33 HOG3        0.1608   -3.6413   -6.5660 H         1 ATP         0.5059
     34 HOB2       -3.3025   -0.3969   -6.7529 H         1 ATP         0.5086
     35 HOA2       -0.5173    3.1895   -5.2852 H         1 ATP         0.5057
     36 H5'1       -0.6595    0.7876   -2.1196 H         1 ATP         0.0623
     37 H5'2        0.1048    2.3070   -2.6539 H         1 ATP         0.0623
     38 H4'        -1.1469    3.5409   -0.8523 H         1 ATP         0.1115
     39 H3'         1.1601    2.1310   -0.2934 H         1 ATP         0.0700
     40 HO3'        0.9173    2.8584    1.8048 H         1 ATP         0.4307
     41 H2'        -0.0024   -0.0091    0.0062 H         1 ATP         0.0742
     42 HO2'        1.3225    0.4909    1.8095 H         1 ATP         0.4245
     43 H1'        -2.0584    1.4255    1.8301 H         1 ATP         0.1193
     44 H8         -1.2484   -1.7393    1.5300 H         1 ATP         0.0779
     45 HN61       -5.2843   -4.0736    0.3198 H         1 ATP         0.4486
     46 HN62       -6.8209   -3.6099   -0.3606 H         1 ATP         0.4486
     47 H2         -6.5198    0.9388   -0.9964 H         1 ATP         0.0538
@<TRIPOS>BOND
     1    1    2 2
     2    1    3 1
     3    1    4 1
     4    1    8 1
     5    3   32 1
     6    4   33 1
     7    5    6 2
     8    5    7 1
     9    5    8 1
    10    5   12 1
    11    7   34 1
    12    9   10 2
    13    9   11 1
    14    9   12 1
    15    9   13 1
    16   11   35 1
    17   13   14 1
    18   14   15 1
    19   14   36 1
    20   14   37 1
    21   15   16 1
    22   15   17 1
    23   15   38 1
    24   16   21 1
    25   17   18 1
    26   17   19 1
    27   17   39 1
    28   18   40 1
    29   19   20 1
    30   19   21 1
    31   19   41 1
    32   20   42 1
    33   21   22 1
    34   21   43 1
    35   22   23 ar
    36   22   31 ar
    37   23   24 ar
    38   23   44 1
    39   24   25 ar
    40   25   26 ar
    41   25   31 ar
    42   26   27 1
    43   26   28 ar
    44   27   45 1
    45   27   46 1
    46   28   29 ar
    47   29   30 ar
    48   29   47 1
    49   30   31 ar
@<TRIPOS>SUBSTRUCTURE
     1 ATP         1 GROUP 0 A     ****
@<TRIPOS>MOLECULE
[[5-(6-aminopurin-9-yl)-3,4-dihydroxy-tetrahydrofuran-2-yl]methoxy-hydroxy-phosphoryl] phosphono hydrogen phosphate
   47    49     1     0     0
SMALL
USER_CHARGES

@<TRIPOS>ATOM
      1 PG         -7.2836    0.1319    1.0664 P.3       1 ATP         1.8096
      2 O1G        -7.7191    0.0541   -0.3672 O.2       1 ATP        -0.7943
      3 O2G        -8.3413    0.8242    2.0733 O.3       1 ATP        -0.7926
      4 O3G        -6.9717   -1.2907    1.7676 O.3       1 ATP        -0.7926
      5 PB         -5.5322    2.5053    1.0082 P.3       1 ATP         1.9396
      6 O1B        -5.6174    2.9074   -0.4347 O.2       1 ATP        -0.8346
      7 O2B        -6.4832    3.3506    2.0053 O.3       1 ATP        -0.8243
      8 O3B        -5.9223    0.9673    1.3128 O.3       1 ATP        -0.8110
      9 PA         -3.0702    3.8634    1.8796 P.3       1 ATP         1.8043
     10 O1A        -3.6344    4.9807    2.7082 O.2       1 ATP        -0.8218
     11 O2A        -2.6765    4.2860    0.3684 O.3       1 ATP        -0.8115
     12 O3A        -4.0660    2.6076    1.6762 O.3       1 ATP        -0.8294
     13 O5'        -1.7335    3.1724    2.4745 O.3       1 ATP        -0.5751
     14 C5'        -0.8811    2.4285    1.6206 C.3       1 ATP         0.1702
     15 C4'        -0.1994    1.3333    2.4288 C.3       1 ATP         0.1167
     16 O4'        -1.1285    0.2356    2.5840 O.3       1 ATP        -0.4221
     17 C3'         1.0324    0.7610    1.7344 C.3       1 ATP         0.1072
     18 O3'         1.9175    0.2377    2.7247 O.3       1 ATP        -0.5896
     19 C2'         0.4468   -0.3802    0.9263 C.3       1 ATP         0.0668
     20 O2'         1.3993   -1.3703    0.5961 O.3       1 ATP        -0.5764
     21 C1'        -0.6159   -0.9100    1.8769 C.3       1 ATP         0.4327
     22 N9         -1.7127   -1.6108    1.2130 N.pl3     1 ATP        -0.7057
     23 C8         -3.0342   -1.2519    1.2439 C.ar      1 ATP         0.5352
     24 N7         -3.7886   -2.0756    0.5467 N.2       1 ATP        -0.5411
     25 C5         -2.9179   -3.0087    0.0426 C.ar      1 ATP        -0.2315
     26 C6         -3.1045   -4.1262   -0.7649 C.ar      1 ATP         0.7606
     27 N6         -4.3870   -4.4763   -1.2206 N.pl3     1 ATP        -0.9553
     28 N1         -2.0306   -4.8769   -1.1094 N.ar      1 ATP        -0.7923
     29 C2         -0.8199   -4.4895   -0.6402 C.ar      1 ATP         0.6867
     30 N3         -0.5140   -3.4335    0.1448 N.ar      1 ATP        -0.7305
     31 C4         -1.6202   -2.7371    0.4460 C.ar      1 ATP         0.5923
     32 HOG2       -9.2328    0.4273    2.1723 H         1 ATP         0.5059
     33 HOG3       -6.2699   -1.8624    1.3900 H         1 ATP         0.5059
     34 HOB2       -7.4533    3.3373    1.8609 H         1 ATP         0.5086
     35 HOA2       -2.0057    4.9884    0.2320 H         1 ATP         0.5057
     36 H5'1       -1.4796    1.9923    0.8143 H         1 ATP         0.0623
     37 H5'2       -0.1364    3.1037    1.1869 H         1 ATP         0.0623
     38 H4'         0.0402    1.7079    3.4343 H         1 ATP         0.1115
     39 H3'         1.5907    1.4859    1.1353 H         1 ATP         0.0700
     40 HO3'        2.1521    0.9800    3.3017 H         1 ATP         0.4307
     41 H2'        -0.0017    0.0018    0.0005 H         1 ATP         0.0742
     42 HO2'        0.9369   -2.0558    0.0825 H         1 ATP         0.4245
     43 H1'        -0.1998   -1.6319    2.6178 H         1 ATP         0.1193
     44 H8         -3.3847   -0.3852    1.7876 H         1 ATP         0.0779
     45 HN61       -4.4940   -5.2574   -1.8397 H         1 ATP         0.4486
     46 HN62       -5.1668   -3.8868   -0.9985 H         1 ATP         0.4486
     47 H2          0.0171   -5.1133   -0.9354 H         1 ATP         0.0538
@<TRIPOS>BOND
     1    1    2 2
     2    1    3 1
     3    1    4 1
     4    1    8 1
     5    3   32 1
     6    4   33 1
     7    5    6 2
     8    5    7 1
     9    5    8 1
    10    5   12 1
    11    7   34 1
    12    9   10 2
    13    9   11 1
    14    9   12 1
    15    9   13 1
    16   11   35 1
    17   13   14 1
    18   14   15 1
    19   14   36 1
    20   14   37 1
    21   15   16 1
    22   15   17 1
    23   15   38 1
    24   16   21 1
    25   17   18 1
    26   17   19 1
    27   17   39 1
    28   18   40 1
    29   19   20 1
    30   19   21 1
    31   19   41 1
    32   20   42 1
    33   21   22 1
    34   21   43 1
    35   22   23 ar
    36   22   31 ar
    37   23   24 ar
    38   23   44 1
    39   24   25 ar
    40   25   26 ar
    41   25   31 ar
    42   26   27 1
    43   26   28 ar
    44   27   45 1
    45   27   46 1
    46   28   29 ar
    47   29   30 ar
    48   29   47 1
    49   30   31 ar
@<TRIPOS>SUBSTRUCTURE
     1 ATP         1 GROUP 0 A     ****
@<TRIPOS>MOLECULE
[[5-(6-aminopurin-9-yl)-3,4-dihydroxy-tetrahydrofuran-2-yl]methoxy-hydroxy-phosphoryl] phosphono hydrogen phosphate
   47    49     1     0     0
SMALL
USER_CHARGES

@<TRIPOS>ATOM
      1 PG         -4.9952    7.1223    1.8387 P.3       1 ATP         1.8096
      2 O1G        -5.9680    6.9029    2.9597 O.2       1 ATP        -0.7943
      3 O2G        -5.5212    6.6903    0.3729 O.3       1 ATP        -0.7926
      4 O3G        -4.5193    8.6531    1.6320 O.3       1 ATP        -0.7926
      5 PB         -2.4513    6.3674    3.1279 P.3       1 ATP         1.9396
      6 O1B        -1.8028    7.7063    3.3222 O.2       1 ATP        -0.8346
      7 O2B        -3.1824    5.7709    4.4405 O.3       1 ATP        -0.8243
      8 O3B        -3.5992    6.3228    1.9919 O.3       1 ATP        -0.8110
      9 PA         -0.5527    5.0214    1.3254 P.3       1 ATP         1.8043
     10 O1A         0.4921    6.0864    1.1590 O.2       1 ATP        -0.8218
     11 O2A        -1.6294    4.9483    0.1202 O.3       1 ATP        -0.8115
     12 O3A        -1.4699    5.1795    2.6459 O.3       1 ATP        -0.8294
     13 O5'         0.0173    3.5130    1.4593 O.3       1 ATP        -0.5751
     14 C5'        -0.8811    2.4285    1.6206 C.3       1 ATP         0.1702
     15 C4'        -0.1994    1.3333    2.4288 C.3       1 ATP         0.1167
     16 O4'        -1.1285    0.2356    2.5840 O.3       1 ATP        -0.4221
     17 C3'         1.0324    0.7610    1.7344 C.3       1 ATP         0.1072
     18 O3'         1.9175    0.2377    2.7247 O.3       1 ATP        -0.5896
     19 C2'         0.4468   -0.3802    0.9263 C.3       1 ATP         0.0668
     20 O2'         1.3993   -1.3703    0.5961 O.3       1 ATP        -0.5764
     21 C1'        -0.6159   -0.9100    1.8769 C.3       1 ATP         0.4327
     22 N9         -1.7127   -1.6108    1.2130 N.pl3     1 ATP        -0.7057
     23 C8         -2.0877   -2.9101    1.4304 C.ar      1 ATP         0.5352
     24 N7         -3.1152   -3.2613    0.6857 N.2       1 ATP        -0.5411
     25 C5         -3.4186   -2.1409   -0.0462 C.ar      1 ATP        -0.2315
     26 C6         -4.3953   -1.8809   -1.0023 C.ar      1 ATP         0.7606
     27 N6         -5.3118   -2.8767   -1.3812 N.pl3     1 ATP        -0.9553
     28 N1         -4.4538   -0.6507   -1.5667 N.ar      1 ATP        -0.7923
     29 C2         -3.5442    0.2679   -1.1609 C.ar      1 ATP         0.6867
     30 N3         -2.5561    0.1361   -0.2491 N.ar      1 ATP        -0.7305
     31 C4         -2.5568   -1.1019    0.2674 C.ar      1 ATP         0.5923
     32 HOG2       -6.3228    7.1229    0.0092 H         1 ATP         0.5059
     33 HOG3       -4.0619    9.1117    2.3685 H         1 ATP         0.5059
     34 HOB2       -2.6498    5.6091    5.2482 H         1 ATP         0.5086
     35 HOA2       -2.1819    5.7360   -0.0704 H         1 ATP         0.5057
     36 H5'1       -1.7774    2.7844    2.1388 H         1 ATP         0.0623
     37 H5'2       -1.1657    2.0536    0.6322 H         1 ATP         0.0623
     38 H4'         0.0402    1.7079    3.4343 H         1 ATP         0.1115
     39 H3'         1.5907    1.4859    1.1353 H         1 ATP         0.0700
     40 HO3'        2.1521    0.9800    3.3017 H         1 ATP         0.4307
     41 H2'        -0.0017    0.0018    0.0005 H         1 ATP         0.0742
     42 HO2'        0.9369   -2.0558    0.0825 H         1 ATP         0.4245
     43 H1'        -0.1998   -1.6319    2.6178 H         1 ATP         0.1193
     44 H8         -1.5778   -3.5473    2.1399 H         1 ATP         0.0779
     45 HN61       -6.0371   -2.6553   -2.0368 H         1 ATP         0.4486
     46 HN62       -5.2887   -3.7677   -0.9225 H         1 ATP         0.4486
     47 H2         -3.6201    1.2414   -1.6336 H         1 ATP         0.0538
@<TRIPOS>BOND
     1    1    2 2
     2    1    3 1
     3    1    4 1
     4    1    8 1
     5    3   32 1
     6    4   33 1
     7    5    6 2
     8    5    7 1
     9    5    8 1
    10    5   12 1
    11    7   34 1
    12    9   10 2
    13    9   11 1
    14    9   12 1
    15    9   13 1
    16   11   35 1
    17   13   14 1
    18   14   15 1
    19   14   36 1
    20   14   37 1
    21   15   16 1
    22   15   17 1
    23   15   38 1
    24   16   21 1
    25   17   18 1
    26   17   19 1
    27   17   39 1
    28   18   40 1
    29   19   20 1
    30   19   21 1
    31   19   41 1
    32   20   42 1
    33   21   22 1
    34   21   43 1
    35   22   23 ar
    36   22   31 ar
    37   23   24 ar
    38   23   44 1
    39   24   25 ar
    40   25   26 ar
    41   25   31 ar
    42   26   27 1
    43   26   28 ar
    44   27   45 1
    45   27   46 1
    46   28   29 ar
    47   29   30 ar
    48   29   47 1
    49   30   31 ar
@<TRIPOS>SUBSTRUCTURE
     1 ATP         1 GROUP 0 A     ****
@<TRIPOS>MOLECULE
[[5-(6-aminopurin-9-yl)-3,4-dihydroxy-tetrahydrofuran-2-yl]methoxy-hydroxy-phosphoryl] phosphono hydrogen phosphate
   47    49     1     0     0
SMALL
USER_CHARGES

@<TRIPOS>ATOM
      1 PG         -5.8424   -0.4044   -5.4283 P.3       1 ATP         1.8096
      2 O1G        -6.7692   -0.2188   -4.2631 O.2       1 ATP        -0.7943
      3 O2G        -5.6496   -1.9313   -5.9214 O.3       1 ATP        -0.7926
      4 O3G        -6.2705    0.3760   -6.7775 O.3       1 ATP        -0.7926
      5 PB         -3.2139   -0.3289   -4.0908 P.3       1 ATP         1.9396
      6 O1B        -3.6106   -0.1318   -2.6573 O.2       1 ATP        -0.8346
      7 O2B        -2.8580   -1.8537   -4.4927 O.3       1 ATP        -0.8243
      8 O3B        -4.3303    0.1064   -5.1745 O.3       1 ATP        -0.8110
      9 PA         -1.6645    2.1131   -4.6401 P.3       1 ATP         1.8043
     10 O1A        -2.6279    2.8793   -5.4993 O.2       1 ATP        -0.8218
     11 O2A        -0.1197    2.2227   -5.1080 O.3       1 ATP        -0.8115
     12 O3A        -1.9328    0.5210   -4.5839 O.3       1 ATP        -0.8294
     13 O5'        -1.6513    2.5331   -3.0776 O.3       1 ATP        -0.5751
     14 C5'        -0.7794    1.8744   -2.1748 C.3       1 ATP         0.1702
     15 C4'        -0.9699    2.4597   -0.7819 C.3       1 ATP         0.1167
     16 O4'        -2.1475    1.8640   -0.2014 O.3       1 ATP        -0.4221
     17 C3'         0.1697    2.1347    0.1695 C.3       1 ATP         0.1072
     18 O3'         0.1809    3.0982    1.2223 O.3       1 ATP        -0.5896
     19 C2'        -0.2543    0.7880    0.7187 C.3       1 ATP         0.0668
     20 O2'         0.3606    0.4944    1.9582 O.3       1 ATP        -0.5764
     21 C1'        -1.7682    0.9516    0.8548 C.3       1 ATP         0.4327
     22 N9         -2.5926   -0.2553    0.7436 N.pl3     1 ATP        -0.7057
     23 C8         -2.1324   -1.5302    0.5457 C.ar      1 ATP         0.5352
     24 N7         -3.1118   -2.4085    0.4915 N.2       1 ATP        -0.5411
     25 C5         -4.2561   -1.6704    0.6612 C.ar      1 ATP        -0.2315
     26 C6         -5.6018   -2.0215    0.6998 C.ar      1 ATP         0.7606
     27 N6         -5.9988   -3.3610    0.5479 N.pl3     1 ATP        -0.9553
     28 N1         -6.5303   -1.0528    0.8871 N.ar      1 ATP        -0.7923
     29 C2         -6.0872    0.2199    1.0276 C.ar      1 ATP         0.6867
     30 N3         -4.8179    0.6820    1.0081 N.ar      1 ATP        -0.7305
     31 C4         -3.9544   -0.3272    0.8198 C.ar      1 ATP         0.5923
     32 HOG2       -5.2897   -2.5919   -5.2920 H         1 ATP         0.5059
     33 HOG3       -7.1351    0.1688   -7.1918 H         1 ATP         0.5059
     34 HOB2       -2.5908   -2.0513   -5.4155 H         1 ATP         0.5086
     35 HOA2        0.1274    1.9110   -6.0045 H         1 ATP         0.5057
     36 H5'1       -1.0111    0.8044   -2.1748 H         1 ATP         0.0623
     37 H5'2        0.2527    2.0160   -2.5113 H         1 ATP         0.0623
     38 H4'        -1.1469    3.5409   -0.8523 H         1 ATP         0.1115
     39 H3'         1.1601    2.1310   -0.2934 H         1 ATP         0.0700
     40 HO3'        0.9173    2.8584    1.8048 H         1 ATP         0.4307
     41 H2'        -0.0024   -0.0091    0.0062 H         1 ATP         0.0742
     42 HO2'        1.3225    0.4909    1.8095 H         1 ATP         0.4245
     43 H1'        -2.0584    1.4255    1.8301 H         1 ATP         0.1193
     44 H8         -1.0791   -1.7555    0.4498 H         1 ATP         0.0779
     45 HN61       -6.9693   -3.5994    0.6259 H         1 ATP         0.4486
     46 HN62       -5.3005   -4.0746    0.4576 H         1 ATP         0.4486
     47 H2         -6.8575    0.9694    1.1755 H         1 ATP         0.0538
@<TRIPOS>BOND
     1    1    2 2
     2    1    3 1
     3    1    4 1
     4    1    8 1
     5    3   32 1
     6    4   33 1
     7    5    6 2
     8    5    7 1
     9    5    8 1
    10    5   12 1
    11    7   34 1
    12    9   10 2
    13    9   11 1
    14    9   12 1
    15    9   13 1
    16   11   35 1
    17   13   14 1
    18   14   15 1
    19   14   36 1
    20   14   37 1
    21   15   16 1
    22   15   17 1
    23   15   38 1
    24   16   21 1
    25   17   18 1
    26   17   19 1
    27   17   39 1
    28   18   40 1
    29   19   20 1
    30   19   21 1
    31   19   41 1
    32   20   42 1
    33   21   22 1
    34   21   43 1
    35   22   23 ar
    36   22   31 ar
    37   23   24 ar
    38   23   44 1
    39   24   25 ar
    40   25   26 ar
    41   25   31 ar
    42   26   27 1
    43   26   28 ar
    44   27   45 1
    45   27   46 1
    46   28   29 ar
    47   29   30 ar
    48   29   47 1
    49   30   31 ar
@<TRIPOS>SUBSTRUCTURE
     1 ATP         1 GROUP 0 A     ****
@<TRIPOS>MOLECULE
[[5-(6-aminopurin-9-yl)-3,4-dihydroxy-tetrahydrofuran-2-yl]methoxy-hydroxy-phosphoryl] phosphono hydrogen phosphate
   47    49     1     0     0
SMALL
USER_CHARGES

@<TRIPOS>ATOM
      1 PG         -3.7616    6.5482    5.7650 P.3       1 ATP         1.8096
      2 O1G        -5.1663    6.8982    5.3706 O.2       1 ATP        -0.7943
      3 O2G        -2.8457    7.7934    6.2363 O.3       1 ATP        -0.7926
      4 O3G        -3.6328    5.5010    6.9896 O.3       1 ATP        -0.7926
      5 PB         -2.4513    6.3674    3.1279 P.3       1 ATP         1.9396
      6 O1B        -3.5897    6.6839    2.2034 O.2       1 ATP        -0.8346
      7 O2B        -1.4576    7.6062    3.4295 O.3       1 ATP        -0.8243
      8 O3B        -2.8868    5.8543    4.5967 O.3       1 ATP        -0.8110
      9 PA         -0.5527    5.0214    1.3254 P.3       1 ATP         1.8043
     10 O1A         0.4921    6.0864    1.1590 O.2       1 ATP        -0.8218
     11 O2A        -1.6294    4.9483    0.1202 O.3       1 ATP        -0.8115
     12 O3A        -1.4699    5.1795    2.6459 O.3       1 ATP        -0.8294
     13 O5'         0.0173    3.5130    1.4593 O.3       1 ATP        -0.5751
     14 C5'        -0.8811    2.4285    1.6206 C.3       1 ATP         0.1702
     15 C4'        -0.1994    1.3333    2.4288 C.3       1 ATP         0.1167
     16 O4'        -1.1285    0.2356    2.5840 O.3       1 ATP        -0.4221
     17 C3'         1.0324    0.7610    1.7344 C.3       1 ATP         0.1072
     18 O3'         1.9175    0.2377    2.7247 O.3       1 ATP        -0.5896
     19 C2'         0.4468   -0.3802    0.9263 C.3       1 ATP         0.0668
     20 O2'         1.3993   -1.3703    0.5961 O.3       1 ATP        -0.5764
     21 C1'        -0.6159   -0.9100    1.8769 C.3       1 ATP         0.4327
     22 N9         -1.7127   -1.6108    1.2130 N.pl3     1 ATP        -0.7057
     23 C8         -2.0877   -2.9101    1.4304 C.ar      1 ATP         0.5352
     24 N7         -3.1152   -3.2613    0.6857 N.2       1 ATP        -0.5411
     25 C5         -3.4186   -2.1409   -0.0462 C.ar      1 ATP        -0.2315
     26 C6         -4.3953   -1.8809   -1.0023 C.ar      1 ATP         0.7606
     27 N6         -5.3118   -2.8767   -1.3812 N.pl3     1 ATP        -0.9553
     28 N1         -4.4538   -0.6507   -1.5667 N.ar      1 ATP        -0.7923
     29 C2         -3.5442    0.2679   -1.1609 C.ar      1 ATP         0.6867
     30 N3         -2.5561    0.1361   -0.2491 N.ar      1 ATP        -0.7305
     31 C4         -2.5568   -1.1019    0.2674 C.ar      1 ATP         0.5923
     32 HOG2       -3.1282    8.3246    7.0110 H         1 ATP         0.5059
     33 HOG3       -4.0279    4.6083    6.8945 H         1 ATP         0.5059
     34 HOB2       -0.9836    8.0275    2.6812 H         1 ATP         0.5086
     35 HOA2       -1.3109    4.7690   -0.7899 H         1 ATP         0.5057
     36 H5'1       -1.7774    2.7844    2.1388 H         1 ATP         0.0623
     37 H5'2       -1.1657    2.0536    0.6322 H         1 ATP         0.0623
     38 H4'         0.0402    1.7079    3.4343 H         1 ATP         0.1115
     39 H3'         1.5907    1.4859    1.1353 H         1 ATP         0.0700
     40 HO3'        2.6839   -0.1150    2.2479 H         1 ATP         0.4307
     41 H2'        -0.0017    0.0018    0.0005 H         1 ATP         0.0742
     42 HO2'        0.9369   -2.0558    0.0825 H         1 ATP         0.4245
     43 H1'        -0.1998   -1.6319    2.6178 H         1 ATP         0.1193
     44 H8         -1.5778   -3.5473    2.1399 H         1 ATP         0.0779
     45 HN61       -6.0371   -2.6553   -2.0368 H         1 ATP         0.4486
     46 HN62       -5.2887   -3.7677   -0.9225 H         1 ATP         0.4486
     47 H2         -3.6201    1.2414   -1.6336 H         1 ATP         0.0538
@<TRIPOS>BOND
     1    1    2 2
     2    1    3 1
     3    1    4 1
     4    1    8 1
     5    3   32 1
     6    4   33 1
     7    5    6 2
     8    5    7 1
     9    5    8 1
    10    5   12 1
    11    7   34 1
    12    9   10 2
    13    9   11 1
    14    9   12 1
    15    9   13 1
    16   11   35 1
    17   13   14 1
    18   14   15 1
    19   14   36 1
    20   14   37 1
    21   15   16 1
    22   15   17 1
    23   15   38 1
    24   16   21 1
    25   17   18 1
    26   17   19 1
    27   17   39 1
    28   18   40 1
    29   19   20 1
    30   19   21 1
    31   19   41 1
    32   20   42 1
    33   21   22 1
    34   21   43 1
    35   22   23 ar
    36   22   31 ar
    37   23   24 ar
    38   23   44 1
    39   24   25 ar
    40   25   26 ar
    41   25   31 ar
    42   26   27 1
    43   26   28 ar
    44   27   45 1
    45   27   46 1
    46   28   29 ar
    47   29   30 ar
    48   29   47 1
    49   30   31 ar
@<TRIPOS>SUBSTRUCTURE
     1 ATP         1 GROUP 0 A     ****
@<TRIPOS>MOLECULE
[[5-(6-aminopurin-9-yl)-3,4-dihydroxy-tetrahydrofuran-2-yl]methoxy-hydroxy-phosphoryl] phosphono hydrogen phosphate
   47    49     1     0     0
SMALL
USER_CHARGES

@<TRIPOS>ATOM
      1 PG         -2.2251   -2.7353   -5.4820 P.3       1 ATP         1.8096
      2 O1G        -3.3087   -2.9527   -6.4968 O.2       1 ATP        -0.7943
      3 O2G        -1.6227   -4.0787   -4.8158 O.3       1 ATP        -0.7926
      4 O3G        -0.9137   -1.9666   -6.0315 O.3       1 ATP        -0.7926
      5 PB         -3.2139   -0.3289   -4.0908 P.3       1 ATP         1.9396
      6 O1B        -4.4934   -0.0597   -4.8265 O.2       1 ATP        -0.8346
      7 O2B        -3.2784   -0.0624   -2.4977 O.3       1 ATP        -0.8243
      8 O3B        -2.6645   -1.8437   -4.2077 O.3       1 ATP        -0.8110
      9 PA         -1.6645    2.1131   -4.6401 P.3       1 ATP         1.8043
     10 O1A        -2.6279    2.8793   -5.4993 O.2       1 ATP        -0.8218
     11 O2A        -0.1197    2.2227   -5.1080 O.3       1 ATP        -0.8115
     12 O3A        -1.9328    0.5210   -4.5839 O.3       1 ATP        -0.8294
     13 O5'        -1.6513    2.5331   -3.0776 O.3       1 ATP        -0.5751
     14 C5'        -0.7794    1.8744   -2.1748 C.3       1 ATP         0.1702
     15 C4'        -0.9699    2.4597   -0.7819 C.3       1 ATP         0.1167
     16 O4'        -2.1475    1.8640   -0.2014 O.3       1 ATP        -0.4221
     17 C3'         0.1697    2.1347    0.1695 C.3       1 ATP         0.1072
     18 O3'         0.1809    3.0982    1.2223 O.3       1 ATP        -0.5896
     19 C2'        -0.2543    0.7880    0.7187 C.3       1 ATP         0.0668
     20 O2'         0.3606    0.4944    1.9582 O.3       1 ATP        -0.5764
     21 C1'        -1.7682    0.9516    0.8548 C.3       1 ATP         0.4327
     22 N9         -2.5926   -0.2553    0.7436 N.pl3     1 ATP        -0.7057
     23 C8         -2.1324   -1.5302    0.5457 C.ar      1 ATP         0.5352
     24 N7         -3.1118   -2.4085    0.4915 N.2       1 ATP        -0.5411
     25 C5         -4.2561   -1.6704    0.6612 C.ar      1 ATP        -0.2315
     26 C6         -5.6018   -2.0215    0.6998 C.ar      1 ATP         0.7606
     27 N6         -5.9988   -3.3610    0.5479 N.pl3     1 ATP        -0.9553
     28 N1         -6.5303   -1.0528    0.8871 N.ar      1 ATP        -0.7923
     29 C2         -6.0872    0.2199    1.0276 C.ar      1 ATP         0.6867
     30 N3         -4.8179    0.6820    1.0081 N.ar      1 ATP        -0.7305
     31 C4         -3.9544   -0.3272    0.8198 C.ar      1 ATP         0.5923
     32 HOG2       -1.2014   -4.7487   -5.3952 H         1 ATP         0.5059
     33 HOG3       -1.0119   -1.0615   -6.3967 H         1 ATP         0.5059
     34 HOB2       -3.9195   -0.5709   -1.9569 H         1 ATP         0.5086
     35 HOA2        0.1274    1.9110   -6.0045 H         1 ATP         0.5057
     36 H5'1       -1.0111    0.8044   -2.1748 H         1 ATP         0.0623
     37 H5'2        0.2527    2.0160   -2.5113 H         1 ATP         0.0623
     38 H4'        -1.1469    3.5409   -0.8523 H         1 ATP         0.1115
     39 H3'         1.1601    2.1310   -0.2934 H         1 ATP         0.0700
     40 HO3'        0.9173    2.8584    1.8048 H         1 ATP         0.4307
     41 H2'        -0.0024   -0.0091    0.0062 H         1 ATP         0.0742
     42 HO2'        1.3225    0.4909    1.8095 H         1 ATP         0.4245
     43 H1'        -2.0584    1.4255    1.8301 H         1 ATP         0.1193
     44 H8         -1.0791   -1.7555    0.4498 H         1 ATP         0.0779
     45 HN61       -5.3067   -4.0623    0.3633 H         1 ATP         0.4486
     46 HN62       -6.9754   -3.5867    0.5317 H         1 ATP         0.4486
     47 H2         -6.8575    0.9694    1.1755 H         1 ATP         0.0538
@<TRIPOS>BOND
     1    1    2 2
     2    1    3 1
     3    1    4 1
     4    1    8 1
     5    3   32 1
     6    4   33 1
     7    5    6 2
     8    5    7 1
     9    5    8 1
    10    5   12 1
    11    7   34 1
    12    9   10 2
    13    9   11 1
    14    9   12 1
    15    9   13 1
    16   11   35 1
    17   13   14 1
    18   14   15 1
    19   14   36 1
    20   14   37 1
    21   15   16 1
    22   15   17 1
    23   15   38 1
    24   16   21 1
    25   17   18 1
    26   17   19 1
    27   17   39 1
    28   18   40 1
    29   19   20 1
    30   19   21 1
    31   19   41 1
    32   20   42 1
    33   21   22 1
    34   21   43 1
    35   22   23 ar
    36   22   31 ar
    37   23   24 ar
    38   23   44 1
    39   24   25 ar
    40   25   26 ar
    41   25   31 ar
    42   26   27 1
    43   26   28 ar
    44   27   45 1
    45   27   46 1
    46   28   29 ar
    47   29   30 ar
    48   29   47 1
    49   30   31 ar
@<TRIPOS>SUBSTRUCTURE
     1 ATP         1 GROUP 0 A     ****
@<TRIPOS>MOLECULE
[[5-(6-aminopurin-9-yl)-3,4-dihydroxy-tetrahydrofuran-2-yl]methoxy-hydroxy-phosphoryl] phosphono hydrogen phosphate
   47    49     1     0     0
SMALL
USER_CHARGES

@<TRIPOS>ATOM
      1 PG         -2.8055   -3.4044   -5.4113 P.3       1 ATP         1.8096
      2 O1G        -1.6948   -4.1330   -6.1088 O.2       1 ATP        -0.7943
      3 O2G        -4.1497   -3.1956   -6.2838 O.3       1 ATP        -0.7926
      4 O3G        -3.3409   -4.1037   -4.0560 O.3       1 ATP        -0.7926
      5 PB         -1.9533   -0.5998   -5.7458 P.3       1 ATP         1.9396
      6 O1B        -0.6742   -0.7628   -6.5128 O.2       1 ATP        -0.8346
      7 O2B        -3.2398   -0.2154   -6.6460 O.3       1 ATP        -0.8243
      8 O3B        -2.4307   -1.9086   -4.9277 O.3       1 ATP        -0.8110
      9 PA         -1.6645    2.1131   -4.6401 P.3       1 ATP         1.8043
     10 O1A        -2.6279    2.8793   -5.4993 O.2       1 ATP        -0.8218
     11 O2A        -0.1197    2.2227   -5.1080 O.3       1 ATP        -0.8115
     12 O3A        -1.9328    0.5210   -4.5839 O.3       1 ATP        -0.8294
     13 O5'        -1.6513    2.5331   -3.0776 O.3       1 ATP        -0.5751
     14 C5'        -0.7794    1.8744   -2.1748 C.3       1 ATP         0.1702
     15 C4'        -0.9699    2.4597   -0.7819 C.3       1 ATP         0.1167
     16 O4'        -2.1475    1.8640   -0.2014 O.3       1 ATP        -0.4221
     17 C3'         0.1697    2.1347    0.1695 C.3       1 ATP         0.1072
     18 O3'         0.1809    3.0982    1.2223 O.3       1 ATP        -0.5896
     19 C2'        -0.2543    0.7880    0.7187 C.3       1 ATP         0.0668
     20 O2'         0.3606    0.4944    1.9582 O.3       1 ATP        -0.5764
     21 C1'        -1.7682    0.9516    0.8548 C.3       1 ATP         0.4327
     22 N9         -2.5926   -0.2553    0.7436 N.pl3     1 ATP        -0.7057
     23 C8         -2.1324   -1.5302    0.5457 C.ar      1 ATP         0.5352
     24 N7         -3.1118   -2.4085    0.4915 N.2       1 ATP        -0.5411
     25 C5         -4.2561   -1.6704    0.6612 C.ar      1 ATP        -0.2315
     26 C6         -5.6018   -2.0215    0.6998 C.ar      1 ATP         0.7606
     27 N6         -5.9988   -3.3610    0.5479 N.pl3     1 ATP        -0.9553
     28 N1         -6.5303   -1.0528    0.8871 N.ar      1 ATP        -0.7923
     29 C2         -6.0872    0.2199    1.0276 C.ar      1 ATP         0.6867
     30 N3         -4.8179    0.6820    1.0081 N.ar      1 ATP        -0.7305
     31 C4         -3.9544   -0.3272    0.8198 C.ar      1 ATP         0.5923
     32 HOG2       -4.0974   -2.6921   -7.1239 H         1 ATP         0.5059
     33 HOG3       -3.7135   -5.0097   -4.1044 H         1 ATP         0.5059
     34 HOB2       -3.2233    0.6152   -7.1674 H         1 ATP         0.5086
     35 HOA2        0.3050    3.1063   -5.1378 H         1 ATP         0.5057
     36 H5'1       -1.0111    0.8044   -2.1748 H         1 ATP         0.0623
     37 H5'2        0.2527    2.0160   -2.5113 H         1 ATP         0.0623
     38 H4'        -1.1469    3.5409   -0.8523 H         1 ATP         0.1115
     39 H3'         1.1601    2.1310   -0.2934 H         1 ATP         0.0700
     40 HO3'        0.9173    2.8584    1.8048 H         1 ATP         0.4307
     41 H2'        -0.0024   -0.0091    0.0062 H         1 ATP         0.0742
     42 HO2'        1.3225    0.4909    1.8095 H         1 ATP         0.4245
     43 H1'        -2.0584    1.4255    1.8301 H         1 ATP         0.1193
     44 H8         -1.0791   -1.7555    0.4498 H         1 ATP         0.0779
     45 HN61       -5.3067   -4.0623    0.3633 H         1 ATP         0.4486
     46 HN62       -6.9754   -3.5867    0.5317 H         1 ATP         0.4486
     47 H2         -6.8575    0.9694    1.1755 H         1 ATP         0.0538
@<TRIPOS>BOND
     1    1    2 2
     2    1    3 1
     3    1    4 1
     4    1    8 1
     5    3   32 1
     6    4   33 1
     7    5    6 2
     8    5    7 1
     9    5    8 1
    10    5   12 1
    11    7   34 1
    12    9   10 2
    13    9   11 1
    14    9   12 1
    15    9   13 1
    16   11   35 1
    17   13   14 1
    18   14   15 1
    19   14   36 1
    20   14   37 1
    21   15   16 1
    22   15   17 1
    23   15   38 1
    24   16   21 1
    25   17   18 1
    26   17   19 1
    27   17   39 1
    28   18   40 1
    29   19   20 1
    30   19   21 1
    31   19   41 1
    32   20   42 1
    33   21   22 1
    34   21   43 1
    35   22   23 ar
    36   22   31 ar
    37   23   24 ar
    38   23   44 1
    39   24   25 ar
    40   25   26 ar
    41   25   31 ar
    42   26   27 1
    43   26   28 ar
    44   27   45 1
    45   27   46 1
    46   28   29 ar
    47   29   30 ar
    48   29   47 1
    49   30   31 ar
@<TRIPOS>SUBSTRUCTURE
     1 ATP         1 GROUP 0 A     ****
@<TRIPOS>MOLECULE
[[5-(6-aminopurin-9-yl)-3,4-dihydroxy-tetrahydrofuran-2-yl]methoxy-hydroxy-phosphoryl] phosphono hydrogen phosphate
   47    49     1     0     0
SMALL
USER_CHARGES

@<TRIPOS>ATOM
      1 PG         -3.2624    2.8786   -8.1138 P.3       1 ATP         1.8096
      2 O1G        -2.6525    3.6926   -9.2168 O.2       1 ATP        -0.7943
      3 O2G        -4.6189    3.4840   -7.4773 O.3       1 ATP        -0.7926
      4 O3G        -3.6781    1.3709   -8.5220 O.3       1 ATP        -0.7926
      5 PB         -0.8551    1.9653   -6.6735 P.3       1 ATP         1.9396
      6 O1B        -0.7981    0.5190   -7.0684 O.2       1 ATP        -0.8346
      7 O2B         0.1308    2.9362   -7.5093 O.3       1 ATP        -0.8243
      8 O3B        -2.3056    2.6594   -6.8300 O.3       1 ATP        -0.8110
      9 PA          0.8237    2.0080   -4.2558 P.3       1 ATP         1.8043
     10 O1A         2.0608    2.6814   -4.7750 O.2       1 ATP        -0.8218
     11 O2A         0.9164    0.3940   -4.1979 O.3       1 ATP        -0.8115
     12 O3A        -0.5078    2.2816   -5.1288 O.3       1 ATP        -0.8294
     13 O5'         0.3750    2.4476   -2.7645 O.3       1 ATP        -0.5751
     14 C5'        -0.7794    1.8744   -2.1748 C.3       1 ATP         0.1702
     15 C4'        -0.9699    2.4597   -0.7819 C.3       1 ATP         0.1167
     16 O4'        -2.1475    1.8640   -0.2014 O.3       1 ATP        -0.4221
     17 C3'         0.1697    2.1347    0.1695 C.3       1 ATP         0.1072
     18 O3'         0.1809    3.0982    1.2223 O.3       1 ATP        -0.5896
     19 C2'        -0.2543    0.7880    0.7187 C.3       1 ATP         0.0668
     20 O2'         0.3606    0.4944    1.9582 O.3       1 ATP        -0.5764
     21 C1'        -1.7682    0.9516    0.8548 C.3       1 ATP         0.4327
     22 N9         -2.5926   -0.2553    0.7436 N.pl3     1 ATP        -0.7057
     23 C8         -3.5599   -0.4866   -0.1983 C.ar      1 ATP         0.5352
     24 N7         -4.1294   -1.6639   -0.0461 N.2       1 ATP        -0.5411
     25 C5         -3.5041   -2.2191    1.0420 C.ar      1 ATP        -0.2315
     26 C6         -3.6604   -3.4390    1.6925 C.ar      1 ATP         0.7606
     27 N6         -4.6108   -4.3735    1.2468 N.pl3     1 ATP        -0.9553
     28 N1         -2.8820   -3.7179    2.7657 N.ar      1 ATP        -0.7923
     29 C2         -1.9837   -2.7784    3.1481 C.ar      1 ATP         0.6867
     30 N3         -1.7408   -1.5668    2.6022 N.ar      1 ATP        -0.7305
     31 C4         -2.5438   -1.3578    1.5483 C.ar      1 ATP         0.5923
     32 HOG2       -4.5931    4.3711   -7.0596 H         1 ATP         0.5059
     33 HOG3       -2.9837    0.7577   -8.8445 H         1 ATP         0.5059
     34 HOB2        1.0969    2.7692   -7.4816 H         1 ATP         0.5086
     35 HOA2        1.6117   -0.0215   -3.6449 H         1 ATP         0.5057
     36 H5'1       -1.6469    2.0965   -2.8047 H         1 ATP         0.0623
     37 H5'2       -0.6476    0.7890   -2.1189 H         1 ATP         0.0623
     38 H4'        -1.1469    3.5409   -0.8523 H         1 ATP         0.1115
     39 H3'         1.1601    2.1310   -0.2934 H         1 ATP         0.0700
     40 HO3'        0.3098    3.9616    0.8017 H         1 ATP         0.4307
     41 H2'        -0.0024   -0.0091    0.0062 H         1 ATP         0.0742
     42 HO2'        0.0384   -0.3797    2.2403 H         1 ATP         0.4245
     43 H1'        -2.0584    1.4255    1.8301 H         1 ATP         0.1193
     44 H8         -3.8030    0.2355   -0.9657 H         1 ATP         0.0779
     45 HN61       -5.2130   -4.1372    0.4810 H         1 ATP         0.4486
     46 HN62       -4.7404   -5.2263    1.7576 H         1 ATP         0.4486
     47 H2         -1.3778   -3.0348    4.0107 H         1 ATP         0.0538
@<TRIPOS>BOND
     1    1    2 2
     2    1    3 1
     3    1    4 1
     4    1    8 1
     5    3   32 1
     6    4   33 1
     7    5    6 2
     8    5    7 1
     9    5    8 1
    10    5   12 1
    11    7   34 1
    12    9   10 2
    13    9   11 1
    14    9   12 1
    15    9   13 1
    16   11   35 1
    17   13   14 1
    18   14   15 1
    19   14   36 1
    20   14   37 1
    21   15   16 1
    22   15   17 1
    23   15   38 1
    24   16   21 1
    25   17   18 1
    26   17   19 1
    27   17   39 1
    28   18   40 1
    29   19   20 1
    30   19   21 1
    31   19   41 1
    32   20   42 1
    33   21   22 1
    34   21   43 1
    35   22   23 ar
    36   22   31 ar
    37   23   24 ar
    38   23   44 1
    39   24   25 ar
    40   25   26 ar
    41   25   31 ar
    42   26   27 1
    43   26   28 ar
    44   27   45 1
    45   27   46 1
    46   28   29 ar
    47   29   30 ar
    48   29   47 1
    49   30   31 ar
@<TRIPOS>SUBSTRUCTURE
     1 ATP         1 GROUP 0 A     ****
@<TRIPOS>MOLECULE
[[5-(6-aminopurin-9-yl)-3,4-dihydroxy-tetrahydrofuran-2-yl]methoxy-hydroxy-phosphoryl] phosphono hydrogen phosphate
   47    49     1     0     0
SMALL
USER_CHARGES

@<TRIPOS>ATOM
      1 PG         -3.7376    2.3262   -6.1591 P.3       1 ATP         1.8096
      2 O1G        -3.7600    2.4050   -4.6609 O.2       1 ATP        -0.7943
      3 O2G        -4.1220    0.8850   -6.7810 O.3       1 ATP        -0.7926
      4 O3G        -4.7413    3.3426   -6.9154 O.3       1 ATP        -0.7926
      5 PB         -0.8551    1.9653   -6.6735 P.3       1 ATP         1.9396
      6 O1B        -0.7981    0.5190   -7.0684 O.2       1 ATP        -0.8346
      7 O2B         0.1308    2.9362   -7.5093 O.3       1 ATP        -0.8243
      8 O3B        -2.3056    2.6594   -6.8300 O.3       1 ATP        -0.8110
      9 PA          0.8237    2.0080   -4.2558 P.3       1 ATP         1.8043
     10 O1A         2.0608    2.6814   -4.7750 O.2       1 ATP        -0.8218
     11 O2A         0.9164    0.3940   -4.1979 O.3       1 ATP        -0.8115
     12 O3A        -0.5078    2.2816   -5.1288 O.3       1 ATP        -0.8294
     13 O5'         0.3750    2.4476   -2.7645 O.3       1 ATP        -0.5751
     14 C5'        -0.7794    1.8744   -2.1748 C.3       1 ATP         0.1702
     15 C4'        -0.9699    2.4597   -0.7819 C.3       1 ATP         0.1167
     16 O4'        -2.1475    1.8640   -0.2014 O.3       1 ATP        -0.4221
     17 C3'         0.1697    2.1347    0.1695 C.3       1 ATP         0.1072
     18 O3'         0.1809    3.0982    1.2223 O.3       1 ATP        -0.5896
     19 C2'        -0.2543    0.7880    0.7187 C.3       1 ATP         0.0668
     20 O2'         0.3606    0.4944    1.9582 O.3       1 ATP        -0.5764
     21 C1'        -1.7682    0.9516    0.8548 C.3       1 ATP         0.4327
     22 N9         -2.5926   -0.2553    0.7436 N.pl3     1 ATP        -0.7057
     23 C8         -2.1324   -1.5302    0.5457 C.ar      1 ATP         0.5352
     24 N7         -3.1118   -2.4085    0.4915 N.2       1 ATP        -0.5411
     25 C5         -4.2561   -1.6704    0.6612 C.ar      1 ATP        -0.2315
     26 C6         -5.6018   -2.0215    0.6998 C.ar      1 ATP         0.7606
     27 N6         -5.9988   -3.3610    0.5479 N.pl3     1 ATP        -0.9553
     28 N1         -6.5303   -1.0528    0.8871 N.ar      1 ATP        -0.7923
     29 C2         -6.0872    0.2199    1.0276 C.ar      1 ATP         0.6867
     30 N3         -4.8179    0.6820    1.0081 N.ar      1 ATP        -0.7305
     31 C4         -3.9544   -0.3272    0.8198 C.ar      1 ATP         0.5923
     32 HOG2       -3.5749    0.1053   -6.5468 H         1 ATP         0.5059
     33 HOG3       -5.7041    3.2779   -6.7394 H         1 ATP         0.5059
     34 HOB2        0.0216    3.0000   -8.4820 H         1 ATP         0.5086
     35 HOA2        1.6117   -0.0215   -3.6449 H         1 ATP         0.5057
     36 H5'1       -1.6469    2.0965   -2.8047 H         1 ATP         0.0623
     37 H5'2       -0.6476    0.7890   -2.1189 H         1 ATP         0.0623
     38 H4'        -1.1469    3.5409   -0.8523 H         1 ATP         0.1115
     39 H3'         1.1601    2.1310   -0.2934 H         1 ATP         0.0700
     40 HO3'        0.9173    2.8584    1.8048 H         1 ATP         0.4307
     41 H2'        -0.0024   -0.0091    0.0062 H         1 ATP         0.0742
     42 HO2'        1.3225    0.4909    1.8095 H         1 ATP         0.4245
     43 H1'        -2.0584    1.4255    1.8301 H         1 ATP         0.1193
     44 H8         -1.0791   -1.7555    0.4498 H         1 ATP         0.0779
     45 HN61       -5.3067   -4.0623    0.3633 H         1 ATP         0.4486
     46 HN62       -6.9754   -3.5867    0.5317 H         1 ATP         0.4486
     47 H2         -6.8575    0.9694    1.1755 H         1 ATP         0.0538
@<TRIPOS>BOND
     1    1    2 2
     2    1    3 1
     3    1    4 1
     4    1    8 1
     5    3   32 1
     6    4   33 1
     7    5    6 2
     8    5    7 1
     9    5    8 1
    10    5   12 1
    11    7   34 1
    12    9   10 2
    13    9   11 1
    14    9   12 1
    15    9   13 1
    16   11   35 1
    17   13   14 1
    18   14   15 1
    19   14   36 1
    20   14   37 1
    21   15   16 1
    22   15   17 1
    23   15   38 1
    24   16   21 1
    25   17   18 1
    26   17   19 1
    27   17   39 1
    28   18   40 1
    29   19   20 1
    30   19   21 1
    31   19   41 1
    32   20   42 1
    33   21   22 1
    34   21   43 1
    35   22   23 ar
    36   22   31 ar
    37   23   24 ar
    38   23   44 1
    39   24   25 ar
    40   25   26 ar
    41   25   31 ar
    42   26   27 1
    43   26   28 ar
    44   27   45 1
    45   27   46 1
    46   28   29 ar
    47   29   30 ar
    48   29   47 1
    49   30   31 ar
@<TRIPOS>SUBSTRUCTURE
     1 ATP         1 GROUP 0 A     ****
@<TRIPOS>MOLECULE
[[5-(6-aminopurin-9-yl)-3,4-dihydroxy-tetrahydrofuran-2-yl]methoxy-hydroxy-phosphoryl] phosphono hydrogen phosphate
   47    49     1     0     0
SMALL
USER_CHARGES

@<TRIPOS>ATOM
      1 PG         -5.5035    4.2235    2.1114 P.3       1 ATP         1.8096
      2 O1G        -6.2345    3.8581    0.8532 O.2       1 ATP        -0.7943
      3 O2G        -6.4331    4.4181    3.4190 O.3       1 ATP        -0.7926
      4 O3G        -4.3921    3.1542    2.5952 O.3       1 ATP        -0.7926
      5 PB         -3.4576    6.0770    1.0710 P.3       1 ATP         1.9396
      6 O1B        -3.7737    6.0825   -0.3957 O.2       1 ATP        -0.8346
      7 O2B        -3.0209    7.5110    1.6762 O.3       1 ATP        -0.8243
      8 O3B        -4.6699    5.6056    2.0292 O.3       1 ATP        -0.8110
      9 PA         -0.7172    5.0023    1.1041 P.3       1 ATP         1.8043
     10 O1A         0.0745    6.2394    1.4142 O.2       1 ATP        -0.8218
     11 O2A        -0.7666    4.6175   -0.4665 O.3       1 ATP        -0.8115
     12 O3A        -2.2748    5.0770    1.5265 O.3       1 ATP        -0.8294
     13 O5'        -0.2067    3.6555    1.8414 O.3       1 ATP        -0.5751
     14 C5'        -0.8811    2.4285    1.6206 C.3       1 ATP         0.1702
     15 C4'        -0.1994    1.3333    2.4288 C.3       1 ATP         0.1167
     16 O4'        -1.1285    0.2356    2.5840 O.3       1 ATP        -0.4221
     17 C3'         1.0324    0.7610    1.7344 C.3       1 ATP         0.1072
     18 O3'         1.9175    0.2377    2.7247 O.3       1 ATP        -0.5896
     19 C2'         0.4468   -0.3802    0.9263 C.3       1 ATP         0.0668
     20 O2'         1.3993   -1.3703    0.5961 O.3       1 ATP        -0.5764
     21 C1'        -0.6159   -0.9100    1.8769 C.3       1 ATP         0.4327
     22 N9         -1.7127   -1.6108    1.2130 N.pl3     1 ATP        -0.7057
     23 C8         -1.7712   -2.9546    0.9544 C.ar      1 ATP         0.5352
     24 N7         -2.8883   -3.2948    0.3462 N.2       1 ATP        -0.5411
     25 C5         -3.5834   -2.1202    0.2043 C.ar      1 ATP        -0.2315
     26 C6         -4.8225   -1.8251   -0.3554 C.ar      1 ATP         0.7606
     27 N6         -5.6154   -2.8394   -0.9189 N.pl3     1 ATP        -0.9553
     28 N1         -5.2589   -0.5425   -0.3507 N.ar      1 ATP        -0.7923
     29 C2         -4.4510    0.3913    0.2069 C.ar      1 ATP         0.6867
     30 N3         -3.2368    0.2296    0.7767 N.ar      1 ATP        -0.7305
     31 C4         -2.8684   -1.0596    0.7376 C.ar      1 ATP         0.5923
     32 HOG2       -6.9754    3.6636    3.7329 H         1 ATP         0.5059
     33 HOG3       -3.6427    2.9451    1.9979 H         1 ATP         0.5059
     34 HOB2       -3.6500    8.2614    1.6199 H         1 ATP         0.5086
     35 HOA2       -1.1514    5.2596   -1.1001 H         1 ATP         0.5057
     36 H5'1       -1.9258    2.5374    1.9293 H         1 ATP         0.0623
     37 H5'2       -0.8476    2.1925    0.5521 H         1 ATP         0.0623
     38 H4'         0.0402    1.7079    3.4343 H         1 ATP         0.1115
     39 H3'         1.5907    1.4859    1.1353 H         1 ATP         0.0700
     40 HO3'        2.1521    0.9800    3.3017 H         1 ATP         0.4307
     41 H2'        -0.0017    0.0018    0.0005 H         1 ATP         0.0742
     42 HO2'        0.9369   -2.0558    0.0825 H         1 ATP         0.4245
     43 H1'        -0.1998   -1.6319    2.6178 H         1 ATP         0.1193
     44 H8         -0.9745   -3.6312    1.2318 H         1 ATP         0.0779
     45 HN61       -5.2619   -3.7766   -0.9586 H         1 ATP         0.4486
     46 HN62       -6.4834   -2.5990   -1.3590 H         1 ATP         0.4486
     47 H2         -4.8317    1.4071    0.1930 H         1 ATP         0.0538
@<TRIPOS>BOND
     1    1    2 2
     2    1    3 1
     3    1    4 1
     4    1    8 1
     5    3   32 1
     6    4   33 1
     7    5    6 2
     8    5    7 1
     9    5    8 1
    10    5   12 1
    11    7   34 1
    12    9   10 2
    13    9   11 1
    14    9   12 1
    15    9   13 1
    16   11   35 1
    17   13   14 1
    18   14   15 1
    19   14   36 1
    20   14   37 1
    21   15   16 1
    22   15   17 1
    23   15   38 1
    24   16   21 1
    25   17   18 1
    26   17   19 1
    27   17   39 1
    28   18   40 1
    29   19   20 1
    30   19   21 1
    31   19   41 1
    32   20   42 1
    33   21   22 1
    34   21   43 1
    35   22   23 ar
    36   22   31 ar
    37   23   24 ar
    38   23   44 1
    39   24   25 ar
    40   25   26 ar
    41   25   31 ar
    42   26   27 1
    43   26   28 ar
    44   27   45 1
    45   27   46 1
    46   28   29 ar
    47   29   30 ar
    48   29   47 1
    49   30   31 ar
@<TRIPOS>SUBSTRUCTURE
     1 ATP         1 GROUP 0 A     ****
@<TRIPOS>MOLECULE
[[5-(6-aminopurin-9-yl)-3,4-dihydroxy-tetrahydrofuran-2-yl]methoxy-hydroxy-phosphoryl] phosphono hydrogen phosphate
   47    49     1     0     0
SMALL
USER_CHARGES

@<TRIPOS>ATOM
      1 PG         -3.2624    2.8786   -8.1138 P.3       1 ATP         1.8096
      2 O1G        -2.6525    3.6926   -9.2168 O.2       1 ATP        -0.7943
      3 O2G        -4.6189    3.4840   -7.4773 O.3       1 ATP        -0.7926
      4 O3G        -3.6781    1.3709   -8.5220 O.3       1 ATP        -0.7926
      5 PB         -0.8551    1.9653   -6.6735 P.3       1 ATP         1.9396
      6 O1B        -0.7981    0.5190   -7.0684 O.2       1 ATP        -0.8346
      7 O2B         0.1308    2.9362   -7.5093 O.3       1 ATP        -0.8243
      8 O3B        -2.3056    2.6594   -6.8300 O.3       1 ATP        -0.8110
      9 PA          0.8237    2.0080   -4.2558 P.3       1 ATP         1.8043
     10 O1A         2.0608    2.6814   -4.7750 O.2       1 ATP        -0.8218
     11 O2A         0.9164    0.3940   -4.1979 O.3       1 ATP        -0.8115
     12 O3A        -0.5078    2.2816   -5.1288 O.3       1 ATP        -0.8294
     13 O5'         0.3750    2.4476   -2.7645 O.3       1 ATP        -0.5751
     14 C5'        -0.7794    1.8744   -2.1748 C.3       1 ATP         0.1702
     15 C4'        -0.9699    2.4597   -0.7819 C.3       1 ATP         0.1167
     16 O4'        -2.1475    1.8640   -0.2014 O.3       1 ATP        -0.4221
     17 C3'         0.1697    2.1347    0.1695 C.3       1 ATP         0.1072
     18 O3'         0.1809    3.0982    1.2223 O.3       1 ATP        -0.5896
     19 C2'        -0.2543    0.7880    0.7187 C.3       1 ATP         0.0668
     20 O2'         0.3606    0.4944    1.9582 O.3       1 ATP        -0.5764
     21 C1'        -1.7682    0.9516    0.8548 C.3       1 ATP         0.4327
     22 N9         -2.5926   -0.2553    0.7436 N.pl3     1 ATP        -0.7057
     23 C8         -2.2217   -1.5214    1.1120 C.ar      1 ATP         0.5352
     24 N7         -3.1772   -2.4011    0.8958 N.2       1 ATP        -0.5411
     25 C5         -4.2118   -1.6733    0.3639 C.ar      1 ATP        -0.2315
     26 C6         -5.4850   -2.0305   -0.0685 C.ar      1 ATP         0.7606
     27 N6         -5.9178   -3.3658   -0.0004 N.pl3     1 ATP        -0.9553
     28 N1         -6.3076   -1.0717   -0.5581 N.ar      1 ATP        -0.7923
     29 C2         -5.8349    0.1974   -0.5985 C.ar      1 ATP         0.6867
     30 N3         -4.6277    0.6645   -0.2117 N.ar      1 ATP        -0.7305
     31 C4         -3.8678   -0.3348    0.2608 C.ar      1 ATP         0.5923
     32 HOG2       -4.5931    4.3711   -7.0596 H         1 ATP         0.5059
     33 HOG3       -2.9837    0.7577   -8.8445 H         1 ATP         0.5059
     34 HOB2        1.0969    2.7692   -7.4816 H         1 ATP         0.5086
     35 HOA2        1.0745   -0.1019   -5.0292 H         1 ATP         0.5057
     36 H5'1       -1.6469    2.0965   -2.8047 H         1 ATP         0.0623
     37 H5'2       -0.6476    0.7890   -2.1189 H         1 ATP         0.0623
     38 H4'        -1.1469    3.5409   -0.8523 H         1 ATP         0.1115
     39 H3'         1.1601    2.1310   -0.2934 H         1 ATP         0.0700
     40 HO3'        0.9173    2.8584    1.8048 H         1 ATP         0.4307
     41 H2'        -0.0024   -0.0091    0.0062 H         1 ATP         0.0742
     42 HO2'        1.3225    0.4909    1.8095 H         1 ATP         0.4245
     43 H1'        -2.0584    1.4255    1.8301 H         1 ATP         0.1193
     44 H8         -1.2484   -1.7393    1.5300 H         1 ATP         0.0779
     45 HN61       -6.8550   -3.5947   -0.2729 H         1 ATP         0.4486
     46 HN62       -5.3182   -4.0579    0.4074 H         1 ATP         0.4486
     47 H2         -6.5198    0.9388   -0.9964 H         1 ATP         0.0538
@<TRIPOS>BOND
     1    1    2 2
     2    1    3 1
     3    1    4 1
     4    1    8 1
     5    3   32 1
     6    4   33 1
     7    5    6 2
     8    5    7 1
     9    5    8 1
    10    5   12 1
    11    7   34 1
    12    9   10 2
    13    9   11 1
    14    9   12 1
    15    9   13 1
    16   11   35 1
    17   13   14 1
    18   14   15 1
    19   14   36 1
    20   14   37 1
    21   15   16 1
    22   15   17 1
    23   15   38 1
    24   16   21 1
    25   17   18 1
    26   17   19 1
    27   17   39 1
    28   18   40 1
    29   19   20 1
    30   19   21 1
    31   19   41 1
    32   20   42 1
    33   21   22 1
    34   21   43 1
    35   22   23 ar
    36   22   31 ar
    37   23   24 ar
    38   23   44 1
    39   24   25 ar
    40   25   26 ar
    41   25   31 ar
    42   26   27 1
    43   26   28 ar
    44   27   45 1
    45   27   46 1
    46   28   29 ar
    47   29   30 ar
    48   29   47 1
    49   30   31 ar
@<TRIPOS>SUBSTRUCTURE
     1 ATP         1 GROUP 0 A     ****
@<TRIPOS>MOLECULE
[[5-(6-aminopurin-9-yl)-3,4-dihydroxy-tetrahydrofuran-2-yl]methoxy-hydroxy-phosphoryl] phosphono hydrogen phosphate
   47    49     1     0     0
SMALL
USER_CHARGES

@<TRIPOS>ATOM
      1 PG         -3.2624    2.8786   -8.1138 P.3       1 ATP         1.8096
      2 O1G        -3.6925    1.6138   -8.7967 O.2       1 ATP        -0.7943
      3 O2G        -2.4300    3.9128   -9.0354 O.3       1 ATP        -0.7926
      4 O3G        -4.4647    3.7836   -7.5237 O.3       1 ATP        -0.7926
      5 PB         -0.8551    1.9653   -6.6735 P.3       1 ATP         1.9396
      6 O1B        -0.7981    0.5190   -7.0684 O.2       1 ATP        -0.8346
      7 O2B         0.1308    2.9362   -7.5093 O.3       1 ATP        -0.8243
      8 O3B        -2.3056    2.6594   -6.8300 O.3       1 ATP        -0.8110
      9 PA          0.8237    2.0080   -4.2558 P.3       1 ATP         1.8043
     10 O1A         2.0608    2.6814   -4.7750 O.2       1 ATP        -0.8218
     11 O2A         0.9164    0.3940   -4.1979 O.3       1 ATP        -0.8115
     12 O3A        -0.5078    2.2816   -5.1288 O.3       1 ATP        -0.8294
     13 O5'         0.3750    2.4476   -2.7645 O.3       1 ATP        -0.5751
     14 C5'        -0.7794    1.8744   -2.1748 C.3       1 ATP         0.1702
     15 C4'        -0.9699    2.4597   -0.7819 C.3       1 ATP         0.1167
     16 O4'        -2.1475    1.8640   -0.2014 O.3       1 ATP        -0.4221
     17 C3'         0.1697    2.1347    0.1695 C.3       1 ATP         0.1072
     18 O3'         0.1809    3.0982    1.2223 O.3       1 ATP        -0.5896
     19 C2'        -0.2543    0.7880    0.7187 C.3       1 ATP         0.0668
     20 O2'         0.3606    0.4944    1.9582 O.3       1 ATP        -0.5764
     21 C1'        -1.7682    0.9516    0.8548 C.3       1 ATP         0.4327
     22 N9         -2.5926   -0.2553    0.7436 N.pl3     1 ATP        -0.7057
     23 C8         -2.1324   -1.5302    0.5457 C.ar      1 ATP         0.5352
     24 N7         -3.1118   -2.4085    0.4915 N.2       1 ATP        -0.5411
     25 C5         -4.2561   -1.6704    0.6612 C.ar      1 ATP        -0.2315
     26 C6         -5.6018   -2.0215    0.6998 C.ar      1 ATP         0.7606
     27 N6         -5.9988   -3.3610    0.5479 N.pl3     1 ATP        -0.9553
     28 N1         -6.5303   -1.0528    0.8871 N.ar      1 ATP        -0.7923
     29 C2         -6.0872    0.2199    1.0276 C.ar      1 ATP         0.6867
     30 N3         -4.8179    0.6820    1.0081 N.ar      1 ATP        -0.7305
     31 C4         -3.9544   -0.3272    0.8198 C.ar      1 ATP         0.5923
     32 HOG2       -2.8514    4.2736   -9.8442 H         1 ATP         0.5059
     33 HOG3       -5.0602    3.3987   -6.8460 H         1 ATP         0.5059
     34 HOB2        0.0216    3.0000   -8.4820 H         1 ATP         0.5086
     35 HOA2        1.6117   -0.0215   -3.6449 H         1 ATP         0.5057
     36 H5'1       -1.6469    2.0965   -2.8047 H         1 ATP         0.0623
     37 H5'2       -0.6476    0.7890   -2.1189 H         1 ATP         0.0623
     38 H4'        -1.1469    3.5409   -0.8523 H         1 ATP         0.1115
     39 H3'         1.1601    2.1310   -0.2934 H         1 ATP         0.0700
     40 HO3'        0.9173    2.8584    1.8048 H         1 ATP         0.4307
     41 H2'        -0.0024   -0.0091    0.0062 H         1 ATP         0.0742
     42 HO2'        1.3225    0.4909    1.8095 H         1 ATP         0.4245
     43 H1'        -2.0584    1.4255    1.8301 H         1 ATP         0.1193
     44 H8         -1.0791   -1.7555    0.4498 H         1 ATP         0.0779
     45 HN61       -5.3067   -4.0623    0.3633 H         1 ATP         0.4486
     46 HN62       -6.9754   -3.5867    0.5317 H         1 ATP         0.4486
     47 H2         -6.8575    0.9694    1.1755 H         1 ATP         0.0538
@<TRIPOS>BOND
     1    1    2 2
     2    1    3 1
     3    1    4 1
     4    1    8 1
     5    3   32 1
     6    4   33 1
     7    5    6 2
     8    5    7 1
     9    5    8 1
    10    5   12 1
    11    7   34 1
    12    9   10 2
    13    9   11 1
    14    9   12 1
    15    9   13 1
    16   11   35 1
    17   13   14 1
    18   14   15 1
    19   14   36 1
    20   14   37 1
    21   15   16 1
    22   15   17 1
    23   15   38 1
    24   16   21 1
    25   17   18 1
    26   17   19 1
    27   17   39 1
    28   18   40 1
    29   19   20 1
    30   19   21 1
    31   19   41 1
    32   20   42 1
    33   21   22 1
    34   21   43 1
    35   22   23 ar
    36   22   31 ar
    37   23   24 ar
    38   23   44 1
    39   24   25 ar
    40   25   26 ar
    41   25   31 ar
    42   26   27 1
    43   26   28 ar
    44   27   45 1
    45   27   46 1
    46   28   29 ar
    47   29   30 ar
    48   29   47 1
    49   30   31 ar
@<TRIPOS>SUBSTRUCTURE
     1 ATP         1 GROUP 0 A     ****
@<TRIPOS>MOLECULE
[[5-(6-aminopurin-9-yl)-3,4-dihydroxy-tetrahydrofuran-2-yl]methoxy-hydroxy-phosphoryl] phosphono hydrogen phosphate
   47    49     1     0     0
SMALL
USER_CHARGES

@<TRIPOS>ATOM
      1 PG         -5.5035    4.2235    2.1114 P.3       1 ATP         1.8096
      2 O1G        -6.2345    3.8581    0.8532 O.2       1 ATP        -0.7943
      3 O2G        -6.4331    4.4181    3.4190 O.3       1 ATP        -0.7926
      4 O3G        -4.3921    3.1542    2.5952 O.3       1 ATP        -0.7926
      5 PB         -3.4576    6.0770    1.0710 P.3       1 ATP         1.9396
      6 O1B        -3.7737    6.0825   -0.3957 O.2       1 ATP        -0.8346
      7 O2B        -3.0209    7.5110    1.6762 O.3       1 ATP        -0.8243
      8 O3B        -4.6699    5.6056    2.0292 O.3       1 ATP        -0.8110
      9 PA         -0.7172    5.0023    1.1041 P.3       1 ATP         1.8043
     10 O1A         0.0745    6.2394    1.4142 O.2       1 ATP        -0.8218
     11 O2A        -0.7666    4.6175   -0.4665 O.3       1 ATP        -0.8115
     12 O3A        -2.2748    5.0770    1.5265 O.3       1 ATP        -0.8294
     13 O5'        -0.2067    3.6555    1.8414 O.3       1 ATP        -0.5751
     14 C5'        -0.8811    2.4285    1.6206 C.3       1 ATP         0.1702
     15 C4'        -0.1994    1.3333    2.4288 C.3       1 ATP         0.1167
     16 O4'        -1.1285    0.2356    2.5840 O.3       1 ATP        -0.4221
     17 C3'         1.0324    0.7610    1.7344 C.3       1 ATP         0.1072
     18 O3'         1.9175    0.2377    2.7247 O.3       1 ATP        -0.5896
     19 C2'         0.4468   -0.3802    0.9263 C.3       1 ATP         0.0668
     20 O2'         1.3993   -1.3703    0.5961 O.3       1 ATP        -0.5764
     21 C1'        -0.6159   -0.9100    1.8769 C.3       1 ATP         0.4327
     22 N9         -1.7127   -1.6108    1.2130 N.pl3     1 ATP        -0.7057
     23 C8         -2.8641   -1.0399    0.7392 C.ar      1 ATP         0.5352
     24 N7         -3.6659   -1.9257    0.1858 N.2       1 ATP        -0.5411
     25 C5         -3.0053   -3.1223    0.3069 C.ar      1 ATP        -0.2315
     26 C6         -3.3321   -4.4178   -0.0813 C.ar      1 ATP         0.7606
     27 N6         -4.5476   -4.6866   -0.7335 N.pl3     1 ATP        -0.9553
     28 N1         -2.4608   -5.4225    0.1773 N.ar      1 ATP        -0.7923
     29 C2         -1.3053   -5.1020    0.8081 C.ar      1 ATP         0.6867
     30 N3         -0.8788   -3.8921    1.2315 N.ar      1 ATP        -0.7305
     31 C4         -1.7870   -2.9477    0.9438 C.ar      1 ATP         0.5923
     32 HOG2       -6.9754    3.6636    3.7329 H         1 ATP         0.5059
     33 HOG3       -3.6427    2.9451    1.9979 H         1 ATP         0.5059
     34 HOB2       -3.6500    8.2614    1.6199 H         1 ATP         0.5086
     35 HOA2       -1.1514    5.2596   -1.1001 H         1 ATP         0.5057
     36 H5'1       -1.9258    2.5374    1.9293 H         1 ATP         0.0623
     37 H5'2       -0.8476    2.1925    0.5521 H         1 ATP         0.0623
     38 H4'         0.0402    1.7079    3.4343 H         1 ATP         0.1115
     39 H3'         1.5907    1.4859    1.1353 H         1 ATP         0.0700
     40 HO3'        2.1521    0.9800    3.3017 H         1 ATP         0.4307
     41 H2'        -0.0017    0.0018    0.0005 H         1 ATP         0.0742
     42 HO2'        0.9369   -2.0558    0.0825 H         1 ATP         0.4245
     43 H1'        -0.1998   -1.6319    2.6178 H         1 ATP         0.1193
     44 H8         -3.0609    0.0200    0.8250 H         1 ATP         0.0779
     45 HN61       -5.2046   -3.9433   -0.8775 H         1 ATP         0.4486
     46 HN62       -4.7849   -5.6332   -0.9625 H         1 ATP         0.4486
     47 H2         -0.6318   -5.9307    0.9993 H         1 ATP         0.0538
@<TRIPOS>BOND
     1    1    2 2
     2    1    3 1
     3    1    4 1
     4    1    8 1
     5    3   32 1
     6    4   33 1
     7    5    6 2
     8    5    7 1
     9    5    8 1
    10    5   12 1
    11    7   34 1
    12    9   10 2
    13    9   11 1
    14    9   12 1
    15    9   13 1
    16   11   35 1
    17   13   14 1
    18   14   15 1
    19   14   36 1
    20   14   37 1
    21   15   16 1
    22   15   17 1
    23   15   38 1
    24   16   21 1
    25   17   18 1
    26   17   19 1
    27   17   39 1
    28   18   40 1
    29   19   20 1
    30   19   21 1
    31   19   41 1
    32   20   42 1
    33   21   22 1
    34   21   43 1
    35   22   23 ar
    36   22   31 ar
    37   23   24 ar
    38   23   44 1
    39   24   25 ar
    40   25   26 ar
    41   25   31 ar
    42   26   27 1
    43   26   28 ar
    44   27   45 1
    45   27   46 1
    46   28   29 ar
    47   29   30 ar
    48   29   47 1
    49   30   31 ar
@<TRIPOS>SUBSTRUCTURE
     1 ATP         1 GROUP 0 A     ****
@<TRIPOS>MOLECULE
[[5-(6-aminopurin-9-yl)-3,4-dihydroxy-tetrahydrofuran-2-yl]methoxy-hydroxy-phosphoryl] phosphono hydrogen phosphate
   47    49     1     0     0
SMALL
USER_CHARGES

@<TRIPOS>ATOM
      1 PG         -5.9737    2.8596   -2.4198 P.3       1 ATP         1.8096
      2 O1G        -7.3572    3.3265   -2.0750 O.2       1 ATP        -0.7943
      3 O2G        -5.8467    1.2929   -2.7955 O.3       1 ATP        -0.7926
      4 O3G        -5.2914    3.6058   -3.6809 O.3       1 ATP        -0.7926
      5 PB         -4.3530    4.3772   -0.4772 P.3       1 ATP         1.9396
      6 O1B        -3.7136    5.4091   -1.3589 O.2       1 ATP        -0.8346
      7 O2B        -5.6462    4.8937    0.3438 O.3       1 ATP        -0.8243
      8 O3B        -4.8830    3.0575   -1.2438 O.3       1 ATP        -0.8110
      9 PA         -2.5920    4.4092    1.8815 P.3       1 ATP         1.8043
     10 O1A        -3.4583    5.1217    2.8791 O.2       1 ATP        -0.8218
     11 O2A        -1.5008    5.3534    1.1500 O.3       1 ATP        -0.8115
     12 O3A        -3.3958    3.7347    0.6531 O.3       1 ATP        -0.8294
     13 O5'        -1.7335    3.1724    2.4745 O.3       1 ATP        -0.5751
     14 C5'        -0.8811    2.4285    1.6206 C.3       1 ATP         0.1702
     15 C4'        -0.1994    1.3333    2.4288 C.3       1 ATP         0.1167
     16 O4'        -1.1285    0.2356    2.5840 O.3       1 ATP        -0.4221
     17 C3'         1.0324    0.7610    1.7344 C.3       1 ATP         0.1072
     18 O3'         1.9175    0.2377    2.7247 O.3       1 ATP        -0.5896
     19 C2'         0.4468   -0.3802    0.9263 C.3       1 ATP         0.0668
     20 O2'         1.3993   -1.3703    0.5961 O.3       1 ATP        -0.5764
     21 C1'        -0.6159   -0.9100    1.8769 C.3       1 ATP         0.4327
     22 N9         -1.7127   -1.6108    1.2130 N.pl3     1 ATP        -0.7057
     23 C8         -1.7712   -2.9546    0.9544 C.ar      1 ATP         0.5352
     24 N7         -2.8883   -3.2948    0.3462 N.2       1 ATP        -0.5411
     25 C5         -3.5834   -2.1202    0.2043 C.ar      1 ATP        -0.2315
     26 C6         -4.8225   -1.8251   -0.3554 C.ar      1 ATP         0.7606
     27 N6         -5.6154   -2.8394   -0.9189 N.pl3     1 ATP        -0.9553
     28 N1         -5.2589   -0.5425   -0.3507 N.ar      1 ATP        -0.7923
     29 C2         -4.4510    0.3913    0.2069 C.ar      1 ATP         0.6867
     30 N3         -3.2368    0.2296    0.7767 N.ar      1 ATP        -0.7305
     31 C4         -2.8684   -1.0596    0.7376 C.ar      1 ATP         0.5923
     32 HOG2       -6.3548    0.9446   -3.5587 H         1 ATP         0.5059
     33 HOG3       -4.3867    3.3440   -3.9550 H         1 ATP         0.5059
     34 HOB2       -6.4230    5.2261   -0.1543 H         1 ATP         0.5086
     35 HOA2       -0.8300    5.8144    1.6972 H         1 ATP         0.5057
     36 H5'1       -1.4796    1.9923    0.8143 H         1 ATP         0.0623
     37 H5'2       -0.1364    3.1037    1.1869 H         1 ATP         0.0623
     38 H4'         0.0402    1.7079    3.4343 H         1 ATP         0.1115
     39 H3'         1.5907    1.4859    1.1353 H         1 ATP         0.0700
     40 HO3'        2.1521    0.9800    3.3017 H         1 ATP         0.4307
     41 H2'        -0.0017    0.0018    0.0005 H         1 ATP         0.0742
     42 HO2'        0.9369   -2.0558    0.0825 H         1 ATP         0.4245
     43 H1'        -0.1998   -1.6319    2.6178 H         1 ATP         0.1193
     44 H8         -0.9745   -3.6312    1.2318 H         1 ATP         0.0779
     45 HN61       -5.2619   -3.7766   -0.9586 H         1 ATP         0.4486
     46 HN62       -6.4834   -2.5990   -1.3590 H         1 ATP         0.4486
     47 H2         -4.8317    1.4071    0.1930 H         1 ATP         0.0538
@<TRIPOS>BOND
     1    1    2 2
     2    1    3 1
     3    1    4 1
     4    1    8 1
     5    3   32 1
     6    4   33 1
     7    5    6 2
     8    5    7 1
     9    5    8 1
    10    5   12 1
    11    7   34 1
    12    9   10 2
    13    9   11 1
    14    9   12 1
    15    9   13 1
    16   11   35 1
    17   13   14 1
    18   14   15 1
    19   14   36 1
    20   14   37 1
    21   15   16 1
    22   15   17 1
    23   15   38 1
    24   16   21 1
    25   17   18 1
    26   17   19 1
    27   17   39 1
    28   18   40 1
    29   19   20 1
    30   19   21 1
    31   19   41 1
    32   20   42 1
    33   21   22 1
    34   21   43 1
    35   22   23 ar
    36   22   31 ar
    37   23   24 ar
    38   23   44 1
    39   24   25 ar
    40   25   26 ar
    41   25   31 ar
    42   26   27 1
    43   26   28 ar
    44   27   45 1
    45   27   46 1
    46   28   29 ar
    47   29   30 ar
    48   29   47 1
    49   30   31 ar
@<TRIPOS>SUBSTRUCTURE
     1 ATP         1 GROUP 0 A     ****
@<TRIPOS>MOLECULE
[[5-(6-aminopurin-9-yl)-3,4-dihydroxy-tetrahydrofuran-2-yl]methoxy-hydroxy-phosphoryl] phosphono hydrogen phosphate
   47    49     1     0     0
SMALL
USER_CHARGES

@<TRIPOS>ATOM
      1 PG         -5.3973    1.5790   -1.0595 P.3       1 ATP         1.8096
      2 O1G        -5.0204    1.8068   -2.4938 O.2       1 ATP        -0.7943
      3 O2G        -6.6765    0.6196   -0.8252 O.3       1 ATP        -0.7926
      4 O3G        -4.2474    0.9033   -0.1463 O.3       1 ATP        -0.7926
      5 PB         -4.9241    4.2537    0.0920 P.3       1 ATP         1.9396
      6 O1B        -4.4492    5.0188   -1.1081 O.2       1 ATP        -0.8346
      7 O2B        -5.8849    5.0860    1.0906 O.3       1 ATP        -0.8243
      8 O3B        -5.7738    2.9203   -0.2405 O.3       1 ATP        -0.8110
      9 PA         -2.5920    4.4092    1.8815 P.3       1 ATP         1.8043
     10 O1A        -3.0763    5.3978    2.9020 O.2       1 ATP        -0.8218
     11 O2A        -1.6526    5.0459    0.7285 O.3       1 ATP        -0.8115
     12 O3A        -3.7645    3.6699    1.0517 O.3       1 ATP        -0.8294
     13 O5'        -1.7335    3.1724    2.4745 O.3       1 ATP        -0.5751
     14 C5'        -0.8811    2.4285    1.6206 C.3       1 ATP         0.1702
     15 C4'        -0.1994    1.3333    2.4288 C.3       1 ATP         0.1167
     16 O4'        -1.1285    0.2356    2.5840 O.3       1 ATP        -0.4221
     17 C3'         1.0324    0.7610    1.7344 C.3       1 ATP         0.1072
     18 O3'         1.9175    0.2377    2.7247 O.3       1 ATP        -0.5896
     19 C2'         0.4468   -0.3802    0.9263 C.3       1 ATP         0.0668
     20 O2'         1.3993   -1.3703    0.5961 O.3       1 ATP        -0.5764
     21 C1'        -0.6159   -0.9100    1.8769 C.3       1 ATP         0.4327
     22 N9         -1.7127   -1.6108    1.2130 N.pl3     1 ATP        -0.7057
     23 C8         -3.0342   -1.2519    1.2439 C.ar      1 ATP         0.5352
     24 N7         -3.7886   -2.0756    0.5467 N.2       1 ATP        -0.5411
     25 C5         -2.9179   -3.0087    0.0426 C.ar      1 ATP        -0.2315
     26 C6         -3.1045   -4.1262   -0.7649 C.ar      1 ATP         0.7606
     27 N6         -4.3870   -4.4763   -1.2206 N.pl3     1 ATP        -0.9553
     28 N1         -2.0306   -4.8769   -1.1094 N.ar      1 ATP        -0.7923
     29 C2         -0.8199   -4.4895   -0.6402 C.ar      1 ATP         0.6867
     30 N3         -0.5140   -3.4335    0.1448 N.ar      1 ATP        -0.7305
     31 C4         -1.6202   -2.7371    0.4460 C.ar      1 ATP         0.5923
     32 HOG2       -6.6455   -0.3030   -1.1569 H         1 ATP         0.5059
     33 HOG3       -3.3896    1.3675   -0.0424 H         1 ATP         0.5059
     34 HOB2       -6.7306    5.4445    0.7464 H         1 ATP         0.5086
     35 HOA2       -0.8149    5.4849    0.9882 H         1 ATP         0.5057
     36 H5'1       -1.4796    1.9923    0.8143 H         1 ATP         0.0623
     37 H5'2       -0.1364    3.1037    1.1869 H         1 ATP         0.0623
     38 H4'         0.0402    1.7079    3.4343 H         1 ATP         0.1115
     39 H3'         1.5907    1.4859    1.1353 H         1 ATP         0.0700
     40 HO3'        2.6839   -0.1150    2.2479 H         1 ATP         0.4307
     41 H2'        -0.0017    0.0018    0.0005 H         1 ATP         0.0742
     42 HO2'        2.0953   -0.9375    0.0709 H         1 ATP         0.4245
     43 H1'        -0.1998   -1.6319    2.6178 H         1 ATP         0.1193
     44 H8         -3.3847   -0.3852    1.7876 H         1 ATP         0.0779
     45 HN61       -4.4940   -5.2574   -1.8397 H         1 ATP         0.4486
     46 HN62       -5.1668   -3.8868   -0.9985 H         1 ATP         0.4486
     47 H2          0.0171   -5.1133   -0.9354 H         1 ATP         0.0538
@<TRIPOS>BOND
     1    1    2 2
     2    1    3 1
     3    1    4 1
     4    1    8 1
     5    3   32 1
     6    4   33 1
     7    5    6 2
     8    5    7 1
     9    5    8 1
    10    5   12 1
    11    7   34 1
    12    9   10 2
    13    9   11 1
    14    9   12 1
    15    9   13 1
    16   11   35 1
    17   13   14 1
    18   14   15 1
    19   14   36 1
    20   14   37 1
    21   15   16 1
    22   15   17 1
    23   15   38 1
    24   16   21 1
    25   17   18 1
    26   17   19 1
    27   17   39 1
    28   18   40 1
    29   19   20 1
    30   19   21 1
    31   19   41 1
    32   20   42 1
    33   21   22 1
    34   21   43 1
    35   22   23 ar
    36   22   31 ar
    37   23   24 ar
    38   23   44 1
    39   24   25 ar
    40   25   26 ar
    41   25   31 ar
    42   26   27 1
    43   26   28 ar
    44   27   45 1
    45   27   46 1
    46   28   29 ar
    47   29   30 ar
    48   29   47 1
    49   30   31 ar
@<TRIPOS>SUBSTRUCTURE
     1 ATP         1 GROUP 0 A     ****
@<TRIPOS>MOLECULE
[[5-(6-aminopurin-9-yl)-3,4-dihydroxy-tetrahydrofuran-2-yl]methoxy-hydroxy-phosphoryl] phosphono hydrogen phosphate
   47    49     1     0     0
SMALL
USER_CHARGES

@<TRIPOS>ATOM
      1 PG         -5.2768    3.3339   -2.1391 P.3       1 ATP         1.8096
      2 O1G        -4.4899    4.5978   -2.3250 O.2       1 ATP        -0.7943
      3 O2G        -6.8364    3.5391   -1.7689 O.3       1 ATP        -0.7926
      4 O3G        -5.3204    2.3565   -3.4257 O.3       1 ATP        -0.7926
      5 PB         -4.5455    2.6017    0.6237 P.3       1 ATP         1.9396
      6 O1B        -5.8049    2.9358    1.3675 O.2       1 ATP        -0.8346
      7 O2B        -3.7956    1.2612    1.1273 O.3       1 ATP        -0.8243
      8 O3B        -4.7317    2.3676   -0.9640 O.3       1 ATP        -0.8110
      9 PA         -2.5920    4.4092    1.8815 P.3       1 ATP         1.8043
     10 O1A        -3.4583    5.1217    2.8791 O.2       1 ATP        -0.8218
     11 O2A        -1.5008    5.3534    1.1500 O.3       1 ATP        -0.8115
     12 O3A        -3.3958    3.7347    0.6531 O.3       1 ATP        -0.8294
     13 O5'        -1.7335    3.1724    2.4745 O.3       1 ATP        -0.5751
     14 C5'        -0.8811    2.4285    1.6206 C.3       1 ATP         0.1702
     15 C4'        -0.1994    1.3333    2.4288 C.3       1 ATP         0.1167
     16 O4'        -1.1285    0.2356    2.5840 O.3       1 ATP        -0.4221
     17 C3'         1.0324    0.7610    1.7344 C.3       1 ATP         0.1072
     18 O3'         1.9175    0.2377    2.7247 O.3       1 ATP        -0.5896
     19 C2'         0.4468   -0.3802    0.9263 C.3       1 ATP         0.0668
     20 O2'         1.3993   -1.3703    0.5961 O.3       1 ATP        -0.5764
     21 C1'        -0.6159   -0.9100    1.8769 C.3       1 ATP         0.4327
     22 N9         -1.7127   -1.6108    1.2130 N.pl3     1 ATP        -0.7057
     23 C8         -2.5476   -1.0844    0.2632 C.ar      1 ATP         0.5352
     24 N7         -3.4391   -1.9591   -0.1536 N.2       1 ATP        -0.5411
     25 C5         -3.1701   -3.1016    0.5574 C.ar      1 ATP        -0.2315
     26 C6         -3.7593   -4.3620    0.5656 C.ar      1 ATP         0.7606
     27 N6         -4.8512   -4.6493   -0.2712 N.pl3     1 ATP        -0.9553
     28 N1         -3.2659   -5.3144    1.3932 N.ar      1 ATP        -0.7923
     29 C2         -2.2122   -4.9785    2.1759 C.ar      1 ATP         0.6867
     30 N3         -1.5595   -3.7985    2.2572 N.ar      1 ATP        -0.7305
     31 C4         -2.0986   -2.9054    1.4140 C.ar      1 ATP         0.5923
     32 HOG2       -7.0703    4.0245   -0.9494 H         1 ATP         0.5059
     33 HOG3       -4.4780    2.0014   -3.7811 H         1 ATP         0.5059
     34 HOB2       -4.2737    0.4057    1.0860 H         1 ATP         0.5086
     35 HOA2       -1.8137    6.1203    0.6247 H         1 ATP         0.5057
     36 H5'1       -1.4796    1.9923    0.8143 H         1 ATP         0.0623
     37 H5'2       -0.1364    3.1037    1.1869 H         1 ATP         0.0623
     38 H4'         0.0402    1.7079    3.4343 H         1 ATP         0.1115
     39 H3'         1.5907    1.4859    1.1353 H         1 ATP         0.0700
     40 HO3'        2.6839   -0.1150    2.2479 H         1 ATP         0.4307
     41 H2'        -0.0017    0.0018    0.0005 H         1 ATP         0.0742
     42 HO2'        0.9369   -2.0558    0.0825 H         1 ATP         0.4245
     43 H1'        -0.1998   -1.6319    2.6178 H         1 ATP         0.1193
     44 H8         -2.4576   -0.0639   -0.0831 H         1 ATP         0.0779
     45 HN61       -5.2371   -3.9234   -0.8448 H         1 ATP         0.4486
     46 HN62       -5.2909   -5.5485   -0.2160 H         1 ATP         0.4486
     47 H2         -1.8433   -5.7650    2.8259 H         1 ATP         0.0538
@<TRIPOS>BOND
     1    1    2 2
     2    1    3 1
     3    1    4 1
     4    1    8 1
     5    3   32 1
     6    4   33 1
     7    5    6 2
     8    5    7 1
     9    5    8 1
    10    5   12 1
    11    7   34 1
    12    9   10 2
    13    9   11 1
    14    9   12 1
    15    9   13 1
    16   11   35 1
    17   13   14 1
    18   14   15 1
    19   14   36 1
    20   14   37 1
    21   15   16 1
    22   15   17 1
    23   15   38 1
    24   16   21 1
    25   17   18 1
    26   17   19 1
    27   17   39 1
    28   18   40 1
    29   19   20 1
    30   19   21 1
    31   19   41 1
    32   20   42 1
    33   21   22 1
    34   21   43 1
    35   22   23 ar
    36   22   31 ar
    37   23   24 ar
    38   23   44 1
    39   24   25 ar
    40   25   26 ar
    41   25   31 ar
    42   26   27 1
    43   26   28 ar
    44   27   45 1
    45   27   46 1
    46   28   29 ar
    47   29   30 ar
    48   29   47 1
    49   30   31 ar
@<TRIPOS>SUBSTRUCTURE
     1 ATP         1 GROUP 0 A     ****
@<TRIPOS>MOLECULE
[[5-(6-aminopurin-9-yl)-3,4-dihydroxy-tetrahydrofuran-2-yl]methoxy-hydroxy-phosphoryl] phosphono hydrogen phosphate
   47    49     1     0     0
SMALL
USER_CHARGES

@<TRIPOS>ATOM
      1 PG         -5.6152    1.3035   -1.8000 P.3       1 ATP         1.8096
      2 O1G        -7.0918    1.3796   -1.5454 O.2       1 ATP        -0.7943
      3 O2G        -4.9266   -0.1169   -1.4537 O.3       1 ATP        -0.7926
      4 O3G        -5.1669    1.5767   -3.3288 O.3       1 ATP        -0.7926
      5 PB         -4.5455    2.6017    0.6237 P.3       1 ATP         1.9396
      6 O1B        -5.8049    2.9358    1.3675 O.2       1 ATP        -0.8346
      7 O2B        -3.7956    1.2612    1.1273 O.3       1 ATP        -0.8243
      8 O3B        -4.7317    2.3676   -0.9640 O.3       1 ATP        -0.8110
      9 PA         -2.5920    4.4092    1.8815 P.3       1 ATP         1.8043
     10 O1A        -3.4583    5.1217    2.8791 O.2       1 ATP        -0.8218
     11 O2A        -1.5008    5.3534    1.1500 O.3       1 ATP        -0.8115
     12 O3A        -3.3958    3.7347    0.6531 O.3       1 ATP        -0.8294
     13 O5'        -1.7335    3.1724    2.4745 O.3       1 ATP        -0.5751
     14 C5'        -0.8811    2.4285    1.6206 C.3       1 ATP         0.1702
     15 C4'        -0.1994    1.3333    2.4288 C.3       1 ATP         0.1167
     16 O4'        -1.1285    0.2356    2.5840 O.3       1 ATP        -0.4221
     17 C3'         1.0324    0.7610    1.7344 C.3       1 ATP         0.1072
     18 O3'         1.9175    0.2377    2.7247 O.3       1 ATP        -0.5896
     19 C2'         0.4468   -0.3802    0.9263 C.3       1 ATP         0.0668
     20 O2'         1.3993   -1.3703    0.5961 O.3       1 ATP        -0.5764
     21 C1'        -0.6159   -0.9100    1.8769 C.3       1 ATP         0.4327
     22 N9         -1.7127   -1.6108    1.2130 N.pl3     1 ATP        -0.7057
     23 C8         -2.5476   -1.0844    0.2632 C.ar      1 ATP         0.5352
     24 N7         -3.4391   -1.9591   -0.1536 N.2       1 ATP        -0.5411
     25 C5         -3.1701   -3.1016    0.5574 C.ar      1 ATP        -0.2315
     26 C6         -3.7593   -4.3620    0.5656 C.ar      1 ATP         0.7606
     27 N6         -4.8512   -4.6493   -0.2712 N.pl3     1 ATP        -0.9553
     28 N1         -3.2659   -5.3144    1.3932 N.ar      1 ATP        -0.7923
     29 C2         -2.2122   -4.9785    2.1759 C.ar      1 ATP         0.6867
     30 N3         -1.5595   -3.7985    2.2572 N.ar      1 ATP        -0.7305
     31 C4         -2.0986   -2.9054    1.4140 C.ar      1 ATP         0.5923
     32 HOG2       -5.2363   -0.9216   -1.9212 H         1 ATP         0.5059
     33 HOG3       -5.3830    2.4407   -3.7398 H         1 ATP         0.5059
     34 HOB2       -3.4867    1.2109    2.0570 H         1 ATP         0.5086
     35 HOA2       -1.8137    6.1203    0.6247 H         1 ATP         0.5057
     36 H5'1       -1.4796    1.9923    0.8143 H         1 ATP         0.0623
     37 H5'2       -0.1364    3.1037    1.1869 H         1 ATP         0.0623
     38 H4'         0.0402    1.7079    3.4343 H         1 ATP         0.1115
     39 H3'         1.5907    1.4859    1.1353 H         1 ATP         0.0700
     40 HO3'        2.6839   -0.1150    2.2479 H         1 ATP         0.4307
     41 H2'        -0.0017    0.0018    0.0005 H         1 ATP         0.0742
     42 HO2'        2.0953   -0.9375    0.0709 H         1 ATP         0.4245
     43 H1'        -0.1998   -1.6319    2.6178 H         1 ATP         0.1193
     44 H8         -2.4576   -0.0639   -0.0831 H         1 ATP         0.0779
     45 HN61       -5.2371   -3.9234   -0.8448 H         1 ATP         0.4486
     46 HN62       -5.2909   -5.5485   -0.2160 H         1 ATP         0.4486
     47 H2         -1.8433   -5.7650    2.8259 H         1 ATP         0.0538
@<TRIPOS>BOND
     1    1    2 2
     2    1    3 1
     3    1    4 1
     4    1    8 1
     5    3   32 1
     6    4   33 1
     7    5    6 2
     8    5    7 1
     9    5    8 1
    10    5   12 1
    11    7   34 1
    12    9   10 2
    13    9   11 1
    14    9   12 1
    15    9   13 1
    16   11   35 1
    17   13   14 1
    18   14   15 1
    19   14   36 1
    20   14   37 1
    21   15   16 1
    22   15   17 1
    23   15   38 1
    24   16   21 1
    25   17   18 1
    26   17   19 1
    27   17   39 1
    28   18   40 1
    29   19   20 1
    30   19   21 1
    31   19   41 1
    32   20   42 1
    33   21   22 1
    34   21   43 1
    35   22   23 ar
    36   22   31 ar
    37   23   24 ar
    38   23   44 1
    39   24   25 ar
    40   25   26 ar
    41   25   31 ar
    42   26   27 1
    43   26   28 ar
    44   27   45 1
    45   27   46 1
    46   28   29 ar
    47   29   30 ar
    48   29   47 1
    49   30   31 ar
@<TRIPOS>SUBSTRUCTURE
     1 ATP         1 GROUP 0 A     ****
@<TRIPOS>MOLECULE
[[5-(6-aminopurin-9-yl)-3,4-dihydroxy-tetrahydrofuran-2-yl]methoxy-hydroxy-phosphoryl] phosphono hydrogen phosphate
   47    49     1     0     0
SMALL
USER_CHARGES

@<TRIPOS>ATOM
      1 PG         -3.1190    6.3972   -2.6510 P.3       1 ATP         1.8096
      2 O1G        -4.3447    7.2605   -2.7102 O.2       1 ATP        -0.7943
      3 O2G        -2.8583    5.4772   -3.9538 O.3       1 ATP        -0.7926
      4 O3G        -1.7252    7.1950   -2.4682 O.3       1 ATP        -0.7926
      5 PB         -4.0912    4.1271   -1.0369 P.3       1 ATP         1.9396
      6 O1B        -5.5121    4.5308   -0.7740 O.2       1 ATP        -0.8346
      7 O2B        -3.8993    3.0648   -2.2401 O.3       1 ATP        -0.8243
      8 O3B        -3.0981    5.3396   -1.4292 O.3       1 ATP        -0.8110
      9 PA         -2.9681    4.0282    1.6824 P.3       1 ATP         1.8043
     10 O1A        -4.1670    4.4037    2.5039 O.2       1 ATP        -0.8218
     11 O2A        -1.9498    5.2507    1.3896 O.3       1 ATP        -0.8115
     12 O3A        -3.3129    3.4594    0.2101 O.3       1 ATP        -0.8294
     13 O5'        -2.0398    2.8621    2.3123 O.3       1 ATP        -0.5751
     14 C5'        -0.8811    2.4285    1.6206 C.3       1 ATP         0.1702
     15 C4'        -0.1994    1.3333    2.4288 C.3       1 ATP         0.1167
     16 O4'        -1.1285    0.2356    2.5840 O.3       1 ATP        -0.4221
     17 C3'         1.0324    0.7610    1.7344 C.3       1 ATP         0.1072
     18 O3'         1.9175    0.2377    2.7247 O.3       1 ATP        -0.5896
     19 C2'         0.4468   -0.3802    0.9263 C.3       1 ATP         0.0668
     20 O2'         1.3993   -1.3703    0.5961 O.3       1 ATP        -0.5764
     21 C1'        -0.6159   -0.9100    1.8769 C.3       1 ATP         0.4327
     22 N9         -1.7127   -1.6108    1.2130 N.pl3     1 ATP        -0.7057
     23 C8         -2.0877   -2.9101    1.4304 C.ar      1 ATP         0.5352
     24 N7         -3.1152   -3.2613    0.6857 N.2       1 ATP        -0.5411
     25 C5         -3.4186   -2.1409   -0.0462 C.ar      1 ATP        -0.2315
     26 C6         -4.3953   -1.8809   -1.0023 C.ar      1 ATP         0.7606
     27 N6         -5.3118   -2.8767   -1.3812 N.pl3     1 ATP        -0.9553
     28 N1         -4.4538   -0.6507   -1.5667 N.ar      1 ATP        -0.7923
     29 C2         -3.5442    0.2679   -1.1609 C.ar      1 ATP         0.6867
     30 N3         -2.5561    0.1361   -0.2491 N.ar      1 ATP        -0.7305
     31 C4         -2.5568   -1.1019    0.2674 C.ar      1 ATP         0.5923
     32 HOG2       -2.7369    5.9109   -4.8252 H         1 ATP         0.5059
     33 HOG3       -1.5987    7.7536   -1.6720 H         1 ATP         0.5059
     34 HOB2       -2.9945    2.7593   -2.4637 H         1 ATP         0.5086
     35 HOA2       -1.5309    5.7107    2.1478 H         1 ATP         0.5057
     36 H5'1       -1.1763    2.0500    0.6366 H         1 ATP         0.0623
     37 H5'2       -0.2075    3.2812    1.4874 H         1 ATP         0.0623
     38 H4'         0.0402    1.7079    3.4343 H         1 ATP         0.1115
     39 H3'         1.5907    1.4859    1.1353 H         1 ATP         0.0700
     40 HO3'        2.1521    0.9800    3.3017 H         1 ATP         0.4307
     41 H2'        -0.0017    0.0018    0.0005 H         1 ATP         0.0742
     42 HO2'        0.9369   -2.0558    0.0825 H         1 ATP         0.4245
     43 H1'        -0.1998   -1.6319    2.6178 H         1 ATP         0.1193
     44 H8         -1.5778   -3.5473    2.1399 H         1 ATP         0.0779
     45 HN61       -5.2294   -3.7965   -0.9914 H         1 ATP         0.4486
     46 HN62       -5.9774   -2.6837   -2.1055 H         1 ATP         0.4486
     47 H2         -3.6201    1.2414   -1.6336 H         1 ATP         0.0538
@<TRIPOS>BOND
     1    1    2 2
     2    1    3 1
     3    1    4 1
     4    1    8 1
     5    3   32 1
     6    4   33 1
     7    5    6 2
     8    5    7 1
     9    5    8 1
    10    5   12 1
    11    7   34 1
    12    9   10 2
    13    9   11 1
    14    9   12 1
    15    9   13 1
    16   11   35 1
    17   13   14 1
    18   14   15 1
    19   14   36 1
    20   14   37 1
    21   15   16 1
    22   15   17 1
    23   15   38 1
    24   16   21 1
    25   17   18 1
    26   17   19 1
    27   17   39 1
    28   18   40 1
    29   19   20 1
    30   19   21 1
    31   19   41 1
    32   20   42 1
    33   21   22 1
    34   21   43 1
    35   22   23 ar
    36   22   31 ar
    37   23   24 ar
    38   23   44 1
    39   24   25 ar
    40   25   26 ar
    41   25   31 ar
    42   26   27 1
    43   26   28 ar
    44   27   45 1
    45   27   46 1
    46   28   29 ar
    47   29   30 ar
    48   29   47 1
    49   30   31 ar
@<TRIPOS>SUBSTRUCTURE
     1 ATP         1 GROUP 0 A     ****
@<TRIPOS>MOLECULE
[[5-(6-aminopurin-9-yl)-3,4-dihydroxy-tetrahydrofuran-2-yl]methoxy-hydroxy-phosphoryl] phosphono hydrogen phosphate
   47    49     1     0     0
SMALL
USER_CHARGES

@<TRIPOS>ATOM
      1 PG         -0.4026   -2.9139   -3.5012 P.3       1 ATP         1.8096
      2 O1G         0.9876   -3.0963   -4.0353 O.2       1 ATP        -0.7943
      3 O2G        -1.0861   -4.2426   -2.8856 O.3       1 ATP        -0.7926
      4 O3G        -0.5439   -1.8310   -2.3096 O.3       1 ATP        -0.7926
      5 PB         -1.5472   -1.0649   -5.4949 P.3       1 ATP         1.9396
      6 O1B        -0.3881   -0.8722   -6.4277 O.2       1 ATP        -0.8346
      7 O2B        -2.9908   -1.1567   -6.2165 O.3       1 ATP        -0.8243
      8 O3B        -1.4811   -2.4021   -4.5904 O.3       1 ATP        -0.8110
      9 PA         -1.9943    1.6687   -4.4986 P.3       1 ATP         1.8043
     10 O1A        -3.2495    2.0420   -5.2325 O.2       1 ATP        -0.8218
     11 O2A        -0.6342    2.2216   -5.1779 O.3       1 ATP        -0.8115
     12 O3A        -1.7370    0.0789   -4.3714 O.3       1 ATP        -0.8294
     13 O5'        -1.9200    2.1712   -2.9623 O.3       1 ATP        -0.5751
     14 C5'        -0.7794    1.8744   -2.1748 C.3       1 ATP         0.1702
     15 C4'        -0.9699    2.4597   -0.7819 C.3       1 ATP         0.1167
     16 O4'        -2.1475    1.8640   -0.2014 O.3       1 ATP        -0.4221
     17 C3'         0.1697    2.1347    0.1695 C.3       1 ATP         0.1072
     18 O3'         0.1809    3.0982    1.2223 O.3       1 ATP        -0.5896
     19 C2'        -0.2543    0.7880    0.7187 C.3       1 ATP         0.0668
     20 O2'         0.3606    0.4944    1.9582 O.3       1 ATP        -0.5764
     21 C1'        -1.7682    0.9516    0.8548 C.3       1 ATP         0.4327
     22 N9         -2.5926   -0.2553    0.7436 N.pl3     1 ATP        -0.7057
     23 C8         -2.2879   -1.3752    0.0161 C.ar      1 ATP         0.5352
     24 N7         -3.2214   -2.2987    0.1123 N.2       1 ATP        -0.5411
     25 C5         -4.1723   -1.7531    0.9377 C.ar      1 ATP        -0.2315
     26 C6         -5.3870   -2.2342    1.4159 C.ar      1 ATP         0.7606
     27 N6         -5.8433   -3.5142    1.0574 N.pl3     1 ATP        -0.9553
     28 N1         -6.1289   -1.4512    2.2356 N.ar      1 ATP        -0.7923
     29 C2         -5.6370   -0.2275    2.5461 C.ar      1 ATP         0.6867
     30 N3         -4.4810    0.3469    2.1476 N.ar      1 ATP        -0.7305
     31 C4         -3.7996   -0.4810    1.3417 C.ar      1 ATP         0.5923
     32 HOG2       -1.2118   -5.0242   -3.4647 H         1 ATP         0.5059
     33 HOG3       -0.2861   -0.9002   -2.4808 H         1 ATP         0.5059
     34 HOB2       -3.1507   -1.8714   -6.8690 H         1 ATP         0.5086
     35 HOA2       -0.4150    1.9451   -6.0931 H         1 ATP         0.5057
     36 H5'1       -0.6595    0.7876   -2.1196 H         1 ATP         0.0623
     37 H5'2        0.1048    2.3070   -2.6539 H         1 ATP         0.0623
     38 H4'        -1.1469    3.5409   -0.8523 H         1 ATP         0.1115
     39 H3'         1.1601    2.1310   -0.2934 H         1 ATP         0.0700
     40 HO3'        0.3098    3.9616    0.8017 H         1 ATP         0.4307
     41 H2'        -0.0024   -0.0091    0.0062 H         1 ATP         0.0742
     42 HO2'        0.0384   -0.3797    2.2403 H         1 ATP         0.4245
     43 H1'        -2.0584    1.4255    1.8301 H         1 ATP         0.1193
     44 H8         -1.3765   -1.4593   -0.5599 H         1 ATP         0.0779
     45 HN61       -5.3086   -4.0656    0.4134 H         1 ATP         0.4486
     46 HN62       -6.7426   -3.8233    1.3745 H         1 ATP         0.4486
     47 H2         -6.2570    0.3723    3.2040 H         1 ATP         0.0538
@<TRIPOS>BOND
     1    1    2 2
     2    1    3 1
     3    1    4 1
     4    1    8 1
     5    3   32 1
     6    4   33 1
     7    5    6 2
     8    5    7 1
     9    5    8 1
    10    5   12 1
    11    7   34 1
    12    9   10 2
    13    9   11 1
    14    9   12 1
    15    9   13 1
    16   11   35 1
    17   13   14 1
    18   14   15 1
    19   14   36 1
    20   14   37 1
    21   15   16 1
    22   15   17 1
    23   15   38 1
    24   16   21 1
    25   17   18 1
    26   17   19 1
    27   17   39 1
    28   18   40 1
    29   19   20 1
    30   19   21 1
    31   19   41 1
    32   20   42 1
    33   21   22 1
    34   21   43 1
    35   22   23 ar
    36   22   31 ar
    37   23   24 ar
    38   23   44 1
    39   24   25 ar
    40   25   26 ar
    41   25   31 ar
    42   26   27 1
    43   26   28 ar
    44   27   45 1
    45   27   46 1
    46   28   29 ar
    47   29   30 ar
    48   29   47 1
    49   30   31 ar
@<TRIPOS>SUBSTRUCTURE
     1 ATP         1 GROUP 0 A     ****
@<TRIPOS>MOLECULE
[[5-(6-aminopurin-9-yl)-3,4-dihydroxy-tetrahydrofuran-2-yl]methoxy-hydroxy-phosphoryl] phosphono hydrogen phosphate
   47    49     1     0     0
SMALL
USER_CHARGES

@<TRIPOS>ATOM
      1 PG         -7.2973    2.9213    1.6381 P.3       1 ATP         1.8096
      2 O1G        -7.4669    1.6571    2.4280 O.2       1 ATP        -0.7943
      3 O2G        -7.9430    2.9023    0.1568 O.3       1 ATP        -0.7926
      4 O3G        -7.9388    4.2433    2.3117 O.3       1 ATP        -0.7926
      5 PB         -4.5455    2.6017    0.6237 P.3       1 ATP         1.9396
      6 O1B        -4.1622    1.2730    1.2056 O.2       1 ATP        -0.8346
      7 O2B        -5.0179    2.5547   -0.9216 O.3       1 ATP        -0.8243
      8 O3B        -5.7617    3.3521    1.3774 O.3       1 ATP        -0.8110
      9 PA         -2.5920    4.4092    1.8815 P.3       1 ATP         1.8043
     10 O1A        -3.4583    5.1217    2.8791 O.2       1 ATP        -0.8218
     11 O2A        -1.5008    5.3534    1.1500 O.3       1 ATP        -0.8115
     12 O3A        -3.3958    3.7347    0.6531 O.3       1 ATP        -0.8294
     13 O5'        -1.7335    3.1724    2.4745 O.3       1 ATP        -0.5751
     14 C5'        -0.8811    2.4285    1.6206 C.3       1 ATP         0.1702
     15 C4'        -0.1994    1.3333    2.4288 C.3       1 ATP         0.1167
     16 O4'        -1.1285    0.2356    2.5840 O.3       1 ATP        -0.4221
     17 C3'         1.0324    0.7610    1.7344 C.3       1 ATP         0.1072
     18 O3'         1.9175    0.2377    2.7247 O.3       1 ATP        -0.5896
     19 C2'         0.4468   -0.3802    0.9263 C.3       1 ATP         0.0668
     20 O2'         1.3993   -1.3703    0.5961 O.3       1 ATP        -0.5764
     21 C1'        -0.6159   -0.9100    1.8769 C.3       1 ATP         0.4327
     22 N9         -1.7127   -1.6108    1.2130 N.pl3     1 ATP        -0.7057
     23 C8         -3.0342   -1.2519    1.2439 C.ar      1 ATP         0.5352
     24 N7         -3.7886   -2.0756    0.5467 N.2       1 ATP        -0.5411
     25 C5         -2.9179   -3.0087    0.0426 C.ar      1 ATP        -0.2315
     26 C6         -3.1045   -4.1262   -0.7649 C.ar      1 ATP         0.7606
     27 N6         -4.3870   -4.4763   -1.2206 N.pl3     1 ATP        -0.9553
     28 N1         -2.0306   -4.8769   -1.1094 N.ar      1 ATP        -0.7923
     29 C2         -0.8199   -4.4895   -0.6402 C.ar      1 ATP         0.6867
     30 N3         -0.5140   -3.4335    0.1448 N.ar      1 ATP        -0.7305
     31 C4         -1.6202   -2.7371    0.4460 C.ar      1 ATP         0.5923
     32 HOG2       -7.6275    2.2364   -0.4906 H         1 ATP         0.5059
     33 HOG3       -8.9026    4.2640    2.4926 H         1 ATP         0.5059
     34 HOB2       -4.3912    2.2236   -1.5996 H         1 ATP         0.5086
     35 HOA2       -1.8137    6.1203    0.6247 H         1 ATP         0.5057
     36 H5'1       -1.4796    1.9923    0.8143 H         1 ATP         0.0623
     37 H5'2       -0.1364    3.1037    1.1869 H         1 ATP         0.0623
     38 H4'         0.0402    1.7079    3.4343 H         1 ATP         0.1115
     39 H3'         1.5907    1.4859    1.1353 H         1 ATP         0.0700
     40 HO3'        2.6839   -0.1150    2.2479 H         1 ATP         0.4307
     41 H2'        -0.0017    0.0018    0.0005 H         1 ATP         0.0742
     42 HO2'        2.0953   -0.9375    0.0709 H         1 ATP         0.4245
     43 H1'        -0.1998   -1.6319    2.6178 H         1 ATP         0.1193
     44 H8         -3.3847   -0.3852    1.7876 H         1 ATP         0.0779
     45 HN61       -5.1798   -3.9409   -0.9211 H         1 ATP         0.4486
     46 HN62       -4.5065   -5.3114   -1.7621 H         1 ATP         0.4486
     47 H2          0.0171   -5.1133   -0.9354 H         1 ATP         0.0538
@<TRIPOS>BOND
     1    1    2 2
     2    1    3 1
     3    1    4 1
     4    1    8 1
     5    3   32 1
     6    4   33 1
     7    5    6 2
     8    5    7 1
     9    5    8 1
    10    5   12 1
    11    7   34 1
    12    9   10 2
    13    9   11 1
    14    9   12 1
    15    9   13 1
    16   11   35 1
    17   13   14 1
    18   14   15 1
    19   14   36 1
    20   14   37 1
    21   15   16 1
    22   15   17 1
    23   15   38 1
    24   16   21 1
    25   17   18 1
    26   17   19 1
    27   17   39 1
    28   18   40 1
    29   19   20 1
    30   19   21 1
    31   19   41 1
    32   20   42 1
    33   21   22 1
    34   21   43 1
    35   22   23 ar
    36   22   31 ar
    37   23   24 ar
    38   23   44 1
    39   24   25 ar
    40   25   26 ar
    41   25   31 ar
    42   26   27 1
    43   26   28 ar
    44   27   45 1
    45   27   46 1
    46   28   29 ar
    47   29   30 ar
    48   29   47 1
    49   30   31 ar
@<TRIPOS>SUBSTRUCTURE
     1 ATP         1 GROUP 0 A     ****
