@<TRIPOS>MOLECULE
[[[5-(6-amino-1,8-dihydropurine-6,8-diylium-7-id-9-yl)-3,4-dihydroxy-tetrahydrofuran-2-yl]methoxy-oxido-phosphoryl]oxy-hydroxy-phosphoryl] phosphate
   45    47     1     0     0
SMALL
USER_CHARGES

@<TRIPOS>ATOM
      1 PG          2.1482    6.3516   -1.3984 P.3       1 ATP        -1.1921
      2 O1G         3.2469    7.0542   -2.1892 O.co2     1 ATP         0.3195
      3 O2G         2.3620    6.3577    0.1118 O.co2     1 ATP         0.3195
      4 O3G         0.7315    6.7147   -1.8312 O.co2     1 ATP         0.3195
      5 PB          2.1993    4.0378   -3.2535 P.3       1 ATP        -0.9715
      6 O1B         0.8778    4.1987   -3.9450 O.2       1 ATP         0.2707
      7 O2B         3.4674    4.6379   -4.0572 O.3       1 ATP         0.0326
      8 O3B         2.3055    4.7636   -1.8119 O.3       1 ATP         0.4672
      9 PA          2.8924    1.2553   -3.9461 P.3       1 ATP        -1.1062
     10 O1A         4.1089    1.5584   -4.7935 O.co2     1 ATP         0.3195
     11 O2A         1.5730    0.8714   -4.5797 O.co2     1 ATP         0.3195
     12 O3A         2.6373    2.5148   -2.9404 O.3       1 ATP         0.4672
     13 O5'         3.2903    0.1346   -2.8241 O.3       1 ATP         0.1618
     14 C5'         2.2816   -0.2918   -1.9206 C.3       1 ATP         0.1504
     15 C4'         2.7248    0.0226   -0.4980 C.3       1 ATP         0.1111
     16 O4'         2.4697    1.4219   -0.2462 O.3       1 ATP        -0.1436
     17 C3'         1.9404   -0.7419    0.5596 C.3       1 ATP         0.1111
     18 O3'         2.7418   -0.8086    1.7389 O.3       1 ATP        -0.2728
     19 C2'         0.7477    0.1630    0.7858 C.3       1 ATP         0.1111
     20 O2'         0.1373   -0.0577    2.0407 O.3       1 ATP        -0.2728
     21 C1'         1.3733    1.5427    0.6747 C.3       1 ATP         0.2693
     22 N9          0.4520    2.5240    0.1767 N.pl3     1 ATP        -0.3222
     23 C8         -0.3054    2.4845   -1.1576 C.ar      1 ATP         0.1640
     24 N7         -1.0755    3.5806   -1.2691 N.2       1 ATP        -0.1640
     25 C5         -0.8043    4.2306   -0.0942 C.ar      1 ATP         0.0820
     26 C6         -1.4324    5.5335    0.2646 C.ar      1 ATP         0.1640
     27 N6         -2.2885    6.1054   -0.5675 N.pl3     1 ATP        -0.4916
     28 N1         -1.0537    6.0229    1.4478 N.pl3     1 ATP        -0.4390
     29 C2         -0.1096    5.3242    2.2908 C.ar      1 ATP         0.5691
     30 N3          0.4468    4.1904    1.9960 N.ar      1 ATP        -0.4283
     31 C4          0.0631    3.6855    0.7877 C.ar      1 ATP         0.2226
     32 HOB2        3.6752    4.2830   -4.9477 H         1 ATP         0.2010
     33 H5'1        1.3514    0.2330   -2.1577 H         1 ATP        -0.0393
     34 H5'2        2.1280   -1.3678   -2.0460 H         1 ATP        -0.0393
     35 H4'         3.8040   -0.1399   -0.4044 H         1 ATP        -0.0393
     36 H3'         1.6768   -1.7637    0.2732 H         1 ATP        -0.0393
     37 HO3'        2.2231   -1.2979    2.3952 H         1 ATP         0.2010
     38 H2'         0.0002   -0.0084   -0.0014 H         1 ATP        -0.0393
     39 HO2'       -0.6132    0.5577    2.1063 H         1 ATP         0.2010
     40 H1'         1.7718    1.9211    1.6015 H         1 ATP        -0.0393
     41 H8         -0.2991    1.7413   -1.9611 H         1 ATP         0.0000
     42 HN61       -2.5167    5.6603   -1.4447 H         1 ATP         0.2048
     43 HN62       -2.7159    6.9882   -0.3270 H         1 ATP         0.2048
     44 H2          0.1059    5.8491    3.2340 H         1 ATP        -0.1292
     45 H45        -1.4532    6.9099    1.7401 H         1 ATP         0.2048
@<TRIPOS>BOND
     1    1    2 2
     2    1    3 1
     3    1    4 1
     4    1    8 1
     5    5    6 2
     6    5    7 1
     7    5    8 1
     8    5   12 1
     9    7   32 1
    10    9   10 2
    11    9   11 1
    12    9   12 1
    13    9   13 1
    14   13   14 1
    15   14   15 1
    16   14   33 1
    17   14   34 1
    18   15   16 1
    19   15   17 1
    20   15   35 1
    21   16   21 1
    22   17   18 1
    23   17   19 1
    24   17   36 1
    25   18   37 1
    26   19   20 1
    27   19   21 1
    28   19   38 1
    29   20   39 1
    30   21   22 1
    31   21   40 1
    32   22   23 ar
    33   22   31 ar
    34   23   24 ar
    35   23   41 1
    36   24   25 ar
    37   25   26 ar
    38   25   31 ar
    39   26   27 1
    40   26   28 ar
    41   27   42 1
    42   27   43 1
    43   28   29 ar
    44   28   45 1
    45   29   30 ar
    46   29   44 1
    47   30   31 ar
@<TRIPOS>SUBSTRUCTURE
     1 ATP         1 GROUP 0 A     ****
@<TRIPOS>MOLECULE
[[[5-(6-amino-1,8-dihydropurine-6,8-diylium-7-id-9-yl)-3,4-dihydroxy-tetrahydrofuran-2-yl]methoxy-oxido-phosphoryl]oxy-hydroxy-phosphoryl] phosphate
   45    47     1     0     0
SMALL
USER_CHARGES

@<TRIPOS>ATOM
      1 PG         -2.3978    1.3816   -4.1681 P.3       1 ATP        -1.1921
      2 O1G        -3.1136    0.5077   -5.1929 O.co2     1 ATP         0.3195
      3 O2G        -3.1572    2.6477   -3.7854 O.co2     1 ATP         0.3195
      4 O3G        -1.8206    0.6156   -2.9823 O.co2     1 ATP         0.3195
      5 PB          0.1582    1.1489   -5.6549 P.3       1 ATP        -0.9715
      6 O1B        -0.2269   -0.1053   -6.3823 O.2       1 ATP         0.2707
      7 O2B         0.8595    2.2813   -6.5715 O.3       1 ATP         0.0326
      8 O3B        -1.0735    1.9446   -4.9721 O.3       1 ATP         0.4672
      9 PA          2.7180    0.3539   -4.4230 P.3       1 ATP        -1.1062
     10 O1A         3.6120    1.3016   -5.1928 O.co2     1 ATP         0.3195
     11 O2A         2.6578   -1.1184   -4.7669 O.co2     1 ATP         0.3195
     12 O3A         1.1997    0.9517   -4.4359 O.3       1 ATP         0.4672
     13 O5'         3.0213    0.5153   -2.8245 O.3       1 ATP         0.1618
     14 C5'         2.2816   -0.2918   -1.9206 C.3       1 ATP         0.1504
     15 C4'         2.7248    0.0226   -0.4980 C.3       1 ATP         0.1111
     16 O4'         2.4697    1.4219   -0.2462 O.3       1 ATP        -0.1436
     17 C3'         1.9404   -0.7419    0.5596 C.3       1 ATP         0.1111
     18 O3'         2.7418   -0.8086    1.7389 O.3       1 ATP        -0.2728
     19 C2'         0.7477    0.1630    0.7858 C.3       1 ATP         0.1111
     20 O2'         0.1373   -0.0577    2.0407 O.3       1 ATP        -0.2728
     21 C1'         1.3733    1.5427    0.6747 C.3       1 ATP         0.2693
     22 N9          0.4520    2.5240    0.1767 N.pl3     1 ATP        -0.3222
     23 C8          0.1798    2.8712   -1.2933 C.ar      1 ATP         0.1640
     24 N7         -0.7494    3.8400   -1.3610 N.2       1 ATP        -0.1640
     25 C5         -1.0173    4.0603   -0.0358 C.ar      1 ATP         0.0820
     26 C6         -2.0105    5.0717    0.4241 C.ar      1 ATP         0.1640
     27 N6         -2.6723    5.7982   -0.4628 N.pl3     1 ATP        -0.4916
     28 N1         -2.1445    5.1522    1.7502 N.pl3     1 ATP        -0.4390
     29 C2         -1.3755    4.3143    2.6426 C.ar      1 ATP         0.5691
     30 N3         -0.5075    3.4292    2.2616 N.ar      1 ATP        -0.4283
     31 C4         -0.3667    3.3425    0.9070 C.ar      1 ATP         0.2226
     32 HOB2        1.6975    2.0653   -7.0331 H         1 ATP         0.2010
     33 H5'1        1.2163   -0.0770   -2.0471 H         1 ATP        -0.0393
     34 H5'2        2.4655   -1.3443   -2.1563 H         1 ATP        -0.0393
     35 H4'         3.8040   -0.1399   -0.4044 H         1 ATP        -0.0393
     36 H3'         1.6768   -1.7637    0.2732 H         1 ATP        -0.0393
     37 HO3'        2.2231   -1.2979    2.3952 H         1 ATP         0.2010
     38 H2'         0.0002   -0.0084   -0.0014 H         1 ATP        -0.0393
     39 HO2'       -0.6132    0.5577    2.1063 H         1 ATP         0.2010
     40 H1'         1.7718    1.9211    1.6015 H         1 ATP        -0.0393
     41 H8          0.6089    2.4651   -2.2147 H         1 ATP         0.0000
     42 HN61       -2.5055    5.6680   -1.4503 H         1 ATP         0.2048
     43 HN62       -3.3462    6.4841   -0.1542 H         1 ATP         0.2048
     44 H2         -1.5932    4.4937    3.7066 H         1 ATP        -0.1292
     45 H45        -2.8098    5.8270    2.1160 H         1 ATP         0.2048
@<TRIPOS>BOND
     1    1    2 2
     2    1    3 1
     3    1    4 1
     4    1    8 1
     5    5    6 2
     6    5    7 1
     7    5    8 1
     8    5   12 1
     9    7   32 1
    10    9   10 2
    11    9   11 1
    12    9   12 1
    13    9   13 1
    14   13   14 1
    15   14   15 1
    16   14   33 1
    17   14   34 1
    18   15   16 1
    19   15   17 1
    20   15   35 1
    21   16   21 1
    22   17   18 1
    23   17   19 1
    24   17   36 1
    25   18   37 1
    26   19   20 1
    27   19   21 1
    28   19   38 1
    29   20   39 1
    30   21   22 1
    31   21   40 1
    32   22   23 ar
    33   22   31 ar
    34   23   24 ar
    35   23   41 1
    36   24   25 ar
    37   25   26 ar
    38   25   31 ar
    39   26   27 1
    40   26   28 ar
    41   27   42 1
    42   27   43 1
    43   28   29 ar
    44   28   45 1
    45   29   30 ar
    46   29   44 1
    47   30   31 ar
@<TRIPOS>SUBSTRUCTURE
     1 ATP         1 GROUP 0 A     ****
@<TRIPOS>MOLECULE
[[[5-(6-amino-1,8-dihydropurine-6,8-diylium-7-id-9-yl)-3,4-dihydroxy-tetrahydrofuran-2-yl]methoxy-oxido-phosphoryl]oxy-hydroxy-phosphoryl] phosphate
   45    47     1     0     0
SMALL
USER_CHARGES

@<TRIPOS>ATOM
      1 PG         -2.1505    1.4655   -3.8198 P.3       1 ATP        -1.1921
      2 O1G        -2.8548    0.2647   -4.4429 O.co2     1 ATP         0.3195
      3 O2G        -3.0451    2.6858   -3.6275 O.co2     1 ATP         0.3195
      4 O3G        -1.2835    1.1285   -2.6112 O.co2     1 ATP         0.3195
      5 PB          0.1582    1.1489   -5.6549 P.3       1 ATP        -0.9715
      6 O1B        -0.2269   -0.1053   -6.3823 O.2       1 ATP         0.2707
      7 O2B         0.8595    2.2813   -6.5715 O.3       1 ATP         0.0326
      8 O3B        -1.0735    1.9446   -4.9721 O.3       1 ATP         0.4672
      9 PA          2.7180    0.3539   -4.4230 P.3       1 ATP        -1.1062
     10 O1A         3.6120    1.3016   -5.1928 O.co2     1 ATP         0.3195
     11 O2A         2.6578   -1.1184   -4.7669 O.co2     1 ATP         0.3195
     12 O3A         1.1997    0.9517   -4.4359 O.3       1 ATP         0.4672
     13 O5'         3.0213    0.5153   -2.8245 O.3       1 ATP         0.1618
     14 C5'         2.2816   -0.2918   -1.9206 C.3       1 ATP         0.1504
     15 C4'         2.7248    0.0226   -0.4980 C.3       1 ATP         0.1111
     16 O4'         2.4697    1.4219   -0.2462 O.3       1 ATP        -0.1436
     17 C3'         1.9404   -0.7419    0.5596 C.3       1 ATP         0.1111
     18 O3'         2.7418   -0.8086    1.7389 O.3       1 ATP        -0.2728
     19 C2'         0.7477    0.1630    0.7858 C.3       1 ATP         0.1111
     20 O2'         0.1373   -0.0577    2.0407 O.3       1 ATP        -0.2728
     21 C1'         1.3733    1.5427    0.6747 C.3       1 ATP         0.2693
     22 N9          0.4520    2.5240    0.1767 N.pl3     1 ATP        -0.3222
     23 C8         -0.8593    2.9753    0.8343 C.ar      1 ATP         0.1640
     24 N7         -1.4457    3.9121    0.0693 N.2       1 ATP        -0.1640
     25 C5         -0.5581    4.0180   -0.9686 C.ar      1 ATP         0.0820
     26 C6         -0.7663    4.9543   -2.1092 C.ar      1 ATP         0.1640
     27 N6         -1.8429    5.7238   -2.1440 N.pl3     1 ATP        -0.4916
     28 N1          0.1993    4.9263   -3.0311 N.pl3     1 ATP        -0.4390
     29 C2          1.3416    4.0491   -2.9069 C.ar      1 ATP         0.5691
     30 N3          1.5401    3.2284   -1.9225 N.ar      1 ATP        -0.4283
     31 C4          0.5563    3.2529   -0.9772 C.ar      1 ATP         0.2226
     32 HOB2        1.6975    2.0653   -7.0331 H         1 ATP         0.2010
     33 H5'1        1.2163   -0.0770   -2.0471 H         1 ATP        -0.0393
     34 H5'2        2.4655   -1.3443   -2.1563 H         1 ATP        -0.0393
     35 H4'         3.8040   -0.1399   -0.4044 H         1 ATP        -0.0393
     36 H3'         1.6768   -1.7637    0.2732 H         1 ATP        -0.0393
     37 HO3'        2.2231   -1.2979    2.3952 H         1 ATP         0.2010
     38 H2'         0.0002   -0.0084   -0.0014 H         1 ATP        -0.0393
     39 HO2'       -0.1554   -0.9852    2.0577 H         1 ATP         0.2010
     40 H1'         1.7718    1.9211    1.6015 H         1 ATP        -0.0393
     41 H8         -1.3368    2.6590    1.7670 H         1 ATP         0.0000
     42 HN61       -2.5230    5.6776   -1.3990 H         1 ATP         0.2048
     43 HN62       -1.9865    6.3594   -2.9154 H         1 ATP         0.2048
     44 H2          2.0529    4.1368   -3.7423 H         1 ATP        -0.1292
     45 H45         0.1054    5.5465   -3.8301 H         1 ATP         0.2048
@<TRIPOS>BOND
     1    1    2 2
     2    1    3 1
     3    1    4 1
     4    1    8 1
     5    5    6 2
     6    5    7 1
     7    5    8 1
     8    5   12 1
     9    7   32 1
    10    9   10 2
    11    9   11 1
    12    9   12 1
    13    9   13 1
    14   13   14 1
    15   14   15 1
    16   14   33 1
    17   14   34 1
    18   15   16 1
    19   15   17 1
    20   15   35 1
    21   16   21 1
    22   17   18 1
    23   17   19 1
    24   17   36 1
    25   18   37 1
    26   19   20 1
    27   19   21 1
    28   19   38 1
    29   20   39 1
    30   21   22 1
    31   21   40 1
    32   22   23 ar
    33   22   31 ar
    34   23   24 ar
    35   23   41 1
    36   24   25 ar
    37   25   26 ar
    38   25   31 ar
    39   26   27 1
    40   26   28 ar
    41   27   42 1
    42   27   43 1
    43   28   29 ar
    44   28   45 1
    45   29   30 ar
    46   29   44 1
    47   30   31 ar
@<TRIPOS>SUBSTRUCTURE
     1 ATP         1 GROUP 0 A     ****
@<TRIPOS>MOLECULE
[[[5-(6-amino-1,8-dihydropurine-6,8-diylium-7-id-9-yl)-3,4-dihydroxy-tetrahydrofuran-2-yl]methoxy-oxido-phosphoryl]oxy-hydroxy-phosphoryl] phosphate
   45    47     1     0     0
SMALL
USER_CHARGES

@<TRIPOS>ATOM
      1 PG         -1.2806   -0.9376   -7.1957 P.3       1 ATP        -1.1921
      2 O1G        -2.6244   -0.4584   -6.6563 O.co2     1 ATP         0.3195
      3 O2G        -1.0895   -2.4500   -7.1465 O.co2     1 ATP         0.3195
      4 O3G        -0.8693   -0.2976   -8.5176 O.co2     1 ATP         0.3195
      5 PB          0.1582    1.1489   -5.6549 P.3       1 ATP        -0.9715
      6 O1B         0.6244    2.0485   -6.7612 O.2       1 ATP         0.2707
      7 O2B        -1.2009    1.6219   -4.9177 O.3       1 ATP         0.0326
      8 O3B        -0.1818   -0.3662   -6.1078 O.3       1 ATP         0.4672
      9 PA          2.7180    0.3539   -4.4230 P.3       1 ATP        -1.1062
     10 O1A         3.6120    1.3016   -5.1928 O.co2     1 ATP         0.3195
     11 O2A         2.6578   -1.1184   -4.7669 O.co2     1 ATP         0.3195
     12 O3A         1.1997    0.9517   -4.4359 O.3       1 ATP         0.4672
     13 O5'         3.0213    0.5153   -2.8245 O.3       1 ATP         0.1618
     14 C5'         2.2816   -0.2918   -1.9206 C.3       1 ATP         0.1504
     15 C4'         2.7248    0.0226   -0.4980 C.3       1 ATP         0.1111
     16 O4'         2.4697    1.4219   -0.2462 O.3       1 ATP        -0.1436
     17 C3'         1.9404   -0.7419    0.5596 C.3       1 ATP         0.1111
     18 O3'         2.7418   -0.8086    1.7389 O.3       1 ATP        -0.2728
     19 C2'         0.7477    0.1630    0.7858 C.3       1 ATP         0.1111
     20 O2'         0.1373   -0.0577    2.0407 O.3       1 ATP        -0.2728
     21 C1'         1.3733    1.5427    0.6747 C.3       1 ATP         0.2693
     22 N9          0.4520    2.5240    0.1767 N.pl3     1 ATP        -0.3222
     23 C8          0.1798    2.8712   -1.2933 C.ar      1 ATP         0.1640
     24 N7         -0.7494    3.8400   -1.3610 N.2       1 ATP        -0.1640
     25 C5         -1.0173    4.0603   -0.0358 C.ar      1 ATP         0.0820
     26 C6         -2.0105    5.0717    0.4241 C.ar      1 ATP         0.1640
     27 N6         -2.6723    5.7982   -0.4628 N.pl3     1 ATP        -0.4916
     28 N1         -2.1445    5.1522    1.7502 N.pl3     1 ATP        -0.4390
     29 C2         -1.3755    4.3143    2.6426 C.ar      1 ATP         0.5691
     30 N3         -0.5075    3.4292    2.2616 N.ar      1 ATP        -0.4283
     31 C4         -0.3667    3.3425    0.9070 C.ar      1 ATP         0.2226
     32 HOB2       -1.2187    2.4954   -4.4718 H         1 ATP         0.2010
     33 H5'1        1.2163   -0.0770   -2.0471 H         1 ATP        -0.0393
     34 H5'2        2.4655   -1.3443   -2.1563 H         1 ATP        -0.0393
     35 H4'         3.8040   -0.1399   -0.4044 H         1 ATP        -0.0393
     36 H3'         1.6768   -1.7637    0.2732 H         1 ATP        -0.0393
     37 HO3'        2.2231   -1.2979    2.3952 H         1 ATP         0.2010
     38 H2'         0.0002   -0.0084   -0.0014 H         1 ATP        -0.0393
     39 HO2'       -0.6132    0.5577    2.1063 H         1 ATP         0.2010
     40 H1'         1.7718    1.9211    1.6015 H         1 ATP        -0.0393
     41 H8          0.6089    2.4651   -2.2147 H         1 ATP         0.0000
     42 HN61       -2.5055    5.6680   -1.4503 H         1 ATP         0.2048
     43 HN62       -3.3462    6.4841   -0.1542 H         1 ATP         0.2048
     44 H2         -1.5932    4.4937    3.7066 H         1 ATP        -0.1292
     45 H45        -2.8098    5.8270    2.1160 H         1 ATP         0.2048
@<TRIPOS>BOND
     1    1    2 2
     2    1    3 1
     3    1    4 1
     4    1    8 1
     5    5    6 2
     6    5    7 1
     7    5    8 1
     8    5   12 1
     9    7   32 1
    10    9   10 2
    11    9   11 1
    12    9   12 1
    13    9   13 1
    14   13   14 1
    15   14   15 1
    16   14   33 1
    17   14   34 1
    18   15   16 1
    19   15   17 1
    20   15   35 1
    21   16   21 1
    22   17   18 1
    23   17   19 1
    24   17   36 1
    25   18   37 1
    26   19   20 1
    27   19   21 1
    28   19   38 1
    29   20   39 1
    30   21   22 1
    31   21   40 1
    32   22   23 ar
    33   22   31 ar
    34   23   24 ar
    35   23   41 1
    36   24   25 ar
    37   25   26 ar
    38   25   31 ar
    39   26   27 1
    40   26   28 ar
    41   27   42 1
    42   27   43 1
    43   28   29 ar
    44   28   45 1
    45   29   30 ar
    46   29   44 1
    47   30   31 ar
@<TRIPOS>SUBSTRUCTURE
     1 ATP         1 GROUP 0 A     ****
@<TRIPOS>MOLECULE
[[[5-(6-amino-1,8-dihydropurine-6,8-diylium-7-id-9-yl)-3,4-dihydroxy-tetrahydrofuran-2-yl]methoxy-oxido-phosphoryl]oxy-hydroxy-phosphoryl] phosphate
   45    47     1     0     0
SMALL
USER_CHARGES

@<TRIPOS>ATOM
      1 PG          4.2330   -4.4424   -4.4738 P.3       1 ATP        -1.1921
      2 O1G         4.7886   -4.6401   -3.0672 O.co2     1 ATP         0.3195
      3 O2G         4.6645   -5.5107   -5.4733 O.co2     1 ATP         0.3195
      4 O3G         2.7463   -4.1053   -4.5210 O.co2     1 ATP         0.3195
      5 PB          4.9573   -1.5665   -4.4286 P.3       1 ATP        -0.9715
      6 O1B         5.4763   -1.4261   -3.0281 O.2       1 ATP         0.2707
      7 O2B         5.7750   -0.7318   -5.5461 O.3       1 ATP         0.0326
      8 O3B         4.9776   -3.0744   -5.0135 O.3       1 ATP         0.4672
      9 PA          2.7180    0.3539   -4.4230 P.3       1 ATP        -1.1062
     10 O1A         1.2273    0.1956   -4.6287 O.co2     1 ATP         0.3195
     11 O2A         3.5063    1.3990   -5.1820 O.co2     1 ATP         0.3195
     12 O3A         3.4276   -1.0977   -4.6517 O.3       1 ATP         0.4672
     13 O5'         3.0213    0.5153   -2.8245 O.3       1 ATP         0.1618
     14 C5'         2.2816   -0.2918   -1.9206 C.3       1 ATP         0.1504
     15 C4'         2.7248    0.0226   -0.4980 C.3       1 ATP         0.1111
     16 O4'         2.4697    1.4219   -0.2462 O.3       1 ATP        -0.1436
     17 C3'         1.9404   -0.7419    0.5596 C.3       1 ATP         0.1111
     18 O3'         2.7418   -0.8086    1.7389 O.3       1 ATP        -0.2728
     19 C2'         0.7477    0.1630    0.7858 C.3       1 ATP         0.1111
     20 O2'         0.1373   -0.0577    2.0407 O.3       1 ATP        -0.2728
     21 C1'         1.3733    1.5427    0.6747 C.3       1 ATP         0.2693
     22 N9          0.4520    2.5240    0.1767 N.pl3     1 ATP        -0.3222
     23 C8          0.1798    2.8712   -1.2933 C.ar      1 ATP         0.1640
     24 N7         -0.7494    3.8400   -1.3610 N.2       1 ATP        -0.1640
     25 C5         -1.0173    4.0603   -0.0358 C.ar      1 ATP         0.0820
     26 C6         -2.0105    5.0717    0.4241 C.ar      1 ATP         0.1640
     27 N6         -2.6723    5.7982   -0.4628 N.pl3     1 ATP        -0.4916
     28 N1         -2.1445    5.1522    1.7502 N.pl3     1 ATP        -0.4390
     29 C2         -1.3755    4.3143    2.6426 C.ar      1 ATP         0.5691
     30 N3         -0.5075    3.4292    2.2616 N.ar      1 ATP        -0.4283
     31 C4         -0.3667    3.3425    0.9070 C.ar      1 ATP         0.2226
     32 HOB2        5.8311    0.2439   -5.4619 H         1 ATP         0.2010
     33 H5'1        1.2163   -0.0770   -2.0471 H         1 ATP        -0.0393
     34 H5'2        2.4655   -1.3443   -2.1563 H         1 ATP        -0.0393
     35 H4'         3.8040   -0.1399   -0.4044 H         1 ATP        -0.0393
     36 H3'         1.6768   -1.7637    0.2732 H         1 ATP        -0.0393
     37 HO3'        2.2231   -1.2979    2.3952 H         1 ATP         0.2010
     38 H2'         0.0002   -0.0084   -0.0014 H         1 ATP        -0.0393
     39 HO2'       -0.6132    0.5577    2.1063 H         1 ATP         0.2010
     40 H1'         1.7718    1.9211    1.6015 H         1 ATP        -0.0393
     41 H8          0.6089    2.4651   -2.2147 H         1 ATP         0.0000
     42 HN61       -2.5055    5.6680   -1.4503 H         1 ATP         0.2048
     43 HN62       -3.3462    6.4841   -0.1542 H         1 ATP         0.2048
     44 H2         -1.5932    4.4937    3.7066 H         1 ATP        -0.1292
     45 H45        -2.8098    5.8270    2.1160 H         1 ATP         0.2048
@<TRIPOS>BOND
     1    1    2 2
     2    1    3 1
     3    1    4 1
     4    1    8 1
     5    5    6 2
     6    5    7 1
     7    5    8 1
     8    5   12 1
     9    7   32 1
    10    9   10 2
    11    9   11 1
    12    9   12 1
    13    9   13 1
    14   13   14 1
    15   14   15 1
    16   14   33 1
    17   14   34 1
    18   15   16 1
    19   15   17 1
    20   15   35 1
    21   16   21 1
    22   17   18 1
    23   17   19 1
    24   17   36 1
    25   18   37 1
    26   19   20 1
    27   19   21 1
    28   19   38 1
    29   20   39 1
    30   21   22 1
    31   21   40 1
    32   22   23 ar
    33   22   31 ar
    34   23   24 ar
    35   23   41 1
    36   24   25 ar
    37   25   26 ar
    38   25   31 ar
    39   26   27 1
    40   26   28 ar
    41   27   42 1
    42   27   43 1
    43   28   29 ar
    44   28   45 1
    45   29   30 ar
    46   29   44 1
    47   30   31 ar
@<TRIPOS>SUBSTRUCTURE
     1 ATP         1 GROUP 0 A     ****
@<TRIPOS>MOLECULE
[[[5-(6-amino-1,8-dihydropurine-6,8-diylium-7-id-9-yl)-3,4-dihydroxy-tetrahydrofuran-2-yl]methoxy-oxido-phosphoryl]oxy-hydroxy-phosphoryl] phosphate
   45    47     1     0     0
SMALL
USER_CHARGES

@<TRIPOS>ATOM
      1 PG          1.2093    3.6346   -6.8855 P.3       1 ATP        -1.1921
      2 O1G        -0.2033    4.1736   -7.0865 O.co2     1 ATP         0.3195
      3 O2G         2.1131    3.7766   -8.1059 O.co2     1 ATP         0.3195
      4 O3G         1.8611    4.0534   -5.5719 O.co2     1 ATP         0.3195
      5 PB          0.1582    1.1489   -5.6549 P.3       1 ATP        -0.9715
      6 O1B        -1.1687    1.7394   -5.2792 O.2       1 ATP         0.2707
      7 O2B         0.0854   -0.3182   -6.3306 O.3       1 ATP         0.0326
      8 O3B         1.0025    2.0060   -6.7360 O.3       1 ATP         0.4672
      9 PA          2.7180    0.3539   -4.4230 P.3       1 ATP        -1.1062
     10 O1A         3.6120    1.3016   -5.1928 O.co2     1 ATP         0.3195
     11 O2A         2.6578   -1.1184   -4.7669 O.co2     1 ATP         0.3195
     12 O3A         1.1997    0.9517   -4.4359 O.3       1 ATP         0.4672
     13 O5'         3.0213    0.5153   -2.8245 O.3       1 ATP         0.1618
     14 C5'         2.2816   -0.2918   -1.9206 C.3       1 ATP         0.1504
     15 C4'         2.7248    0.0226   -0.4980 C.3       1 ATP         0.1111
     16 O4'         2.4697    1.4219   -0.2462 O.3       1 ATP        -0.1436
     17 C3'         1.9404   -0.7419    0.5596 C.3       1 ATP         0.1111
     18 O3'         2.7418   -0.8086    1.7389 O.3       1 ATP        -0.2728
     19 C2'         0.7477    0.1630    0.7858 C.3       1 ATP         0.1111
     20 O2'         0.1373   -0.0577    2.0407 O.3       1 ATP        -0.2728
     21 C1'         1.3733    1.5427    0.6747 C.3       1 ATP         0.2693
     22 N9          0.4520    2.5240    0.1767 N.pl3     1 ATP        -0.3222
     23 C8          0.1798    2.8712   -1.2933 C.ar      1 ATP         0.1640
     24 N7         -0.7494    3.8400   -1.3610 N.2       1 ATP        -0.1640
     25 C5         -1.0173    4.0603   -0.0358 C.ar      1 ATP         0.0820
     26 C6         -2.0105    5.0717    0.4241 C.ar      1 ATP         0.1640
     27 N6         -2.6723    5.7982   -0.4628 N.pl3     1 ATP        -0.4916
     28 N1         -2.1445    5.1522    1.7502 N.pl3     1 ATP        -0.4390
     29 C2         -1.3755    4.3143    2.6426 C.ar      1 ATP         0.5691
     30 N3         -0.5075    3.4292    2.2616 N.ar      1 ATP        -0.4283
     31 C4         -0.3667    3.3425    0.9070 C.ar      1 ATP         0.2226
     32 HOB2       -0.3125   -1.0556   -5.8206 H         1 ATP         0.2010
     33 H5'1        1.2163   -0.0770   -2.0471 H         1 ATP        -0.0393
     34 H5'2        2.4655   -1.3443   -2.1563 H         1 ATP        -0.0393
     35 H4'         3.8040   -0.1399   -0.4044 H         1 ATP        -0.0393
     36 H3'         1.6768   -1.7637    0.2732 H         1 ATP        -0.0393
     37 HO3'        2.2231   -1.2979    2.3952 H         1 ATP         0.2010
     38 H2'         0.0002   -0.0084   -0.0014 H         1 ATP        -0.0393
     39 HO2'       -0.6132    0.5577    2.1063 H         1 ATP         0.2010
     40 H1'         1.7718    1.9211    1.6015 H         1 ATP        -0.0393
     41 H8          0.6089    2.4651   -2.2147 H         1 ATP         0.0000
     42 HN61       -2.5055    5.6680   -1.4503 H         1 ATP         0.2048
     43 HN62       -3.3462    6.4841   -0.1542 H         1 ATP         0.2048
     44 H2         -1.5932    4.4937    3.7066 H         1 ATP        -0.1292
     45 H45        -2.8098    5.8270    2.1160 H         1 ATP         0.2048
@<TRIPOS>BOND
     1    1    2 2
     2    1    3 1
     3    1    4 1
     4    1    8 1
     5    5    6 2
     6    5    7 1
     7    5    8 1
     8    5   12 1
     9    7   32 1
    10    9   10 2
    11    9   11 1
    12    9   12 1
    13    9   13 1
    14   13   14 1
    15   14   15 1
    16   14   33 1
    17   14   34 1
    18   15   16 1
    19   15   17 1
    20   15   35 1
    21   16   21 1
    22   17   18 1
    23   17   19 1
    24   17   36 1
    25   18   37 1
    26   19   20 1
    27   19   21 1
    28   19   38 1
    29   20   39 1
    30   21   22 1
    31   21   40 1
    32   22   23 ar
    33   22   31 ar
    34   23   24 ar
    35   23   41 1
    36   24   25 ar
    37   25   26 ar
    38   25   31 ar
    39   26   27 1
    40   26   28 ar
    41   27   42 1
    42   27   43 1
    43   28   29 ar
    44   28   45 1
    45   29   30 ar
    46   29   44 1
    47   30   31 ar
@<TRIPOS>SUBSTRUCTURE
     1 ATP         1 GROUP 0 A     ****
@<TRIPOS>MOLECULE
[[[5-(6-amino-1,8-dihydropurine-6,8-diylium-7-id-9-yl)-3,4-dihydroxy-tetrahydrofuran-2-yl]methoxy-oxido-phosphoryl]oxy-hydroxy-phosphoryl] phosphate
   45    47     1     0     0
SMALL
USER_CHARGES

@<TRIPOS>ATOM
      1 PG         -1.0253    3.5132   -6.2809 P.3       1 ATP        -1.1921
      2 O1G        -0.1264    4.2079   -7.2986 O.co2     1 ATP         0.3195
      3 O2G        -1.6013    4.4421   -5.2171 O.co2     1 ATP         0.3195
      4 O3G        -2.0421    2.5542   -6.8913 O.co2     1 ATP         0.3195
      5 PB          0.9435    1.3214   -5.9376 P.3       1 ATP        -0.9715
      6 O1B         0.2138    0.1803   -6.5827 O.2       1 ATP         0.2707
      7 O2B         2.0216    2.0650   -6.8857 O.3       1 ATP         0.0326
      8 O3B        -0.0001    2.5361   -5.4372 O.3       1 ATP         0.4672
      9 PA          3.0383   -0.0994   -4.4226 P.3       1 ATP        -1.1062
     10 O1A         4.2309    0.4256   -5.1920 O.co2     1 ATP         0.3195
     11 O2A         2.5243   -1.5059   -4.6397 O.co2     1 ATP         0.3195
     12 O3A         1.7977    0.9421   -4.6200 O.3       1 ATP         0.4672
     13 O5'         3.2903    0.1346   -2.8241 O.3       1 ATP         0.1618
     14 C5'         2.2816   -0.2918   -1.9206 C.3       1 ATP         0.1504
     15 C4'         2.7248    0.0226   -0.4980 C.3       1 ATP         0.1111
     16 O4'         2.4697    1.4219   -0.2462 O.3       1 ATP        -0.1436
     17 C3'         1.9404   -0.7419    0.5596 C.3       1 ATP         0.1111
     18 O3'         2.7418   -0.8086    1.7389 O.3       1 ATP        -0.2728
     19 C2'         0.7477    0.1630    0.7858 C.3       1 ATP         0.1111
     20 O2'         0.1373   -0.0577    2.0407 O.3       1 ATP        -0.2728
     21 C1'         1.3733    1.5427    0.6747 C.3       1 ATP         0.2693
     22 N9          0.4520    2.5240    0.1767 N.pl3     1 ATP        -0.3222
     23 C8          0.1798    2.8712   -1.2933 C.ar      1 ATP         0.1640
     24 N7         -0.7494    3.8400   -1.3610 N.2       1 ATP        -0.1640
     25 C5         -1.0173    4.0603   -0.0358 C.ar      1 ATP         0.0820
     26 C6         -2.0105    5.0717    0.4241 C.ar      1 ATP         0.1640
     27 N6         -2.6723    5.7982   -0.4628 N.pl3     1 ATP        -0.4916
     28 N1         -2.1445    5.1522    1.7502 N.pl3     1 ATP        -0.4390
     29 C2         -1.3755    4.3143    2.6426 C.ar      1 ATP         0.5691
     30 N3         -0.5075    3.4292    2.2616 N.ar      1 ATP        -0.4283
     31 C4         -0.3667    3.3425    0.9070 C.ar      1 ATP         0.2226
     32 HOB2        2.7687    1.5454   -7.2519 H         1 ATP         0.2010
     33 H5'1        1.3514    0.2330   -2.1577 H         1 ATP        -0.0393
     34 H5'2        2.1280   -1.3678   -2.0460 H         1 ATP        -0.0393
     35 H4'         3.8040   -0.1399   -0.4044 H         1 ATP        -0.0393
     36 H3'         1.6768   -1.7637    0.2732 H         1 ATP        -0.0393
     37 HO3'        2.2231   -1.2979    2.3952 H         1 ATP         0.2010
     38 H2'         0.0002   -0.0084   -0.0014 H         1 ATP        -0.0393
     39 HO2'       -0.6132    0.5577    2.1063 H         1 ATP         0.2010
     40 H1'         1.7718    1.9211    1.6015 H         1 ATP        -0.0393
     41 H8          0.6089    2.4651   -2.2147 H         1 ATP         0.0000
     42 HN61       -2.5055    5.6680   -1.4503 H         1 ATP         0.2048
     43 HN62       -3.3462    6.4841   -0.1542 H         1 ATP         0.2048
     44 H2         -1.5932    4.4937    3.7066 H         1 ATP        -0.1292
     45 H45        -2.8098    5.8270    2.1160 H         1 ATP         0.2048
@<TRIPOS>BOND
     1    1    2 2
     2    1    3 1
     3    1    4 1
     4    1    8 1
     5    5    6 2
     6    5    7 1
     7    5    8 1
     8    5   12 1
     9    7   32 1
    10    9   10 2
    11    9   11 1
    12    9   12 1
    13    9   13 1
    14   13   14 1
    15   14   15 1
    16   14   33 1
    17   14   34 1
    18   15   16 1
    19   15   17 1
    20   15   35 1
    21   16   21 1
    22   17   18 1
    23   17   19 1
    24   17   36 1
    25   18   37 1
    26   19   20 1
    27   19   21 1
    28   19   38 1
    29   20   39 1
    30   21   22 1
    31   21   40 1
    32   22   23 ar
    33   22   31 ar
    34   23   24 ar
    35   23   41 1
    36   24   25 ar
    37   25   26 ar
    38   25   31 ar
    39   26   27 1
    40   26   28 ar
    41   27   42 1
    42   27   43 1
    43   28   29 ar
    44   28   45 1
    45   29   30 ar
    46   29   44 1
    47   30   31 ar
@<TRIPOS>SUBSTRUCTURE
     1 ATP         1 GROUP 0 A     ****
@<TRIPOS>MOLECULE
[[[5-(6-amino-1,8-dihydropurine-6,8-diylium-7-id-9-yl)-3,4-dihydroxy-tetrahydrofuran-2-yl]methoxy-oxido-phosphoryl]oxy-hydroxy-phosphoryl] phosphate
   45    47     1     0     0
SMALL
USER_CHARGES

@<TRIPOS>ATOM
      1 PG          5.7206   -3.6646   -4.7952 P.3       1 ATP        -1.1921
      2 O1G         6.6941   -3.2627   -5.8984 O.co2     1 ATP         0.3195
      3 O2G         5.6980   -5.1597   -4.4942 O.co2     1 ATP         0.3195
      4 O3G         5.7737   -2.7775   -3.5557 O.co2     1 ATP         0.3195
      5 PB          3.5769   -1.9959   -5.9860 P.3       1 ATP        -0.9715
      6 O1B         4.3171   -1.3484   -7.1189 O.2       1 ATP         0.2707
      7 O2B         2.0556   -2.4275   -6.3231 O.3       1 ATP         0.0326
      8 O3B         4.2332   -3.3707   -5.4423 O.3       1 ATP         0.4672
      9 PA          2.7180    0.3539   -4.4230 P.3       1 ATP        -1.1062
     10 O1A         1.2273    0.1956   -4.6287 O.co2     1 ATP         0.3195
     11 O2A         3.5063    1.3990   -5.1820 O.co2     1 ATP         0.3195
     12 O3A         3.4276   -1.0977   -4.6517 O.3       1 ATP         0.4672
     13 O5'         3.0213    0.5153   -2.8245 O.3       1 ATP         0.1618
     14 C5'         2.2816   -0.2918   -1.9206 C.3       1 ATP         0.1504
     15 C4'         2.7248    0.0226   -0.4980 C.3       1 ATP         0.1111
     16 O4'         2.4697    1.4219   -0.2462 O.3       1 ATP        -0.1436
     17 C3'         1.9404   -0.7419    0.5596 C.3       1 ATP         0.1111
     18 O3'         2.7418   -0.8086    1.7389 O.3       1 ATP        -0.2728
     19 C2'         0.7477    0.1630    0.7858 C.3       1 ATP         0.1111
     20 O2'         0.1373   -0.0577    2.0407 O.3       1 ATP        -0.2728
     21 C1'         1.3733    1.5427    0.6747 C.3       1 ATP         0.2693
     22 N9          0.4520    2.5240    0.1767 N.pl3     1 ATP        -0.3222
     23 C8          0.1798    2.8712   -1.2933 C.ar      1 ATP         0.1640
     24 N7         -0.7494    3.8400   -1.3610 N.2       1 ATP        -0.1640
     25 C5         -1.0173    4.0603   -0.0358 C.ar      1 ATP         0.0820
     26 C6         -2.0105    5.0717    0.4241 C.ar      1 ATP         0.1640
     27 N6         -2.6723    5.7982   -0.4628 N.pl3     1 ATP        -0.4916
     28 N1         -2.1445    5.1522    1.7502 N.pl3     1 ATP        -0.4390
     29 C2         -1.3755    4.3143    2.6426 C.ar      1 ATP         0.5691
     30 N3         -0.5075    3.4292    2.2616 N.ar      1 ATP        -0.4283
     31 C4         -0.3667    3.3425    0.9070 C.ar      1 ATP         0.2226
     32 HOB2        1.4162   -1.7355   -6.5961 H         1 ATP         0.2010
     33 H5'1        1.2163   -0.0770   -2.0471 H         1 ATP        -0.0393
     34 H5'2        2.4655   -1.3443   -2.1563 H         1 ATP        -0.0393
     35 H4'         3.8040   -0.1399   -0.4044 H         1 ATP        -0.0393
     36 H3'         1.6768   -1.7637    0.2732 H         1 ATP        -0.0393
     37 HO3'        2.2231   -1.2979    2.3952 H         1 ATP         0.2010
     38 H2'         0.0002   -0.0084   -0.0014 H         1 ATP        -0.0393
     39 HO2'       -0.6132    0.5577    2.1063 H         1 ATP         0.2010
     40 H1'         1.7718    1.9211    1.6015 H         1 ATP        -0.0393
     41 H8          0.6089    2.4651   -2.2147 H         1 ATP         0.0000
     42 HN61       -2.5055    5.6680   -1.4503 H         1 ATP         0.2048
     43 HN62       -3.3462    6.4841   -0.1542 H         1 ATP         0.2048
     44 H2         -1.5932    4.4937    3.7066 H         1 ATP        -0.1292
     45 H45        -2.8098    5.8270    2.1160 H         1 ATP         0.2048
@<TRIPOS>BOND
     1    1    2 2
     2    1    3 1
     3    1    4 1
     4    1    8 1
     5    5    6 2
     6    5    7 1
     7    5    8 1
     8    5   12 1
     9    7   32 1
    10    9   10 2
    11    9   11 1
    12    9   12 1
    13    9   13 1
    14   13   14 1
    15   14   15 1
    16   14   33 1
    17   14   34 1
    18   15   16 1
    19   15   17 1
    20   15   35 1
    21   16   21 1
    22   17   18 1
    23   17   19 1
    24   17   36 1
    25   18   37 1
    26   19   20 1
    27   19   21 1
    28   19   38 1
    29   20   39 1
    30   21   22 1
    31   21   40 1
    32   22   23 ar
    33   22   31 ar
    34   23   24 ar
    35   23   41 1
    36   24   25 ar
    37   25   26 ar
    38   25   31 ar
    39   26   27 1
    40   26   28 ar
    41   27   42 1
    42   27   43 1
    43   28   29 ar
    44   28   45 1
    45   29   30 ar
    46   29   44 1
    47   30   31 ar
@<TRIPOS>SUBSTRUCTURE
     1 ATP         1 GROUP 0 A     ****
@<TRIPOS>MOLECULE
[[[5-(6-amino-1,8-dihydropurine-6,8-diylium-7-id-9-yl)-3,4-dihydroxy-tetrahydrofuran-2-yl]methoxy-oxido-phosphoryl]oxy-hydroxy-phosphoryl] phosphate
   45    47     1     0     0
SMALL
USER_CHARGES

@<TRIPOS>ATOM
      1 PG         -2.6918   -2.8495   -2.3548 P.3       1 ATP        -1.1921
      2 O1G        -2.9461   -4.3218   -2.6613 O.co2     1 ATP         0.3195
      3 O2G        -3.9587   -2.0184   -2.1803 O.co2     1 ATP         0.3195
      4 O3G        -1.6302   -2.6036   -1.2878 O.co2     1 ATP         0.3195
      5 PB         -0.6645   -2.6808   -4.5134 P.3       1 ATP        -0.9715
      6 O1B        -0.6177   -4.1085   -4.9715 O.2       1 ATP         0.2707
      7 O2B        -0.5623   -1.5814   -5.6946 O.3       1 ATP         0.0326
      8 O3B        -2.0209   -2.2588   -3.7398 O.3       1 ATP         0.4672
      9 PA          2.1265   -2.2419   -3.6650 P.3       1 ATP        -1.1062
     10 O1A         2.4931   -1.2125   -4.7118 O.co2     1 ATP         0.3195
     11 O2A         2.5985   -3.6751   -3.7777 O.co2     1 ATP         0.3195
     12 O3A         0.5044   -2.2428   -3.4880 O.3       1 ATP         0.4672
     13 O5'         2.5245   -1.6648   -2.1878 O.3       1 ATP         0.1618
     14 C5'         2.2816   -0.2918   -1.9206 C.3       1 ATP         0.1504
     15 C4'         2.7248    0.0226   -0.4980 C.3       1 ATP         0.1111
     16 O4'         2.4697    1.4219   -0.2462 O.3       1 ATP        -0.1436
     17 C3'         1.9404   -0.7419    0.5596 C.3       1 ATP         0.1111
     18 O3'         2.7418   -0.8086    1.7389 O.3       1 ATP        -0.2728
     19 C2'         0.7477    0.1630    0.7858 C.3       1 ATP         0.1111
     20 O2'         0.1373   -0.0577    2.0407 O.3       1 ATP        -0.2728
     21 C1'         1.3733    1.5427    0.6747 C.3       1 ATP         0.2693
     22 N9          0.4520    2.5240    0.1767 N.pl3     1 ATP        -0.3222
     23 C8          0.1798    2.8712   -1.2933 C.ar      1 ATP         0.1640
     24 N7         -0.7494    3.8400   -1.3610 N.2       1 ATP        -0.1640
     25 C5         -1.0173    4.0603   -0.0358 C.ar      1 ATP         0.0820
     26 C6         -2.0105    5.0717    0.4241 C.ar      1 ATP         0.1640
     27 N6         -2.6723    5.7982   -0.4628 N.pl3     1 ATP        -0.4916
     28 N1         -2.1445    5.1522    1.7502 N.pl3     1 ATP        -0.4390
     29 C2         -1.3755    4.3143    2.6426 C.ar      1 ATP         0.5691
     30 N3         -0.5075    3.4292    2.2616 N.ar      1 ATP        -0.4283
     31 C4         -0.3667    3.3425    0.9070 C.ar      1 ATP         0.2226
     32 HOB2        0.2359   -1.5712   -6.2647 H         1 ATP         0.2010
     33 H5'1        2.8432    0.3119   -2.6398 H         1 ATP        -0.0393
     34 H5'2        1.2128   -0.0927   -2.0428 H         1 ATP        -0.0393
     35 H4'         3.8040   -0.1399   -0.4044 H         1 ATP        -0.0393
     36 H3'         1.6768   -1.7637    0.2732 H         1 ATP        -0.0393
     37 HO3'        2.2231   -1.2979    2.3952 H         1 ATP         0.2010
     38 H2'         0.0002   -0.0084   -0.0014 H         1 ATP        -0.0393
     39 HO2'       -0.6132    0.5577    2.1063 H         1 ATP         0.2010
     40 H1'         1.7718    1.9211    1.6015 H         1 ATP        -0.0393
     41 H8          0.6089    2.4651   -2.2147 H         1 ATP         0.0000
     42 HN61       -2.5055    5.6680   -1.4503 H         1 ATP         0.2048
     43 HN62       -3.3462    6.4841   -0.1542 H         1 ATP         0.2048
     44 H2         -1.5932    4.4937    3.7066 H         1 ATP        -0.1292
     45 H45        -2.8098    5.8270    2.1160 H         1 ATP         0.2048
@<TRIPOS>BOND
     1    1    2 2
     2    1    3 1
     3    1    4 1
     4    1    8 1
     5    5    6 2
     6    5    7 1
     7    5    8 1
     8    5   12 1
     9    7   32 1
    10    9   10 2
    11    9   11 1
    12    9   12 1
    13    9   13 1
    14   13   14 1
    15   14   15 1
    16   14   33 1
    17   14   34 1
    18   15   16 1
    19   15   17 1
    20   15   35 1
    21   16   21 1
    22   17   18 1
    23   17   19 1
    24   17   36 1
    25   18   37 1
    26   19   20 1
    27   19   21 1
    28   19   38 1
    29   20   39 1
    30   21   22 1
    31   21   40 1
    32   22   23 ar
    33   22   31 ar
    34   23   24 ar
    35   23   41 1
    36   24   25 ar
    37   25   26 ar
    38   25   31 ar
    39   26   27 1
    40   26   28 ar
    41   27   42 1
    42   27   43 1
    43   28   29 ar
    44   28   45 1
    45   29   30 ar
    46   29   44 1
    47   30   31 ar
@<TRIPOS>SUBSTRUCTURE
     1 ATP         1 GROUP 0 A     ****
@<TRIPOS>MOLECULE
[[[5-(6-amino-1,8-dihydropurine-6,8-diylium-7-id-9-yl)-3,4-dihydroxy-tetrahydrofuran-2-yl]methoxy-oxido-phosphoryl]oxy-hydroxy-phosphoryl] phosphate
   45    47     1     0     0
SMALL
USER_CHARGES

@<TRIPOS>ATOM
      1 PG          5.6597   -3.1224   -1.3674 P.3       1 ATP        -1.1921
      2 O1G         5.3008   -4.6021   -1.4569 O.co2     1 ATP         0.3195
      3 O2G         5.2787   -2.4646   -0.0451 O.co2     1 ATP         0.3195
      4 O3G         7.0665   -2.7862   -1.8511 O.co2     1 ATP         0.3195
      5 PB          4.5337   -2.6169   -4.0645 P.3       1 ATP        -0.9715
      6 O1B         5.7832   -2.3373   -4.8463 O.2       1 ATP         0.2707
      7 O2B         3.9814   -4.1321   -4.1799 O.3       1 ATP         0.0326
      8 O3B         4.6676   -2.3990   -2.4673 O.3       1 ATP         0.4672
      9 PA          3.0383   -0.0994   -4.4226 P.3       1 ATP        -1.1062
     10 O1A         1.5898    0.1994   -4.7425 O.co2     1 ATP         0.3195
     11 O2A         4.1619    0.5520   -5.1990 O.co2     1 ATP         0.3195
     12 O3A         3.2521   -1.7167   -4.4602 O.3       1 ATP         0.4672
     13 O5'         3.2903    0.1346   -2.8241 O.3       1 ATP         0.1618
     14 C5'         2.2816   -0.2918   -1.9206 C.3       1 ATP         0.1504
     15 C4'         2.7248    0.0226   -0.4980 C.3       1 ATP         0.1111
     16 O4'         2.4697    1.4219   -0.2462 O.3       1 ATP        -0.1436
     17 C3'         1.9404   -0.7419    0.5596 C.3       1 ATP         0.1111
     18 O3'         2.7418   -0.8086    1.7389 O.3       1 ATP        -0.2728
     19 C2'         0.7477    0.1630    0.7858 C.3       1 ATP         0.1111
     20 O2'         0.1373   -0.0577    2.0407 O.3       1 ATP        -0.2728
     21 C1'         1.3733    1.5427    0.6747 C.3       1 ATP         0.2693
     22 N9          0.4520    2.5240    0.1767 N.pl3     1 ATP        -0.3222
     23 C8          0.1798    2.8712   -1.2933 C.ar      1 ATP         0.1640
     24 N7         -0.7494    3.8400   -1.3610 N.2       1 ATP        -0.1640
     25 C5         -1.0173    4.0603   -0.0358 C.ar      1 ATP         0.0820
     26 C6         -2.0105    5.0717    0.4241 C.ar      1 ATP         0.1640
     27 N6         -2.6723    5.7982   -0.4628 N.pl3     1 ATP        -0.4916
     28 N1         -2.1445    5.1522    1.7502 N.pl3     1 ATP        -0.4390
     29 C2         -1.3755    4.3143    2.6426 C.ar      1 ATP         0.5691
     30 N3         -0.5075    3.4292    2.2616 N.ar      1 ATP        -0.4283
     31 C4         -0.3667    3.3425    0.9070 C.ar      1 ATP         0.2226
     32 HOB2        4.5573   -4.8700   -3.8868 H         1 ATP         0.2010
     33 H5'1        1.3514    0.2330   -2.1577 H         1 ATP        -0.0393
     34 H5'2        2.1280   -1.3678   -2.0460 H         1 ATP        -0.0393
     35 H4'         3.8040   -0.1399   -0.4044 H         1 ATP        -0.0393
     36 H3'         1.6768   -1.7637    0.2732 H         1 ATP        -0.0393
     37 HO3'        2.2231   -1.2979    2.3952 H         1 ATP         0.2010
     38 H2'         0.0002   -0.0084   -0.0014 H         1 ATP        -0.0393
     39 HO2'       -0.6132    0.5577    2.1063 H         1 ATP         0.2010
     40 H1'         1.7718    1.9211    1.6015 H         1 ATP        -0.0393
     41 H8          0.6089    2.4651   -2.2147 H         1 ATP         0.0000
     42 HN61       -2.5055    5.6680   -1.4503 H         1 ATP         0.2048
     43 HN62       -3.3462    6.4841   -0.1542 H         1 ATP         0.2048
     44 H2         -1.5932    4.4937    3.7066 H         1 ATP        -0.1292
     45 H45        -2.8098    5.8270    2.1160 H         1 ATP         0.2048
@<TRIPOS>BOND
     1    1    2 2
     2    1    3 1
     3    1    4 1
     4    1    8 1
     5    5    6 2
     6    5    7 1
     7    5    8 1
     8    5   12 1
     9    7   32 1
    10    9   10 2
    11    9   11 1
    12    9   12 1
    13    9   13 1
    14   13   14 1
    15   14   15 1
    16   14   33 1
    17   14   34 1
    18   15   16 1
    19   15   17 1
    20   15   35 1
    21   16   21 1
    22   17   18 1
    23   17   19 1
    24   17   36 1
    25   18   37 1
    26   19   20 1
    27   19   21 1
    28   19   38 1
    29   20   39 1
    30   21   22 1
    31   21   40 1
    32   22   23 ar
    33   22   31 ar
    34   23   24 ar
    35   23   41 1
    36   24   25 ar
    37   25   26 ar
    38   25   31 ar
    39   26   27 1
    40   26   28 ar
    41   27   42 1
    42   27   43 1
    43   28   29 ar
    44   28   45 1
    45   29   30 ar
    46   29   44 1
    47   30   31 ar
@<TRIPOS>SUBSTRUCTURE
     1 ATP         1 GROUP 0 A     ****
@<TRIPOS>MOLECULE
[[[5-(6-amino-1,8-dihydropurine-6,8-diylium-7-id-9-yl)-3,4-dihydroxy-tetrahydrofuran-2-yl]methoxy-oxido-phosphoryl]oxy-hydroxy-phosphoryl] phosphate
   45    47     1     0     0
SMALL
USER_CHARGES

@<TRIPOS>ATOM
      1 PG         -2.4769   -0.9837   -4.1949 P.3       1 ATP        -1.1921
      2 O1G        -3.8044   -1.1492   -3.4624 O.co2     1 ATP         0.3195
      3 O2G        -2.6066   -0.8830   -5.7112 O.co2     1 ATP         0.3195
      4 O3G        -1.5424    0.0510   -3.5766 O.co2     1 ATP         0.3195
      5 PB         -1.2461   -3.1570   -2.5949 P.3       1 ATP        -0.9715
      6 O1B        -2.2301   -3.0625   -1.4664 O.2       1 ATP         0.2707
      7 O2B        -0.9138   -4.6611   -3.0862 O.3       1 ATP         0.0326
      8 O3B        -1.7044   -2.4210   -3.9604 O.3       1 ATP         0.4672
      9 PA          1.5375   -2.4279   -3.2447 P.3       1 ATP        -1.1062
     10 O1A         1.2350   -1.4961   -4.3980 O.co2     1 ATP         0.3195
     11 O2A         2.0607   -3.8271   -3.4854 O.co2     1 ATP         0.3195
     12 O3A         0.2112   -2.5260   -2.2990 O.3       1 ATP         0.4672
     13 O5'         2.5245   -1.6648   -2.1878 O.3       1 ATP         0.1618
     14 C5'         2.2816   -0.2918   -1.9206 C.3       1 ATP         0.1504
     15 C4'         2.7248    0.0226   -0.4980 C.3       1 ATP         0.1111
     16 O4'         2.4697    1.4219   -0.2462 O.3       1 ATP        -0.1436
     17 C3'         1.9404   -0.7419    0.5596 C.3       1 ATP         0.1111
     18 O3'         2.7418   -0.8086    1.7389 O.3       1 ATP        -0.2728
     19 C2'         0.7477    0.1630    0.7858 C.3       1 ATP         0.1111
     20 O2'         0.1373   -0.0577    2.0407 O.3       1 ATP        -0.2728
     21 C1'         1.3733    1.5427    0.6747 C.3       1 ATP         0.2693
     22 N9          0.4520    2.5240    0.1767 N.pl3     1 ATP        -0.3222
     23 C8          0.1798    2.8712   -1.2933 C.ar      1 ATP         0.1640
     24 N7         -0.7494    3.8400   -1.3610 N.2       1 ATP        -0.1640
     25 C5         -1.0173    4.0603   -0.0358 C.ar      1 ATP         0.0820
     26 C6         -2.0105    5.0717    0.4241 C.ar      1 ATP         0.1640
     27 N6         -2.6723    5.7982   -0.4628 N.pl3     1 ATP        -0.4916
     28 N1         -2.1445    5.1522    1.7502 N.pl3     1 ATP        -0.4390
     29 C2         -1.3755    4.3143    2.6426 C.ar      1 ATP         0.5691
     30 N3         -0.5075    3.4292    2.2616 N.ar      1 ATP        -0.4283
     31 C4         -0.3667    3.3425    0.9070 C.ar      1 ATP         0.2226
     32 HOB2       -0.5276   -5.2948   -2.4447 H         1 ATP         0.2010
     33 H5'1        2.8432    0.3119   -2.6398 H         1 ATP        -0.0393
     34 H5'2        1.2128   -0.0927   -2.0428 H         1 ATP        -0.0393
     35 H4'         3.8040   -0.1399   -0.4044 H         1 ATP        -0.0393
     36 H3'         1.6768   -1.7637    0.2732 H         1 ATP        -0.0393
     37 HO3'        2.2231   -1.2979    2.3952 H         1 ATP         0.2010
     38 H2'         0.0002   -0.0084   -0.0014 H         1 ATP        -0.0393
     39 HO2'       -0.6132    0.5577    2.1063 H         1 ATP         0.2010
     40 H1'         1.7718    1.9211    1.6015 H         1 ATP        -0.0393
     41 H8          0.6089    2.4651   -2.2147 H         1 ATP         0.0000
     42 HN61       -2.5055    5.6680   -1.4503 H         1 ATP         0.2048
     43 HN62       -3.3462    6.4841   -0.1542 H         1 ATP         0.2048
     44 H2         -1.5932    4.4937    3.7066 H         1 ATP        -0.1292
     45 H45        -2.8098    5.8270    2.1160 H         1 ATP         0.2048
@<TRIPOS>BOND
     1    1    2 2
     2    1    3 1
     3    1    4 1
     4    1    8 1
     5    5    6 2
     6    5    7 1
     7    5    8 1
     8    5   12 1
     9    7   32 1
    10    9   10 2
    11    9   11 1
    12    9   12 1
    13    9   13 1
    14   13   14 1
    15   14   15 1
    16   14   33 1
    17   14   34 1
    18   15   16 1
    19   15   17 1
    20   15   35 1
    21   16   21 1
    22   17   18 1
    23   17   19 1
    24   17   36 1
    25   18   37 1
    26   19   20 1
    27   19   21 1
    28   19   38 1
    29   20   39 1
    30   21   22 1
    31   21   40 1
    32   22   23 ar
    33   22   31 ar
    34   23   24 ar
    35   23   41 1
    36   24   25 ar
    37   25   26 ar
    38   25   31 ar
    39   26   27 1
    40   26   28 ar
    41   27   42 1
    42   27   43 1
    43   28   29 ar
    44   28   45 1
    45   29   30 ar
    46   29   44 1
    47   30   31 ar
@<TRIPOS>SUBSTRUCTURE
     1 ATP         1 GROUP 0 A     ****
@<TRIPOS>MOLECULE
[[[5-(6-amino-1,8-dihydropurine-6,8-diylium-7-id-9-yl)-3,4-dihydroxy-tetrahydrofuran-2-yl]methoxy-oxido-phosphoryl]oxy-hydroxy-phosphoryl] phosphate
   45    47     1     0     0
SMALL
USER_CHARGES

@<TRIPOS>ATOM
      1 PG          3.3814    5.9212   -5.2165 P.3       1 ATP        -1.1921
      2 O1G         2.0937    5.9321   -6.0337 O.co2     1 ATP         0.3195
      3 O2G         4.6489    5.7490   -6.0473 O.co2     1 ATP         0.3195
      4 O3G         3.4677    7.0219   -4.1643 O.co2     1 ATP         0.3195
      5 PB          2.1993    4.0378   -3.2535 P.3       1 ATP        -0.9715
      6 O1B         2.0605    4.9277   -2.0538 O.2       1 ATP         0.2707
      7 O2B         0.8561    3.8703   -4.1379 O.3       1 ATP         0.0326
      8 O3B         3.2922    4.5274   -4.3408 O.3       1 ATP         0.4672
      9 PA          2.8924    1.2553   -3.9461 P.3       1 ATP        -1.1062
     10 O1A         4.1089    1.5584   -4.7935 O.co2     1 ATP         0.3195
     11 O2A         1.5730    0.8714   -4.5797 O.co2     1 ATP         0.3195
     12 O3A         2.6373    2.5148   -2.9404 O.3       1 ATP         0.4672
     13 O5'         3.2903    0.1346   -2.8241 O.3       1 ATP         0.1618
     14 C5'         2.2816   -0.2918   -1.9206 C.3       1 ATP         0.1504
     15 C4'         2.7248    0.0226   -0.4980 C.3       1 ATP         0.1111
     16 O4'         2.4697    1.4219   -0.2462 O.3       1 ATP        -0.1436
     17 C3'         1.9404   -0.7419    0.5596 C.3       1 ATP         0.1111
     18 O3'         2.7418   -0.8086    1.7389 O.3       1 ATP        -0.2728
     19 C2'         0.7477    0.1630    0.7858 C.3       1 ATP         0.1111
     20 O2'         0.1373   -0.0577    2.0407 O.3       1 ATP        -0.2728
     21 C1'         1.3733    1.5427    0.6747 C.3       1 ATP         0.2693
     22 N9          0.4520    2.5240    0.1767 N.pl3     1 ATP        -0.3222
     23 C8         -0.3054    2.4845   -1.1576 C.ar      1 ATP         0.1640
     24 N7         -1.0755    3.5806   -1.2691 N.2       1 ATP        -0.1640
     25 C5         -0.8043    4.2306   -0.0942 C.ar      1 ATP         0.0820
     26 C6         -1.4324    5.5335    0.2646 C.ar      1 ATP         0.1640
     27 N6         -2.2885    6.1054   -0.5675 N.pl3     1 ATP        -0.4916
     28 N1         -1.0537    6.0229    1.4478 N.pl3     1 ATP        -0.4390
     29 C2         -0.1096    5.3242    2.2908 C.ar      1 ATP         0.5691
     30 N3          0.4468    4.1904    1.9960 N.ar      1 ATP        -0.4283
     31 C4          0.0631    3.6855    0.7877 C.ar      1 ATP         0.2226
     32 HOB2        0.4508    4.6681   -4.5397 H         1 ATP         0.2010
     33 H5'1        1.3514    0.2330   -2.1577 H         1 ATP        -0.0393
     34 H5'2        2.1280   -1.3678   -2.0460 H         1 ATP        -0.0393
     35 H4'         3.8040   -0.1399   -0.4044 H         1 ATP        -0.0393
     36 H3'         1.6768   -1.7637    0.2732 H         1 ATP        -0.0393
     37 HO3'        2.2231   -1.2979    2.3952 H         1 ATP         0.2010
     38 H2'         0.0002   -0.0084   -0.0014 H         1 ATP        -0.0393
     39 HO2'       -0.6132    0.5577    2.1063 H         1 ATP         0.2010
     40 H1'         1.7718    1.9211    1.6015 H         1 ATP        -0.0393
     41 H8         -0.2991    1.7413   -1.9611 H         1 ATP         0.0000
     42 HN61       -2.5167    5.6603   -1.4447 H         1 ATP         0.2048
     43 HN62       -2.7159    6.9882   -0.3270 H         1 ATP         0.2048
     44 H2          0.1059    5.8491    3.2340 H         1 ATP        -0.1292
     45 H45        -1.4532    6.9099    1.7401 H         1 ATP         0.2048
@<TRIPOS>BOND
     1    1    2 2
     2    1    3 1
     3    1    4 1
     4    1    8 1
     5    5    6 2
     6    5    7 1
     7    5    8 1
     8    5   12 1
     9    7   32 1
    10    9   10 2
    11    9   11 1
    12    9   12 1
    13    9   13 1
    14   13   14 1
    15   14   15 1
    16   14   33 1
    17   14   34 1
    18   15   16 1
    19   15   17 1
    20   15   35 1
    21   16   21 1
    22   17   18 1
    23   17   19 1
    24   17   36 1
    25   18   37 1
    26   19   20 1
    27   19   21 1
    28   19   38 1
    29   20   39 1
    30   21   22 1
    31   21   40 1
    32   22   23 ar
    33   22   31 ar
    34   23   24 ar
    35   23   41 1
    36   24   25 ar
    37   25   26 ar
    38   25   31 ar
    39   26   27 1
    40   26   28 ar
    41   27   42 1
    42   27   43 1
    43   28   29 ar
    44   28   45 1
    45   29   30 ar
    46   29   44 1
    47   30   31 ar
@<TRIPOS>SUBSTRUCTURE
     1 ATP         1 GROUP 0 A     ****
@<TRIPOS>MOLECULE
[[[5-(6-amino-1,8-dihydropurine-6,8-diylium-7-id-9-yl)-3,4-dihydroxy-tetrahydrofuran-2-yl]methoxy-oxido-phosphoryl]oxy-hydroxy-phosphoryl] phosphate
   45    47     1     0     0
SMALL
USER_CHARGES

@<TRIPOS>ATOM
      1 PG          5.2443   -1.4631   -8.3805 P.3       1 ATP        -1.1921
      2 O1G         6.1133   -2.6822   -8.0895 O.co2     1 ATP         0.3195
      3 O2G         6.0299   -0.2017   -8.7241 O.co2     1 ATP         0.3195
      4 O3G         4.0655   -1.7382   -9.3083 O.co2     1 ATP         0.3195
      5 PB          3.5769   -1.9959   -5.9860 P.3       1 ATP        -0.9715
      6 O1B         2.2874   -2.4182   -6.6258 O.2       1 ATP         0.2707
      7 O2B         4.5363   -3.2104   -5.5184 O.3       1 ATP         0.0326
      8 O3B         4.5461   -1.1092   -6.9297 O.3       1 ATP         0.4672
      9 PA          2.7180    0.3539   -4.4230 P.3       1 ATP        -1.1062
     10 O1A         1.2273    0.1956   -4.6287 O.co2     1 ATP         0.3195
     11 O2A         3.5063    1.3990   -5.1820 O.co2     1 ATP         0.3195
     12 O3A         3.4276   -1.0977   -4.6517 O.3       1 ATP         0.4672
     13 O5'         3.0213    0.5153   -2.8245 O.3       1 ATP         0.1618
     14 C5'         2.2816   -0.2918   -1.9206 C.3       1 ATP         0.1504
     15 C4'         2.7248    0.0226   -0.4980 C.3       1 ATP         0.1111
     16 O4'         2.4697    1.4219   -0.2462 O.3       1 ATP        -0.1436
     17 C3'         1.9404   -0.7419    0.5596 C.3       1 ATP         0.1111
     18 O3'         2.7418   -0.8086    1.7389 O.3       1 ATP        -0.2728
     19 C2'         0.7477    0.1630    0.7858 C.3       1 ATP         0.1111
     20 O2'         0.1373   -0.0577    2.0407 O.3       1 ATP        -0.2728
     21 C1'         1.3733    1.5427    0.6747 C.3       1 ATP         0.2693
     22 N9          0.4520    2.5240    0.1767 N.pl3     1 ATP        -0.3222
     23 C8          0.1798    2.8712   -1.2933 C.ar      1 ATP         0.1640
     24 N7         -0.7494    3.8400   -1.3610 N.2       1 ATP        -0.1640
     25 C5         -1.0173    4.0603   -0.0358 C.ar      1 ATP         0.0820
     26 C6         -2.0105    5.0717    0.4241 C.ar      1 ATP         0.1640
     27 N6         -2.6723    5.7982   -0.4628 N.pl3     1 ATP        -0.4916
     28 N1         -2.1445    5.1522    1.7502 N.pl3     1 ATP        -0.4390
     29 C2         -1.3755    4.3143    2.6426 C.ar      1 ATP         0.5691
     30 N3         -0.5075    3.4292    2.2616 N.ar      1 ATP        -0.4283
     31 C4         -0.3667    3.3425    0.9070 C.ar      1 ATP         0.2226
     32 HOB2        4.8586   -3.8462   -6.1923 H         1 ATP         0.2010
     33 H5'1        1.2163   -0.0770   -2.0471 H         1 ATP        -0.0393
     34 H5'2        2.4655   -1.3443   -2.1563 H         1 ATP        -0.0393
     35 H4'         3.8040   -0.1399   -0.4044 H         1 ATP        -0.0393
     36 H3'         1.6768   -1.7637    0.2732 H         1 ATP        -0.0393
     37 HO3'        2.2231   -1.2979    2.3952 H         1 ATP         0.2010
     38 H2'         0.0002   -0.0084   -0.0014 H         1 ATP        -0.0393
     39 HO2'       -0.6132    0.5577    2.1063 H         1 ATP         0.2010
     40 H1'         1.7718    1.9211    1.6015 H         1 ATP        -0.0393
     41 H8          0.6089    2.4651   -2.2147 H         1 ATP         0.0000
     42 HN61       -2.5055    5.6680   -1.4503 H         1 ATP         0.2048
     43 HN62       -3.3462    6.4841   -0.1542 H         1 ATP         0.2048
     44 H2         -1.5932    4.4937    3.7066 H         1 ATP        -0.1292
     45 H45        -2.8098    5.8270    2.1160 H         1 ATP         0.2048
@<TRIPOS>BOND
     1    1    2 2
     2    1    3 1
     3    1    4 1
     4    1    8 1
     5    5    6 2
     6    5    7 1
     7    5    8 1
     8    5   12 1
     9    7   32 1
    10    9   10 2
    11    9   11 1
    12    9   12 1
    13    9   13 1
    14   13   14 1
    15   14   15 1
    16   14   33 1
    17   14   34 1
    18   15   16 1
    19   15   17 1
    20   15   35 1
    21   16   21 1
    22   17   18 1
    23   17   19 1
    24   17   36 1
    25   18   37 1
    26   19   20 1
    27   19   21 1
    28   19   38 1
    29   20   39 1
    30   21   22 1
    31   21   40 1
    32   22   23 ar
    33   22   31 ar
    34   23   24 ar
    35   23   41 1
    36   24   25 ar
    37   25   26 ar
    38   25   31 ar
    39   26   27 1
    40   26   28 ar
    41   27   42 1
    42   27   43 1
    43   28   29 ar
    44   28   45 1
    45   29   30 ar
    46   29   44 1
    47   30   31 ar
@<TRIPOS>SUBSTRUCTURE
     1 ATP         1 GROUP 0 A     ****
@<TRIPOS>MOLECULE
[[[5-(6-amino-1,8-dihydropurine-6,8-diylium-7-id-9-yl)-3,4-dihydroxy-tetrahydrofuran-2-yl]methoxy-oxido-phosphoryl]oxy-hydroxy-phosphoryl] phosphate
   45    47     1     0     0
SMALL
USER_CHARGES

@<TRIPOS>ATOM
      1 PG         -0.2662    4.9701   -4.6137 P.3       1 ATP        -1.1921
      2 O1G        -0.4175    6.1218   -3.6253 O.co2     1 ATP         0.3195
      3 O2G        -1.5536    4.1947   -4.8735 O.co2     1 ATP         0.3195
      4 O3G         0.5176    5.3218   -5.8739 O.co2     1 ATP         0.3195
      5 PB          2.1993    4.0378   -3.2535 P.3       1 ATP        -0.9715
      6 O1B         3.1357    4.8088   -4.1363 O.2       1 ATP         0.2707
      7 O2B         1.9671    4.6736   -1.7852 O.3       1 ATP         0.0326
      8 O3B         0.6943    3.8860   -3.8266 O.3       1 ATP         0.4672
      9 PA          2.8924    1.2553   -3.9461 P.3       1 ATP        -1.1062
     10 O1A         4.1089    1.5584   -4.7935 O.co2     1 ATP         0.3195
     11 O2A         1.5730    0.8714   -4.5797 O.co2     1 ATP         0.3195
     12 O3A         2.6373    2.5148   -2.9404 O.3       1 ATP         0.4672
     13 O5'         3.2903    0.1346   -2.8241 O.3       1 ATP         0.1618
     14 C5'         2.2816   -0.2918   -1.9206 C.3       1 ATP         0.1504
     15 C4'         2.7248    0.0226   -0.4980 C.3       1 ATP         0.1111
     16 O4'         2.4697    1.4219   -0.2462 O.3       1 ATP        -0.1436
     17 C3'         1.9404   -0.7419    0.5596 C.3       1 ATP         0.1111
     18 O3'         2.7418   -0.8086    1.7389 O.3       1 ATP        -0.2728
     19 C2'         0.7477    0.1630    0.7858 C.3       1 ATP         0.1111
     20 O2'         0.1373   -0.0577    2.0407 O.3       1 ATP        -0.2728
     21 C1'         1.3733    1.5427    0.6747 C.3       1 ATP         0.2693
     22 N9          0.4520    2.5240    0.1767 N.pl3     1 ATP        -0.3222
     23 C8         -0.3054    2.4845   -1.1576 C.ar      1 ATP         0.1640
     24 N7         -1.0755    3.5806   -1.2691 N.2       1 ATP        -0.1640
     25 C5         -0.8043    4.2306   -0.0942 C.ar      1 ATP         0.0820
     26 C6         -1.4324    5.5335    0.2646 C.ar      1 ATP         0.1640
     27 N6         -2.2885    6.1054   -0.5675 N.pl3     1 ATP        -0.4916
     28 N1         -1.0537    6.0229    1.4478 N.pl3     1 ATP        -0.4390
     29 C2         -0.1096    5.3242    2.2908 C.ar      1 ATP         0.5691
     30 N3          0.4468    4.1904    1.9960 N.ar      1 ATP        -0.4283
     31 C4          0.0631    3.6855    0.7877 C.ar      1 ATP         0.2226
     32 HOB2        1.5932    5.5777   -1.7140 H         1 ATP         0.2010
     33 H5'1        1.3514    0.2330   -2.1577 H         1 ATP        -0.0393
     34 H5'2        2.1280   -1.3678   -2.0460 H         1 ATP        -0.0393
     35 H4'         3.8040   -0.1399   -0.4044 H         1 ATP        -0.0393
     36 H3'         1.6768   -1.7637    0.2732 H         1 ATP        -0.0393
     37 HO3'        2.2231   -1.2979    2.3952 H         1 ATP         0.2010
     38 H2'         0.0002   -0.0084   -0.0014 H         1 ATP        -0.0393
     39 HO2'       -0.6132    0.5577    2.1063 H         1 ATP         0.2010
     40 H1'         1.7718    1.9211    1.6015 H         1 ATP        -0.0393
     41 H8         -0.2991    1.7413   -1.9611 H         1 ATP         0.0000
     42 HN61       -2.5167    5.6603   -1.4447 H         1 ATP         0.2048
     43 HN62       -2.7159    6.9882   -0.3270 H         1 ATP         0.2048
     44 H2          0.1059    5.8491    3.2340 H         1 ATP        -0.1292
     45 H45        -1.4532    6.9099    1.7401 H         1 ATP         0.2048
@<TRIPOS>BOND
     1    1    2 2
     2    1    3 1
     3    1    4 1
     4    1    8 1
     5    5    6 2
     6    5    7 1
     7    5    8 1
     8    5   12 1
     9    7   32 1
    10    9   10 2
    11    9   11 1
    12    9   12 1
    13    9   13 1
    14   13   14 1
    15   14   15 1
    16   14   33 1
    17   14   34 1
    18   15   16 1
    19   15   17 1
    20   15   35 1
    21   16   21 1
    22   17   18 1
    23   17   19 1
    24   17   36 1
    25   18   37 1
    26   19   20 1
    27   19   21 1
    28   19   38 1
    29   20   39 1
    30   21   22 1
    31   21   40 1
    32   22   23 ar
    33   22   31 ar
    34   23   24 ar
    35   23   41 1
    36   24   25 ar
    37   25   26 ar
    38   25   31 ar
    39   26   27 1
    40   26   28 ar
    41   27   42 1
    42   27   43 1
    43   28   29 ar
    44   28   45 1
    45   29   30 ar
    46   29   44 1
    47   30   31 ar
@<TRIPOS>SUBSTRUCTURE
     1 ATP         1 GROUP 0 A     ****
@<TRIPOS>MOLECULE
[[[5-(6-amino-1,8-dihydropurine-6,8-diylium-7-id-9-yl)-3,4-dihydroxy-tetrahydrofuran-2-yl]methoxy-oxido-phosphoryl]oxy-hydroxy-phosphoryl] phosphate
   45    47     1     0     0
SMALL
USER_CHARGES

@<TRIPOS>ATOM
      1 PG          0.8817   -3.2258   -6.1309 P.3       1 ATP        -1.1921
      2 O1G         1.4795   -4.5731   -6.5228 O.co2     1 ATP         0.3195
      3 O2G        -0.3087   -2.7974   -6.9828 O.co2     1 ATP         0.3195
      4 O3G         0.6763   -3.0415   -4.6309 O.co2     1 ATP         0.3195
      5 PB          3.5769   -1.9959   -5.9860 P.3       1 ATP        -0.9715
      6 O1B         4.3049   -3.2957   -5.8093 O.2       1 ATP         0.2707
      7 O2B         4.2436   -0.9800   -7.0526 O.3       1 ATP         0.0326
      8 O3B         2.0557   -2.1352   -6.5178 O.3       1 ATP         0.4672
      9 PA          2.7180    0.3539   -4.4230 P.3       1 ATP        -1.1062
     10 O1A         1.2273    0.1956   -4.6287 O.co2     1 ATP         0.3195
     11 O2A         3.5063    1.3990   -5.1820 O.co2     1 ATP         0.3195
     12 O3A         3.4276   -1.0977   -4.6517 O.3       1 ATP         0.4672
     13 O5'         3.0213    0.5153   -2.8245 O.3       1 ATP         0.1618
     14 C5'         2.2816   -0.2918   -1.9206 C.3       1 ATP         0.1504
     15 C4'         2.7248    0.0226   -0.4980 C.3       1 ATP         0.1111
     16 O4'         2.4697    1.4219   -0.2462 O.3       1 ATP        -0.1436
     17 C3'         1.9404   -0.7419    0.5596 C.3       1 ATP         0.1111
     18 O3'         2.7418   -0.8086    1.7389 O.3       1 ATP        -0.2728
     19 C2'         0.7477    0.1630    0.7858 C.3       1 ATP         0.1111
     20 O2'         0.1373   -0.0577    2.0407 O.3       1 ATP        -0.2728
     21 C1'         1.3733    1.5427    0.6747 C.3       1 ATP         0.2693
     22 N9          0.4520    2.5240    0.1767 N.pl3     1 ATP        -0.3222
     23 C8          0.1798    2.8712   -1.2933 C.ar      1 ATP         0.1640
     24 N7         -0.7494    3.8400   -1.3610 N.2       1 ATP        -0.1640
     25 C5         -1.0173    4.0603   -0.0358 C.ar      1 ATP         0.0820
     26 C6         -2.0105    5.0717    0.4241 C.ar      1 ATP         0.1640
     27 N6         -2.6723    5.7982   -0.4628 N.pl3     1 ATP        -0.4916
     28 N1         -2.1445    5.1522    1.7502 N.pl3     1 ATP        -0.4390
     29 C2         -1.3755    4.3143    2.6426 C.ar      1 ATP         0.5691
     30 N3         -0.5075    3.4292    2.2616 N.ar      1 ATP        -0.4283
     31 C4         -0.3667    3.3425    0.9070 C.ar      1 ATP         0.2226
     32 HOB2        5.1594   -0.6646   -6.8981 H         1 ATP         0.2010
     33 H5'1        1.2163   -0.0770   -2.0471 H         1 ATP        -0.0393
     34 H5'2        2.4655   -1.3443   -2.1563 H         1 ATP        -0.0393
     35 H4'         3.8040   -0.1399   -0.4044 H         1 ATP        -0.0393
     36 H3'         1.6768   -1.7637    0.2732 H         1 ATP        -0.0393
     37 HO3'        2.2231   -1.2979    2.3952 H         1 ATP         0.2010
     38 H2'         0.0002   -0.0084   -0.0014 H         1 ATP        -0.0393
     39 HO2'       -0.6132    0.5577    2.1063 H         1 ATP         0.2010
     40 H1'         1.7718    1.9211    1.6015 H         1 ATP        -0.0393
     41 H8          0.6089    2.4651   -2.2147 H         1 ATP         0.0000
     42 HN61       -2.5055    5.6680   -1.4503 H         1 ATP         0.2048
     43 HN62       -3.3462    6.4841   -0.1542 H         1 ATP         0.2048
     44 H2         -1.5932    4.4937    3.7066 H         1 ATP        -0.1292
     45 H45        -2.8098    5.8270    2.1160 H         1 ATP         0.2048
@<TRIPOS>BOND
     1    1    2 2
     2    1    3 1
     3    1    4 1
     4    1    8 1
     5    5    6 2
     6    5    7 1
     7    5    8 1
     8    5   12 1
     9    7   32 1
    10    9   10 2
    11    9   11 1
    12    9   12 1
    13    9   13 1
    14   13   14 1
    15   14   15 1
    16   14   33 1
    17   14   34 1
    18   15   16 1
    19   15   17 1
    20   15   35 1
    21   16   21 1
    22   17   18 1
    23   17   19 1
    24   17   36 1
    25   18   37 1
    26   19   20 1
    27   19   21 1
    28   19   38 1
    29   20   39 1
    30   21   22 1
    31   21   40 1
    32   22   23 ar
    33   22   31 ar
    34   23   24 ar
    35   23   41 1
    36   24   25 ar
    37   25   26 ar
    38   25   31 ar
    39   26   27 1
    40   26   28 ar
    41   27   42 1
    42   27   43 1
    43   28   29 ar
    44   28   45 1
    45   29   30 ar
    46   29   44 1
    47   30   31 ar
@<TRIPOS>SUBSTRUCTURE
     1 ATP         1 GROUP 0 A     ****
@<TRIPOS>MOLECULE
[[[5-(6-amino-1,8-dihydropurine-6,8-diylium-7-id-9-yl)-3,4-dihydroxy-tetrahydrofuran-2-yl]methoxy-oxido-phosphoryl]oxy-hydroxy-phosphoryl] phosphate
   45    47     1     0     0
SMALL
USER_CHARGES

@<TRIPOS>ATOM
      1 PG         -1.9803   -6.0136   -2.9088 P.3       1 ATP        -1.1921
      2 O1G        -2.8301   -5.9702   -1.6430 O.co2     1 ATP         0.3195
      3 O2G        -1.0555   -7.2230   -3.0010 O.co2     1 ATP         0.3195
      4 O3G        -2.7479   -5.7136   -4.1921 O.co2     1 ATP         0.3195
      5 PB         -1.2461   -3.1570   -2.5949 P.3       1 ATP        -0.9715
      6 O1B        -1.9925   -2.5439   -3.7427 O.2       1 ATP         0.2707
      7 O2B        -1.9958   -3.0629   -1.1654 O.3       1 ATP         0.0326
      8 O3B        -0.9472   -4.7395   -2.7455 O.3       1 ATP         0.4672
      9 PA          1.5375   -2.4279   -3.2447 P.3       1 ATP        -1.1062
     10 O1A         1.2350   -1.4961   -4.3980 O.co2     1 ATP         0.3195
     11 O2A         2.0607   -3.8271   -3.4854 O.co2     1 ATP         0.3195
     12 O3A         0.2112   -2.5260   -2.2990 O.3       1 ATP         0.4672
     13 O5'         2.5245   -1.6648   -2.1878 O.3       1 ATP         0.1618
     14 C5'         2.2816   -0.2918   -1.9206 C.3       1 ATP         0.1504
     15 C4'         2.7248    0.0226   -0.4980 C.3       1 ATP         0.1111
     16 O4'         2.4697    1.4219   -0.2462 O.3       1 ATP        -0.1436
     17 C3'         1.9404   -0.7419    0.5596 C.3       1 ATP         0.1111
     18 O3'         2.7418   -0.8086    1.7389 O.3       1 ATP        -0.2728
     19 C2'         0.7477    0.1630    0.7858 C.3       1 ATP         0.1111
     20 O2'         0.1373   -0.0577    2.0407 O.3       1 ATP        -0.2728
     21 C1'         1.3733    1.5427    0.6747 C.3       1 ATP         0.2693
     22 N9          0.4520    2.5240    0.1767 N.pl3     1 ATP        -0.3222
     23 C8          0.1798    2.8712   -1.2933 C.ar      1 ATP         0.1640
     24 N7         -0.7494    3.8400   -1.3610 N.2       1 ATP        -0.1640
     25 C5         -1.0173    4.0603   -0.0358 C.ar      1 ATP         0.0820
     26 C6         -2.0105    5.0717    0.4241 C.ar      1 ATP         0.1640
     27 N6         -2.6723    5.7982   -0.4628 N.pl3     1 ATP        -0.4916
     28 N1         -2.1445    5.1522    1.7502 N.pl3     1 ATP        -0.4390
     29 C2         -1.3755    4.3143    2.6426 C.ar      1 ATP         0.5691
     30 N3         -0.5075    3.4292    2.2616 N.ar      1 ATP        -0.4283
     31 C4         -0.3667    3.3425    0.9070 C.ar      1 ATP         0.2226
     32 HOB2       -2.2109   -2.1782   -0.8005 H         1 ATP         0.2010
     33 H5'1        2.8432    0.3119   -2.6398 H         1 ATP        -0.0393
     34 H5'2        1.2128   -0.0927   -2.0428 H         1 ATP        -0.0393
     35 H4'         3.8040   -0.1399   -0.4044 H         1 ATP        -0.0393
     36 H3'         1.6768   -1.7637    0.2732 H         1 ATP        -0.0393
     37 HO3'        2.2231   -1.2979    2.3952 H         1 ATP         0.2010
     38 H2'         0.0002   -0.0084   -0.0014 H         1 ATP        -0.0393
     39 HO2'       -0.6132    0.5577    2.1063 H         1 ATP         0.2010
     40 H1'         1.7718    1.9211    1.6015 H         1 ATP        -0.0393
     41 H8          0.6089    2.4651   -2.2147 H         1 ATP         0.0000
     42 HN61       -2.5055    5.6680   -1.4503 H         1 ATP         0.2048
     43 HN62       -3.3462    6.4841   -0.1542 H         1 ATP         0.2048
     44 H2         -1.5932    4.4937    3.7066 H         1 ATP        -0.1292
     45 H45        -2.8098    5.8270    2.1160 H         1 ATP         0.2048
@<TRIPOS>BOND
     1    1    2 2
     2    1    3 1
     3    1    4 1
     4    1    8 1
     5    5    6 2
     6    5    7 1
     7    5    8 1
     8    5   12 1
     9    7   32 1
    10    9   10 2
    11    9   11 1
    12    9   12 1
    13    9   13 1
    14   13   14 1
    15   14   15 1
    16   14   33 1
    17   14   34 1
    18   15   16 1
    19   15   17 1
    20   15   35 1
    21   16   21 1
    22   17   18 1
    23   17   19 1
    24   17   36 1
    25   18   37 1
    26   19   20 1
    27   19   21 1
    28   19   38 1
    29   20   39 1
    30   21   22 1
    31   21   40 1
    32   22   23 ar
    33   22   31 ar
    34   23   24 ar
    35   23   41 1
    36   24   25 ar
    37   25   26 ar
    38   25   31 ar
    39   26   27 1
    40   26   28 ar
    41   27   42 1
    42   27   43 1
    43   28   29 ar
    44   28   45 1
    45   29   30 ar
    46   29   44 1
    47   30   31 ar
@<TRIPOS>SUBSTRUCTURE
     1 ATP         1 GROUP 0 A     ****
@<TRIPOS>MOLECULE
[[[5-(6-amino-1,8-dihydropurine-6,8-diylium-7-id-9-yl)-3,4-dihydroxy-tetrahydrofuran-2-yl]methoxy-oxido-phosphoryl]oxy-hydroxy-phosphoryl] phosphate
   45    47     1     0     0
SMALL
USER_CHARGES

@<TRIPOS>ATOM
      1 PG          5.0800    1.0999   -5.9914 P.3       1 ATP        -1.1921
      2 O1G         4.1203    1.7925   -6.9535 O.co2     1 ATP         0.3195
      3 O2G         6.5549    1.3151   -6.3150 O.co2     1 ATP         0.3195
      4 O3G         4.7303    1.2779   -4.5176 O.co2     1 ATP         0.3195
      5 PB          3.5141   -1.4151   -6.1335 P.3       1 ATP        -0.9715
      6 O1B         2.3634   -0.9852   -6.9947 O.2       1 ATP         0.2707
      7 O2B         4.0609   -2.9092   -6.4215 O.3       1 ATP         0.0326
      8 O3B         4.8453   -0.5071   -6.2740 O.3       1 ATP         0.4672
      9 PA          2.1265   -2.2419   -3.6650 P.3       1 ATP        -1.1062
     10 O1A         2.4690   -3.7144   -3.7280 O.co2     1 ATP         0.3195
     11 O2A         0.7465   -1.7427   -4.0336 O.co2     1 ATP         0.3195
     12 O3A         3.2274   -1.4180   -4.5438 O.3       1 ATP         0.4672
     13 O5'         2.5245   -1.6648   -2.1878 O.3       1 ATP         0.1618
     14 C5'         2.2816   -0.2918   -1.9206 C.3       1 ATP         0.1504
     15 C4'         2.7248    0.0226   -0.4980 C.3       1 ATP         0.1111
     16 O4'         2.4697    1.4219   -0.2462 O.3       1 ATP        -0.1436
     17 C3'         1.9404   -0.7419    0.5596 C.3       1 ATP         0.1111
     18 O3'         2.7418   -0.8086    1.7389 O.3       1 ATP        -0.2728
     19 C2'         0.7477    0.1630    0.7858 C.3       1 ATP         0.1111
     20 O2'         0.1373   -0.0577    2.0407 O.3       1 ATP        -0.2728
     21 C1'         1.3733    1.5427    0.6747 C.3       1 ATP         0.2693
     22 N9          0.4520    2.5240    0.1767 N.pl3     1 ATP        -0.3222
     23 C8          0.1798    2.8712   -1.2933 C.ar      1 ATP         0.1640
     24 N7         -0.7494    3.8400   -1.3610 N.2       1 ATP        -0.1640
     25 C5         -1.0173    4.0603   -0.0358 C.ar      1 ATP         0.0820
     26 C6         -2.0105    5.0717    0.4241 C.ar      1 ATP         0.1640
     27 N6         -2.6723    5.7982   -0.4628 N.pl3     1 ATP        -0.4916
     28 N1         -2.1445    5.1522    1.7502 N.pl3     1 ATP        -0.4390
     29 C2         -1.3755    4.3143    2.6426 C.ar      1 ATP         0.5691
     30 N3         -0.5075    3.4292    2.2616 N.ar      1 ATP        -0.4283
     31 C4         -0.3667    3.3425    0.9070 C.ar      1 ATP         0.2226
     32 HOB2        3.4483   -3.6674   -6.3114 H         1 ATP         0.2010
     33 H5'1        2.8432    0.3119   -2.6398 H         1 ATP        -0.0393
     34 H5'2        1.2128   -0.0927   -2.0428 H         1 ATP        -0.0393
     35 H4'         3.8040   -0.1399   -0.4044 H         1 ATP        -0.0393
     36 H3'         1.6768   -1.7637    0.2732 H         1 ATP        -0.0393
     37 HO3'        2.2231   -1.2979    2.3952 H         1 ATP         0.2010
     38 H2'         0.0002   -0.0084   -0.0014 H         1 ATP        -0.0393
     39 HO2'       -0.6132    0.5577    2.1063 H         1 ATP         0.2010
     40 H1'         1.7718    1.9211    1.6015 H         1 ATP        -0.0393
     41 H8          0.6089    2.4651   -2.2147 H         1 ATP         0.0000
     42 HN61       -2.5055    5.6680   -1.4503 H         1 ATP         0.2048
     43 HN62       -3.3462    6.4841   -0.1542 H         1 ATP         0.2048
     44 H2         -1.5932    4.4937    3.7066 H         1 ATP        -0.1292
     45 H45        -2.8098    5.8270    2.1160 H         1 ATP         0.2048
@<TRIPOS>BOND
     1    1    2 2
     2    1    3 1
     3    1    4 1
     4    1    8 1
     5    5    6 2
     6    5    7 1
     7    5    8 1
     8    5   12 1
     9    7   32 1
    10    9   10 2
    11    9   11 1
    12    9   12 1
    13    9   13 1
    14   13   14 1
    15   14   15 1
    16   14   33 1
    17   14   34 1
    18   15   16 1
    19   15   17 1
    20   15   35 1
    21   16   21 1
    22   17   18 1
    23   17   19 1
    24   17   36 1
    25   18   37 1
    26   19   20 1
    27   19   21 1
    28   19   38 1
    29   20   39 1
    30   21   22 1
    31   21   40 1
    32   22   23 ar
    33   22   31 ar
    34   23   24 ar
    35   23   41 1
    36   24   25 ar
    37   25   26 ar
    38   25   31 ar
    39   26   27 1
    40   26   28 ar
    41   27   42 1
    42   27   43 1
    43   28   29 ar
    44   28   45 1
    45   29   30 ar
    46   29   44 1
    47   30   31 ar
@<TRIPOS>SUBSTRUCTURE
     1 ATP         1 GROUP 0 A     ****
@<TRIPOS>MOLECULE
[[[5-(6-amino-1,8-dihydropurine-6,8-diylium-7-id-9-yl)-3,4-dihydroxy-tetrahydrofuran-2-yl]methoxy-oxido-phosphoryl]oxy-hydroxy-phosphoryl] phosphate
   45    47     1     0     0
SMALL
USER_CHARGES

@<TRIPOS>ATOM
      1 PG          4.3250   -4.3779   -1.1016 P.3       1 ATP        -1.1921
      2 O1G         4.6112   -3.5707    0.1605 O.co2     1 ATP         0.3195
      3 O2G         4.7211   -5.8478   -1.0080 O.co2     1 ATP         0.3195
      4 O3G         2.9430   -4.1391   -1.7009 O.co2     1 ATP         0.3195
      5 PB          5.5095   -2.2592   -2.8063 P.3       1 ATP        -0.9715
      6 O1B         5.8181   -1.2087   -1.7808 O.2       1 ATP         0.2707
      7 O2B         6.6219   -2.4267   -3.9676 O.3       1 ATP         0.0326
      8 O3B         5.3659   -3.7601   -2.2207 O.3       1 ATP         0.4672
      9 PA          3.4597   -0.6852   -4.2287 P.3       1 ATP        -1.1062
     10 O1A         2.0882   -1.0306   -4.7667 O.co2     1 ATP         0.3195
     11 O2A         4.4837    0.0205   -5.0906 O.co2     1 ATP         0.3195
     12 O3A         4.1355   -2.0436   -3.6281 O.3       1 ATP         0.4672
     13 O5'         3.2903    0.1346   -2.8241 O.3       1 ATP         0.1618
     14 C5'         2.2816   -0.2918   -1.9206 C.3       1 ATP         0.1504
     15 C4'         2.7248    0.0226   -0.4980 C.3       1 ATP         0.1111
     16 O4'         2.4697    1.4219   -0.2462 O.3       1 ATP        -0.1436
     17 C3'         1.9404   -0.7419    0.5596 C.3       1 ATP         0.1111
     18 O3'         2.7418   -0.8086    1.7389 O.3       1 ATP        -0.2728
     19 C2'         0.7477    0.1630    0.7858 C.3       1 ATP         0.1111
     20 O2'         0.1373   -0.0577    2.0407 O.3       1 ATP        -0.2728
     21 C1'         1.3733    1.5427    0.6747 C.3       1 ATP         0.2693
     22 N9          0.4520    2.5240    0.1767 N.pl3     1 ATP        -0.3222
     23 C8          0.1798    2.8712   -1.2933 C.ar      1 ATP         0.1640
     24 N7         -0.7494    3.8400   -1.3610 N.2       1 ATP        -0.1640
     25 C5         -1.0173    4.0603   -0.0358 C.ar      1 ATP         0.0820
     26 C6         -2.0105    5.0717    0.4241 C.ar      1 ATP         0.1640
     27 N6         -2.6723    5.7982   -0.4628 N.pl3     1 ATP        -0.4916
     28 N1         -2.1445    5.1522    1.7502 N.pl3     1 ATP        -0.4390
     29 C2         -1.3755    4.3143    2.6426 C.ar      1 ATP         0.5691
     30 N3         -0.5075    3.4292    2.2616 N.ar      1 ATP        -0.4283
     31 C4         -0.3667    3.3425    0.9070 C.ar      1 ATP         0.2226
     32 HOB2        6.8285   -1.6577   -4.5405 H         1 ATP         0.2010
     33 H5'1        1.3514    0.2330   -2.1577 H         1 ATP        -0.0393
     34 H5'2        2.1280   -1.3678   -2.0460 H         1 ATP        -0.0393
     35 H4'         3.8040   -0.1399   -0.4044 H         1 ATP        -0.0393
     36 H3'         1.6768   -1.7637    0.2732 H         1 ATP        -0.0393
     37 HO3'        3.5553   -1.2733    1.4913 H         1 ATP         0.2010
     38 H2'         0.0002   -0.0084   -0.0014 H         1 ATP        -0.0393
     39 HO2'       -0.6132    0.5577    2.1063 H         1 ATP         0.2010
     40 H1'         1.7718    1.9211    1.6015 H         1 ATP        -0.0393
     41 H8          0.6089    2.4651   -2.2147 H         1 ATP         0.0000
     42 HN61       -2.5055    5.6680   -1.4503 H         1 ATP         0.2048
     43 HN62       -3.3462    6.4841   -0.1542 H         1 ATP         0.2048
     44 H2         -1.5932    4.4937    3.7066 H         1 ATP        -0.1292
     45 H45        -2.8098    5.8270    2.1160 H         1 ATP         0.2048
@<TRIPOS>BOND
     1    1    2 2
     2    1    3 1
     3    1    4 1
     4    1    8 1
     5    5    6 2
     6    5    7 1
     7    5    8 1
     8    5   12 1
     9    7   32 1
    10    9   10 2
    11    9   11 1
    12    9   12 1
    13    9   13 1
    14   13   14 1
    15   14   15 1
    16   14   33 1
    17   14   34 1
    18   15   16 1
    19   15   17 1
    20   15   35 1
    21   16   21 1
    22   17   18 1
    23   17   19 1
    24   17   36 1
    25   18   37 1
    26   19   20 1
    27   19   21 1
    28   19   38 1
    29   20   39 1
    30   21   22 1
    31   21   40 1
    32   22   23 ar
    33   22   31 ar
    34   23   24 ar
    35   23   41 1
    36   24   25 ar
    37   25   26 ar
    38   25   31 ar
    39   26   27 1
    40   26   28 ar
    41   27   42 1
    42   27   43 1
    43   28   29 ar
    44   28   45 1
    45   29   30 ar
    46   29   44 1
    47   30   31 ar
@<TRIPOS>SUBSTRUCTURE
     1 ATP         1 GROUP 0 A     ****
@<TRIPOS>MOLECULE
[[[5-(6-amino-1,8-dihydropurine-6,8-diylium-7-id-9-yl)-3,4-dihydroxy-tetrahydrofuran-2-yl]methoxy-oxido-phosphoryl]oxy-hydroxy-phosphoryl] phosphate
   45    47     1     0     0
SMALL
USER_CHARGES

@<TRIPOS>ATOM
      1 PG          1.9502    2.1054   -8.6152 P.3       1 ATP        -1.1921
      2 O1G         1.3738    0.8395   -9.2409 O.co2     1 ATP         0.3195
      3 O2G         3.3843    2.4135   -9.0333 O.co2     1 ATP         0.3195
      4 O3G         1.0143    3.3090   -8.6556 O.co2     1 ATP         0.3195
      5 PB          0.9435    1.3214   -5.9376 P.3       1 ATP        -0.9715
      6 O1B        -0.1397    2.3387   -5.7322 O.2       1 ATP         0.2707
      7 O2B         0.4372   -0.1131   -6.4855 O.3       1 ATP         0.0326
      8 O3B         2.0768    1.7421   -7.0123 O.3       1 ATP         0.4672
      9 PA          3.0383   -0.0994   -4.4226 P.3       1 ATP        -1.1062
     10 O1A         4.2309    0.4256   -5.1920 O.co2     1 ATP         0.3195
     11 O2A         2.5243   -1.5059   -4.6397 O.co2     1 ATP         0.3195
     12 O3A         1.7977    0.9421   -4.6200 O.3       1 ATP         0.4672
     13 O5'         3.2903    0.1346   -2.8241 O.3       1 ATP         0.1618
     14 C5'         2.2816   -0.2918   -1.9206 C.3       1 ATP         0.1504
     15 C4'         2.7248    0.0226   -0.4980 C.3       1 ATP         0.1111
     16 O4'         2.4697    1.4219   -0.2462 O.3       1 ATP        -0.1436
     17 C3'         1.9404   -0.7419    0.5596 C.3       1 ATP         0.1111
     18 O3'         2.7418   -0.8086    1.7389 O.3       1 ATP        -0.2728
     19 C2'         0.7477    0.1630    0.7858 C.3       1 ATP         0.1111
     20 O2'         0.1373   -0.0577    2.0407 O.3       1 ATP        -0.2728
     21 C1'         1.3733    1.5427    0.6747 C.3       1 ATP         0.2693
     22 N9          0.4520    2.5240    0.1767 N.pl3     1 ATP        -0.3222
     23 C8          0.1798    2.8712   -1.2933 C.ar      1 ATP         0.1640
     24 N7         -0.7494    3.8400   -1.3610 N.2       1 ATP        -0.1640
     25 C5         -1.0173    4.0603   -0.0358 C.ar      1 ATP         0.0820
     26 C6         -2.0105    5.0717    0.4241 C.ar      1 ATP         0.1640
     27 N6         -2.6723    5.7982   -0.4628 N.pl3     1 ATP        -0.4916
     28 N1         -2.1445    5.1522    1.7502 N.pl3     1 ATP        -0.4390
     29 C2         -1.3755    4.3143    2.6426 C.ar      1 ATP         0.5691
     30 N3         -0.5075    3.4292    2.2616 N.ar      1 ATP        -0.4283
     31 C4         -0.3667    3.3425    0.9070 C.ar      1 ATP         0.2226
     32 HOB2       -0.2046   -0.6256   -5.9492 H         1 ATP         0.2010
     33 H5'1        1.3514    0.2330   -2.1577 H         1 ATP        -0.0393
     34 H5'2        2.1280   -1.3678   -2.0460 H         1 ATP        -0.0393
     35 H4'         3.8040   -0.1399   -0.4044 H         1 ATP        -0.0393
     36 H3'         1.6768   -1.7637    0.2732 H         1 ATP        -0.0393
     37 HO3'        2.2231   -1.2979    2.3952 H         1 ATP         0.2010
     38 H2'         0.0002   -0.0084   -0.0014 H         1 ATP        -0.0393
     39 HO2'       -0.1554   -0.9852    2.0577 H         1 ATP         0.2010
     40 H1'         1.7718    1.9211    1.6015 H         1 ATP        -0.0393
     41 H8          0.6089    2.4651   -2.2147 H         1 ATP         0.0000
     42 HN61       -2.5055    5.6680   -1.4503 H         1 ATP         0.2048
     43 HN62       -3.3462    6.4841   -0.1542 H         1 ATP         0.2048
     44 H2         -1.5932    4.4937    3.7066 H         1 ATP        -0.1292
     45 H45        -2.8098    5.8270    2.1160 H         1 ATP         0.2048
@<TRIPOS>BOND
     1    1    2 2
     2    1    3 1
     3    1    4 1
     4    1    8 1
     5    5    6 2
     6    5    7 1
     7    5    8 1
     8    5   12 1
     9    7   32 1
    10    9   10 2
    11    9   11 1
    12    9   12 1
    13    9   13 1
    14   13   14 1
    15   14   15 1
    16   14   33 1
    17   14   34 1
    18   15   16 1
    19   15   17 1
    20   15   35 1
    21   16   21 1
    22   17   18 1
    23   17   19 1
    24   17   36 1
    25   18   37 1
    26   19   20 1
    27   19   21 1
    28   19   38 1
    29   20   39 1
    30   21   22 1
    31   21   40 1
    32   22   23 ar
    33   22   31 ar
    34   23   24 ar
    35   23   41 1
    36   24   25 ar
    37   25   26 ar
    38   25   31 ar
    39   26   27 1
    40   26   28 ar
    41   27   42 1
    42   27   43 1
    43   28   29 ar
    44   28   45 1
    45   29   30 ar
    46   29   44 1
    47   30   31 ar
@<TRIPOS>SUBSTRUCTURE
     1 ATP         1 GROUP 0 A     ****
@<TRIPOS>MOLECULE
[[[5-(6-amino-1,8-dihydropurine-6,8-diylium-7-id-9-yl)-3,4-dihydroxy-tetrahydrofuran-2-yl]methoxy-oxido-phosphoryl]oxy-hydroxy-phosphoryl] phosphate
   45    47     1     0     0
SMALL
USER_CHARGES

@<TRIPOS>ATOM
      1 PG          0.1230    5.6677   -3.9821 P.3       1 ATP        -1.1921
      2 O1G         1.1120    6.4050   -4.8791 O.co2     1 ATP         0.3195
      3 O2G         0.0026    6.2450   -2.5755 O.co2     1 ATP         0.3195
      4 O3G        -1.2136    5.3526   -4.6457 O.co2     1 ATP         0.3195
      5 PB          1.2318    3.0421   -4.8036 P.3       1 ATP        -0.9715
      6 O1B         0.0971    2.4972   -5.6197 O.2       1 ATP         0.2707
      7 O2B         2.4113    3.7440   -5.6582 O.3       1 ATP         0.0326
      8 O3B         0.8169    4.1915   -3.7438 O.3       1 ATP         0.4672
      9 PA          2.8307    0.6109   -4.3192 P.3       1 ATP        -1.1062
     10 O1A         4.0573    1.0195   -5.1055 O.co2     1 ATP         0.3195
     11 O2A         1.8435   -0.3926   -4.8743 O.co2     1 ATP         0.3195
     12 O3A         2.0158    1.9599   -3.8961 O.3       1 ATP         0.4672
     13 O5'         3.2903    0.1346   -2.8241 O.3       1 ATP         0.1618
     14 C5'         2.2816   -0.2918   -1.9206 C.3       1 ATP         0.1504
     15 C4'         2.7248    0.0226   -0.4980 C.3       1 ATP         0.1111
     16 O4'         2.4697    1.4219   -0.2462 O.3       1 ATP        -0.1436
     17 C3'         1.9404   -0.7419    0.5596 C.3       1 ATP         0.1111
     18 O3'         2.7418   -0.8086    1.7389 O.3       1 ATP        -0.2728
     19 C2'         0.7477    0.1630    0.7858 C.3       1 ATP         0.1111
     20 O2'         0.1373   -0.0577    2.0407 O.3       1 ATP        -0.2728
     21 C1'         1.3733    1.5427    0.6747 C.3       1 ATP         0.2693
     22 N9          0.4520    2.5240    0.1767 N.pl3     1 ATP        -0.3222
     23 C8         -0.3054    2.4845   -1.1576 C.ar      1 ATP         0.1640
     24 N7         -1.0755    3.5806   -1.2691 N.2       1 ATP        -0.1640
     25 C5         -0.8043    4.2306   -0.0942 C.ar      1 ATP         0.0820
     26 C6         -1.4324    5.5335    0.2646 C.ar      1 ATP         0.1640
     27 N6         -2.2885    6.1054   -0.5675 N.pl3     1 ATP        -0.4916
     28 N1         -1.0537    6.0229    1.4478 N.pl3     1 ATP        -0.4390
     29 C2         -0.1096    5.3242    2.2908 C.ar      1 ATP         0.5691
     30 N3          0.4468    4.1904    1.9960 N.ar      1 ATP        -0.4283
     31 C4          0.0631    3.6855    0.7877 C.ar      1 ATP         0.2226
     32 HOB2        2.1934    4.5179   -6.2200 H         1 ATP         0.2010
     33 H5'1        1.3514    0.2330   -2.1577 H         1 ATP        -0.0393
     34 H5'2        2.1280   -1.3678   -2.0460 H         1 ATP        -0.0393
     35 H4'         3.8040   -0.1399   -0.4044 H         1 ATP        -0.0393
     36 H3'         1.6768   -1.7637    0.2732 H         1 ATP        -0.0393
     37 HO3'        3.5553   -1.2733    1.4913 H         1 ATP         0.2010
     38 H2'         0.0002   -0.0084   -0.0014 H         1 ATP        -0.0393
     39 HO2'       -0.1554   -0.9852    2.0577 H         1 ATP         0.2010
     40 H1'         1.7718    1.9211    1.6015 H         1 ATP        -0.0393
     41 H8         -0.2991    1.7413   -1.9611 H         1 ATP         0.0000
     42 HN61       -2.5167    5.6603   -1.4447 H         1 ATP         0.2048
     43 HN62       -2.7159    6.9882   -0.3270 H         1 ATP         0.2048
     44 H2          0.1059    5.8491    3.2340 H         1 ATP        -0.1292
     45 H45        -1.4532    6.9099    1.7401 H         1 ATP         0.2048
@<TRIPOS>BOND
     1    1    2 2
     2    1    3 1
     3    1    4 1
     4    1    8 1
     5    5    6 2
     6    5    7 1
     7    5    8 1
     8    5   12 1
     9    7   32 1
    10    9   10 2
    11    9   11 1
    12    9   12 1
    13    9   13 1
    14   13   14 1
    15   14   15 1
    16   14   33 1
    17   14   34 1
    18   15   16 1
    19   15   17 1
    20   15   35 1
    21   16   21 1
    22   17   18 1
    23   17   19 1
    24   17   36 1
    25   18   37 1
    26   19   20 1
    27   19   21 1
    28   19   38 1
    29   20   39 1
    30   21   22 1
    31   21   40 1
    32   22   23 ar
    33   22   31 ar
    34   23   24 ar
    35   23   41 1
    36   24   25 ar
    37   25   26 ar
    38   25   31 ar
    39   26   27 1
    40   26   28 ar
    41   27   42 1
    42   27   43 1
    43   28   29 ar
    44   28   45 1
    45   29   30 ar
    46   29   44 1
    47   30   31 ar
@<TRIPOS>SUBSTRUCTURE
     1 ATP         1 GROUP 0 A     ****
@<TRIPOS>MOLECULE
[[[5-(6-amino-1,8-dihydropurine-6,8-diylium-7-id-9-yl)-3,4-dihydroxy-tetrahydrofuran-2-yl]methoxy-oxido-phosphoryl]oxy-hydroxy-phosphoryl] phosphate
   45    47     1     0     0
SMALL
USER_CHARGES

@<TRIPOS>ATOM
      1 PG          6.7114   -3.5856   -5.2520 P.3       1 ATP        -1.1921
      2 O1G         7.2790   -2.7364   -6.3847 O.co2     1 ATP         0.3195
      3 O2G         6.3827   -5.0209   -5.6497 O.co2     1 ATP         0.3195
      4 O3G         7.4656   -3.4590   -3.9324 O.co2     1 ATP         0.3195
      5 PB          4.8413   -1.4187   -4.4741 P.3       1 ATP        -0.9715
      6 O1B         5.4295   -0.9934   -3.1612 O.2       1 ATP         0.2707
      7 O2B         5.2745   -0.5127   -5.7413 O.3       1 ATP         0.0326
      8 O3B         5.2374   -2.9149   -4.9440 O.3       1 ATP         0.4672
      9 PA          2.1265   -2.2419   -3.6650 P.3       1 ATP        -1.1062
     10 O1A         2.4690   -3.7144   -3.7280 O.co2     1 ATP         0.3195
     11 O2A         0.7465   -1.7427   -4.0336 O.co2     1 ATP         0.3195
     12 O3A         3.2274   -1.4180   -4.5438 O.3       1 ATP         0.4672
     13 O5'         2.5245   -1.6648   -2.1878 O.3       1 ATP         0.1618
     14 C5'         2.2816   -0.2918   -1.9206 C.3       1 ATP         0.1504
     15 C4'         2.7248    0.0226   -0.4980 C.3       1 ATP         0.1111
     16 O4'         2.4697    1.4219   -0.2462 O.3       1 ATP        -0.1436
     17 C3'         1.9404   -0.7419    0.5596 C.3       1 ATP         0.1111
     18 O3'         2.7418   -0.8086    1.7389 O.3       1 ATP        -0.2728
     19 C2'         0.7477    0.1630    0.7858 C.3       1 ATP         0.1111
     20 O2'         0.1373   -0.0577    2.0407 O.3       1 ATP        -0.2728
     21 C1'         1.3733    1.5427    0.6747 C.3       1 ATP         0.2693
     22 N9          0.4520    2.5240    0.1767 N.pl3     1 ATP        -0.3222
     23 C8          0.1798    2.8712   -1.2933 C.ar      1 ATP         0.1640
     24 N7         -0.7494    3.8400   -1.3610 N.2       1 ATP        -0.1640
     25 C5         -1.0173    4.0603   -0.0358 C.ar      1 ATP         0.0820
     26 C6         -2.0105    5.0717    0.4241 C.ar      1 ATP         0.1640
     27 N6         -2.6723    5.7982   -0.4628 N.pl3     1 ATP        -0.4916
     28 N1         -2.1445    5.1522    1.7502 N.pl3     1 ATP        -0.4390
     29 C2         -1.3755    4.3143    2.6426 C.ar      1 ATP         0.5691
     30 N3         -0.5075    3.4292    2.2616 N.ar      1 ATP        -0.4283
     31 C4         -0.3667    3.3425    0.9070 C.ar      1 ATP         0.2226
     32 HOB2        6.2254   -0.4454   -5.9727 H         1 ATP         0.2010
     33 H5'1        2.8432    0.3119   -2.6398 H         1 ATP        -0.0393
     34 H5'2        1.2128   -0.0927   -2.0428 H         1 ATP        -0.0393
     35 H4'         3.8040   -0.1399   -0.4044 H         1 ATP        -0.0393
     36 H3'         1.6768   -1.7637    0.2732 H         1 ATP        -0.0393
     37 HO3'        2.2231   -1.2979    2.3952 H         1 ATP         0.2010
     38 H2'         0.0002   -0.0084   -0.0014 H         1 ATP        -0.0393
     39 HO2'       -0.6132    0.5577    2.1063 H         1 ATP         0.2010
     40 H1'         1.7718    1.9211    1.6015 H         1 ATP        -0.0393
     41 H8          0.6089    2.4651   -2.2147 H         1 ATP         0.0000
     42 HN61       -2.5055    5.6680   -1.4503 H         1 ATP         0.2048
     43 HN62       -3.3462    6.4841   -0.1542 H         1 ATP         0.2048
     44 H2         -1.5932    4.4937    3.7066 H         1 ATP        -0.1292
     45 H45        -2.8098    5.8270    2.1160 H         1 ATP         0.2048
@<TRIPOS>BOND
     1    1    2 2
     2    1    3 1
     3    1    4 1
     4    1    8 1
     5    5    6 2
     6    5    7 1
     7    5    8 1
     8    5   12 1
     9    7   32 1
    10    9   10 2
    11    9   11 1
    12    9   12 1
    13    9   13 1
    14   13   14 1
    15   14   15 1
    16   14   33 1
    17   14   34 1
    18   15   16 1
    19   15   17 1
    20   15   35 1
    21   16   21 1
    22   17   18 1
    23   17   19 1
    24   17   36 1
    25   18   37 1
    26   19   20 1
    27   19   21 1
    28   19   38 1
    29   20   39 1
    30   21   22 1
    31   21   40 1
    32   22   23 ar
    33   22   31 ar
    34   23   24 ar
    35   23   41 1
    36   24   25 ar
    37   25   26 ar
    38   25   31 ar
    39   26   27 1
    40   26   28 ar
    41   27   42 1
    42   27   43 1
    43   28   29 ar
    44   28   45 1
    45   29   30 ar
    46   29   44 1
    47   30   31 ar
@<TRIPOS>SUBSTRUCTURE
     1 ATP         1 GROUP 0 A     ****
@<TRIPOS>MOLECULE
[[[5-(6-amino-1,8-dihydropurine-6,8-diylium-7-id-9-yl)-3,4-dihydroxy-tetrahydrofuran-2-yl]methoxy-oxido-phosphoryl]oxy-hydroxy-phosphoryl] phosphate
   45    47     1     0     0
SMALL
USER_CHARGES

@<TRIPOS>ATOM
      1 PG         -1.9580   -2.1778   -2.0240 P.3       1 ATP        -1.1921
      2 O1G        -1.6273   -2.1122   -0.5365 O.co2     1 ATP         0.3195
      3 O2G        -3.3977   -2.5792   -2.3282 O.co2     1 ATP         0.3195
      4 O3G        -1.4565   -0.9860   -2.8328 O.co2     1 ATP         0.3195
      5 PB          0.5302   -3.6937   -2.5793 P.3       1 ATP        -0.9715
      6 O1B         1.1667   -3.7027   -1.2209 O.2       1 ATP         0.2707
      7 O2B         0.6887   -5.0680   -3.4162 O.3       1 ATP         0.0326
      8 O3B        -1.0688   -3.4497   -2.5797 O.3       1 ATP         0.4672
      9 PA          2.5993   -2.0261   -3.8600 P.3       1 ATP        -1.1062
     10 O1A         2.5293   -0.8457   -4.8042 O.co2     1 ATP         0.3195
     11 O2A         3.4881   -3.2141   -4.1567 O.co2     1 ATP         0.3195
     12 O3A         1.0823   -2.5666   -3.5964 O.3       1 ATP         0.4672
     13 O5'         2.9216   -1.4836   -2.3516 O.3       1 ATP         0.1618
     14 C5'         2.2816   -0.2918   -1.9206 C.3       1 ATP         0.1504
     15 C4'         2.7248    0.0226   -0.4980 C.3       1 ATP         0.1111
     16 O4'         2.4697    1.4219   -0.2462 O.3       1 ATP        -0.1436
     17 C3'         1.9404   -0.7419    0.5596 C.3       1 ATP         0.1111
     18 O3'         2.7418   -0.8086    1.7389 O.3       1 ATP        -0.2728
     19 C2'         0.7477    0.1630    0.7858 C.3       1 ATP         0.1111
     20 O2'         0.1373   -0.0577    2.0407 O.3       1 ATP        -0.2728
     21 C1'         1.3733    1.5427    0.6747 C.3       1 ATP         0.2693
     22 N9          0.4520    2.5240    0.1767 N.pl3     1 ATP        -0.3222
     23 C8          0.1798    2.8712   -1.2933 C.ar      1 ATP         0.1640
     24 N7         -0.7494    3.8400   -1.3610 N.2       1 ATP        -0.1640
     25 C5         -1.0173    4.0603   -0.0358 C.ar      1 ATP         0.0820
     26 C6         -2.0105    5.0717    0.4241 C.ar      1 ATP         0.1640
     27 N6         -2.6723    5.7982   -0.4628 N.pl3     1 ATP        -0.4916
     28 N1         -2.1445    5.1522    1.7502 N.pl3     1 ATP        -0.4390
     29 C2         -1.3755    4.3143    2.6426 C.ar      1 ATP         0.5691
     30 N3         -0.5075    3.4292    2.2616 N.ar      1 ATP        -0.4283
     31 C4         -0.3667    3.3425    0.9070 C.ar      1 ATP         0.2226
     32 HOB2        1.5897   -5.3906   -3.6314 H         1 ATP         0.2010
     33 H5'1        2.5589    0.5217   -2.5976 H         1 ATP        -0.0393
     34 H5'2        1.1982   -0.4388   -1.9617 H         1 ATP        -0.0393
     35 H4'         3.8040   -0.1399   -0.4044 H         1 ATP        -0.0393
     36 H3'         1.6768   -1.7637    0.2732 H         1 ATP        -0.0393
     37 HO3'        2.2231   -1.2979    2.3952 H         1 ATP         0.2010
     38 H2'         0.0002   -0.0084   -0.0014 H         1 ATP        -0.0393
     39 HO2'       -0.1554   -0.9852    2.0577 H         1 ATP         0.2010
     40 H1'         1.7718    1.9211    1.6015 H         1 ATP        -0.0393
     41 H8          0.6089    2.4651   -2.2147 H         1 ATP         0.0000
     42 HN61       -2.5055    5.6680   -1.4503 H         1 ATP         0.2048
     43 HN62       -3.3462    6.4841   -0.1542 H         1 ATP         0.2048
     44 H2         -1.5932    4.4937    3.7066 H         1 ATP        -0.1292
     45 H45        -2.8098    5.8270    2.1160 H         1 ATP         0.2048
@<TRIPOS>BOND
     1    1    2 2
     2    1    3 1
     3    1    4 1
     4    1    8 1
     5    5    6 2
     6    5    7 1
     7    5    8 1
     8    5   12 1
     9    7   32 1
    10    9   10 2
    11    9   11 1
    12    9   12 1
    13    9   13 1
    14   13   14 1
    15   14   15 1
    16   14   33 1
    17   14   34 1
    18   15   16 1
    19   15   17 1
    20   15   35 1
    21   16   21 1
    22   17   18 1
    23   17   19 1
    24   17   36 1
    25   18   37 1
    26   19   20 1
    27   19   21 1
    28   19   38 1
    29   20   39 1
    30   21   22 1
    31   21   40 1
    32   22   23 ar
    33   22   31 ar
    34   23   24 ar
    35   23   41 1
    36   24   25 ar
    37   25   26 ar
    38   25   31 ar
    39   26   27 1
    40   26   28 ar
    41   27   42 1
    42   27   43 1
    43   28   29 ar
    44   28   45 1
    45   29   30 ar
    46   29   44 1
    47   30   31 ar
@<TRIPOS>SUBSTRUCTURE
     1 ATP         1 GROUP 0 A     ****
@<TRIPOS>MOLECULE
[[[5-(6-amino-1,8-dihydropurine-6,8-diylium-7-id-9-yl)-3,4-dihydroxy-tetrahydrofuran-2-yl]methoxy-oxido-phosphoryl]oxy-hydroxy-phosphoryl] phosphate
   45    47     1     0     0
SMALL
USER_CHARGES

@<TRIPOS>ATOM
      1 PG          1.8219   -0.3051   -8.3020 P.3       1 ATP        -1.1921
      2 O1G         2.8774    0.7439   -8.6360 O.co2     1 ATP         0.3195
      3 O2G         0.4020    0.2436   -8.2065 O.co2     1 ATP         0.3195
      4 O3G         1.9413   -1.5955   -9.1062 O.co2     1 ATP         0.3195
      5 PB          3.5141   -1.4151   -6.1335 P.3       1 ATP        -0.9715
      6 O1B         3.8958   -2.7415   -6.7215 O.2       1 ATP         0.2707
      7 O2B         4.6151   -0.2453   -6.3168 O.3       1 ATP         0.0326
      8 O3B         2.1749   -0.7552   -6.7559 O.3       1 ATP         0.4672
      9 PA          2.1265   -2.2419   -3.6650 P.3       1 ATP        -1.1062
     10 O1A         2.4690   -3.7144   -3.7280 O.co2     1 ATP         0.3195
     11 O2A         0.7465   -1.7427   -4.0336 O.co2     1 ATP         0.3195
     12 O3A         3.2274   -1.4180   -4.5438 O.3       1 ATP         0.4672
     13 O5'         2.5245   -1.6648   -2.1878 O.3       1 ATP         0.1618
     14 C5'         2.2816   -0.2918   -1.9206 C.3       1 ATP         0.1504
     15 C4'         2.7248    0.0226   -0.4980 C.3       1 ATP         0.1111
     16 O4'         2.4697    1.4219   -0.2462 O.3       1 ATP        -0.1436
     17 C3'         1.9404   -0.7419    0.5596 C.3       1 ATP         0.1111
     18 O3'         2.7418   -0.8086    1.7389 O.3       1 ATP        -0.2728
     19 C2'         0.7477    0.1630    0.7858 C.3       1 ATP         0.1111
     20 O2'         0.1373   -0.0577    2.0407 O.3       1 ATP        -0.2728
     21 C1'         1.3733    1.5427    0.6747 C.3       1 ATP         0.2693
     22 N9          0.4520    2.5240    0.1767 N.pl3     1 ATP        -0.3222
     23 C8          0.1798    2.8712   -1.2933 C.ar      1 ATP         0.1640
     24 N7         -0.7494    3.8400   -1.3610 N.2       1 ATP        -0.1640
     25 C5         -1.0173    4.0603   -0.0358 C.ar      1 ATP         0.0820
     26 C6         -2.0105    5.0717    0.4241 C.ar      1 ATP         0.1640
     27 N6         -2.6723    5.7982   -0.4628 N.pl3     1 ATP        -0.4916
     28 N1         -2.1445    5.1522    1.7502 N.pl3     1 ATP        -0.4390
     29 C2         -1.3755    4.3143    2.6426 C.ar      1 ATP         0.5691
     30 N3         -0.5075    3.4292    2.2616 N.ar      1 ATP        -0.4283
     31 C4         -0.3667    3.3425    0.9070 C.ar      1 ATP         0.2226
     32 HOB2        4.8795    0.0187   -7.2237 H         1 ATP         0.2010
     33 H5'1        2.8432    0.3119   -2.6398 H         1 ATP        -0.0393
     34 H5'2        1.2128   -0.0927   -2.0428 H         1 ATP        -0.0393
     35 H4'         3.8040   -0.1399   -0.4044 H         1 ATP        -0.0393
     36 H3'         1.6768   -1.7637    0.2732 H         1 ATP        -0.0393
     37 HO3'        2.2231   -1.2979    2.3952 H         1 ATP         0.2010
     38 H2'         0.0002   -0.0084   -0.0014 H         1 ATP        -0.0393
     39 HO2'       -0.6132    0.5577    2.1063 H         1 ATP         0.2010
     40 H1'         1.7718    1.9211    1.6015 H         1 ATP        -0.0393
     41 H8          0.6089    2.4651   -2.2147 H         1 ATP         0.0000
     42 HN61       -2.5055    5.6680   -1.4503 H         1 ATP         0.2048
     43 HN62       -3.3462    6.4841   -0.1542 H         1 ATP         0.2048
     44 H2         -1.5932    4.4937    3.7066 H         1 ATP        -0.1292
     45 H45        -2.8098    5.8270    2.1160 H         1 ATP         0.2048
@<TRIPOS>BOND
     1    1    2 2
     2    1    3 1
     3    1    4 1
     4    1    8 1
     5    5    6 2
     6    5    7 1
     7    5    8 1
     8    5   12 1
     9    7   32 1
    10    9   10 2
    11    9   11 1
    12    9   12 1
    13    9   13 1
    14   13   14 1
    15   14   15 1
    16   14   33 1
    17   14   34 1
    18   15   16 1
    19   15   17 1
    20   15   35 1
    21   16   21 1
    22   17   18 1
    23   17   19 1
    24   17   36 1
    25   18   37 1
    26   19   20 1
    27   19   21 1
    28   19   38 1
    29   20   39 1
    30   21   22 1
    31   21   40 1
    32   22   23 ar
    33   22   31 ar
    34   23   24 ar
    35   23   41 1
    36   24   25 ar
    37   25   26 ar
    38   25   31 ar
    39   26   27 1
    40   26   28 ar
    41   27   42 1
    42   27   43 1
    43   28   29 ar
    44   28   45 1
    45   29   30 ar
    46   29   44 1
    47   30   31 ar
@<TRIPOS>SUBSTRUCTURE
     1 ATP         1 GROUP 0 A     ****
@<TRIPOS>MOLECULE
[[[5-(6-amino-1,8-dihydropurine-6,8-diylium-7-id-9-yl)-3,4-dihydroxy-tetrahydrofuran-2-yl]methoxy-oxido-phosphoryl]oxy-hydroxy-phosphoryl] phosphate
   45    47     1     0     0
SMALL
USER_CHARGES

@<TRIPOS>ATOM
      1 PG          3.1859   -5.7230   -5.5929 P.3       1 ATP        -1.1921
      2 O1G         1.7611   -5.7809   -6.1342 O.co2     1 ATP         0.3195
      3 O2G         3.4363   -6.6280   -4.3910 O.co2     1 ATP         0.3195
      4 O3G         4.2689   -5.7920   -6.6646 O.co2     1 ATP         0.3195
      5 PB          3.1752   -2.7586   -5.6923 P.3       1 ATP        -0.9715
      6 O1B         4.1452   -2.5082   -6.8090 O.2       1 ATP         0.2707
      7 O2B         1.6167   -2.7222   -6.1212 O.3       1 ATP         0.0326
      8 O3B         3.3216   -4.2009   -4.9748 O.3       1 ATP         0.4672
      9 PA          3.0383   -0.0994   -4.4226 P.3       1 ATP        -1.1062
     10 O1A         1.5898    0.1994   -4.7425 O.co2     1 ATP         0.3195
     11 O2A         4.1619    0.5520   -5.1990 O.co2     1 ATP         0.3195
     12 O3A         3.2521   -1.7167   -4.4602 O.3       1 ATP         0.4672
     13 O5'         3.2903    0.1346   -2.8241 O.3       1 ATP         0.1618
     14 C5'         2.2816   -0.2918   -1.9206 C.3       1 ATP         0.1504
     15 C4'         2.7248    0.0226   -0.4980 C.3       1 ATP         0.1111
     16 O4'         2.4697    1.4219   -0.2462 O.3       1 ATP        -0.1436
     17 C3'         1.9404   -0.7419    0.5596 C.3       1 ATP         0.1111
     18 O3'         2.7418   -0.8086    1.7389 O.3       1 ATP        -0.2728
     19 C2'         0.7477    0.1630    0.7858 C.3       1 ATP         0.1111
     20 O2'         0.1373   -0.0577    2.0407 O.3       1 ATP        -0.2728
     21 C1'         1.3733    1.5427    0.6747 C.3       1 ATP         0.2693
     22 N9          0.4520    2.5240    0.1767 N.pl3     1 ATP        -0.3222
     23 C8          0.1798    2.8712   -1.2933 C.ar      1 ATP         0.1640
     24 N7         -0.7494    3.8400   -1.3610 N.2       1 ATP        -0.1640
     25 C5         -1.0173    4.0603   -0.0358 C.ar      1 ATP         0.0820
     26 C6         -2.0105    5.0717    0.4241 C.ar      1 ATP         0.1640
     27 N6         -2.6723    5.7982   -0.4628 N.pl3     1 ATP        -0.4916
     28 N1         -2.1445    5.1522    1.7502 N.pl3     1 ATP        -0.4390
     29 C2         -1.3755    4.3143    2.6426 C.ar      1 ATP         0.5691
     30 N3         -0.5075    3.4292    2.2616 N.ar      1 ATP        -0.4283
     31 C4         -0.3667    3.3425    0.9070 C.ar      1 ATP         0.2226
     32 HOB2        1.2510   -1.8985   -6.5086 H         1 ATP         0.2010
     33 H5'1        1.3514    0.2330   -2.1577 H         1 ATP        -0.0393
     34 H5'2        2.1280   -1.3678   -2.0460 H         1 ATP        -0.0393
     35 H4'         3.8040   -0.1399   -0.4044 H         1 ATP        -0.0393
     36 H3'         1.6768   -1.7637    0.2732 H         1 ATP        -0.0393
     37 HO3'        2.2231   -1.2979    2.3952 H         1 ATP         0.2010
     38 H2'         0.0002   -0.0084   -0.0014 H         1 ATP        -0.0393
     39 HO2'       -0.6132    0.5577    2.1063 H         1 ATP         0.2010
     40 H1'         1.7718    1.9211    1.6015 H         1 ATP        -0.0393
     41 H8          0.6089    2.4651   -2.2147 H         1 ATP         0.0000
     42 HN61       -2.5055    5.6680   -1.4503 H         1 ATP         0.2048
     43 HN62       -3.3462    6.4841   -0.1542 H         1 ATP         0.2048
     44 H2         -1.5932    4.4937    3.7066 H         1 ATP        -0.1292
     45 H45        -2.8098    5.8270    2.1160 H         1 ATP         0.2048
@<TRIPOS>BOND
     1    1    2 2
     2    1    3 1
     3    1    4 1
     4    1    8 1
     5    5    6 2
     6    5    7 1
     7    5    8 1
     8    5   12 1
     9    7   32 1
    10    9   10 2
    11    9   11 1
    12    9   12 1
    13    9   13 1
    14   13   14 1
    15   14   15 1
    16   14   33 1
    17   14   34 1
    18   15   16 1
    19   15   17 1
    20   15   35 1
    21   16   21 1
    22   17   18 1
    23   17   19 1
    24   17   36 1
    25   18   37 1
    26   19   20 1
    27   19   21 1
    28   19   38 1
    29   20   39 1
    30   21   22 1
    31   21   40 1
    32   22   23 ar
    33   22   31 ar
    34   23   24 ar
    35   23   41 1
    36   24   25 ar
    37   25   26 ar
    38   25   31 ar
    39   26   27 1
    40   26   28 ar
    41   27   42 1
    42   27   43 1
    43   28   29 ar
    44   28   45 1
    45   29   30 ar
    46   29   44 1
    47   30   31 ar
@<TRIPOS>SUBSTRUCTURE
     1 ATP         1 GROUP 0 A     ****
@<TRIPOS>MOLECULE
[[[5-(6-amino-1,8-dihydropurine-6,8-diylium-7-id-9-yl)-3,4-dihydroxy-tetrahydrofuran-2-yl]methoxy-oxido-phosphoryl]oxy-hydroxy-phosphoryl] phosphate
   45    47     1     0     0
SMALL
USER_CHARGES

@<TRIPOS>ATOM
      1 PG         -1.0326   -1.8550   -7.3383 P.3       1 ATP        -1.1921
      2 O1G        -0.7889   -3.2805   -7.8230 O.co2     1 ATP         0.3195
      3 O2G        -0.2704   -0.7893   -8.1190 O.co2     1 ATP         0.3195
      4 O3G        -2.4988   -1.5181   -7.0875 O.co2     1 ATP         0.3195
      5 PB         -0.6645   -2.6808   -4.5134 P.3       1 ATP        -0.9715
      6 O1B        -2.0642   -2.5417   -3.9919 O.2       1 ATP         0.2707
      7 O2B        -0.2439   -4.1804   -4.9473 O.3       1 ATP         0.0326
      8 O3B        -0.3441   -1.8143   -5.8411 O.3       1 ATP         0.4672
      9 PA          2.1265   -2.2419   -3.6650 P.3       1 ATP        -1.1062
     10 O1A         2.4931   -1.2125   -4.7118 O.co2     1 ATP         0.3195
     11 O2A         2.5985   -3.6751   -3.7777 O.co2     1 ATP         0.3195
     12 O3A         0.5044   -2.2428   -3.4880 O.3       1 ATP         0.4672
     13 O5'         2.5245   -1.6648   -2.1878 O.3       1 ATP         0.1618
     14 C5'         2.2816   -0.2918   -1.9206 C.3       1 ATP         0.1504
     15 C4'         2.7248    0.0226   -0.4980 C.3       1 ATP         0.1111
     16 O4'         2.4697    1.4219   -0.2462 O.3       1 ATP        -0.1436
     17 C3'         1.9404   -0.7419    0.5596 C.3       1 ATP         0.1111
     18 O3'         2.7418   -0.8086    1.7389 O.3       1 ATP        -0.2728
     19 C2'         0.7477    0.1630    0.7858 C.3       1 ATP         0.1111
     20 O2'         0.1373   -0.0577    2.0407 O.3       1 ATP        -0.2728
     21 C1'         1.3733    1.5427    0.6747 C.3       1 ATP         0.2693
     22 N9          0.4520    2.5240    0.1767 N.pl3     1 ATP        -0.3222
     23 C8          0.1798    2.8712   -1.2933 C.ar      1 ATP         0.1640
     24 N7         -0.7494    3.8400   -1.3610 N.2       1 ATP        -0.1640
     25 C5         -1.0173    4.0603   -0.0358 C.ar      1 ATP         0.0820
     26 C6         -2.0105    5.0717    0.4241 C.ar      1 ATP         0.1640
     27 N6         -2.6723    5.7982   -0.4628 N.pl3     1 ATP        -0.4916
     28 N1         -2.1445    5.1522    1.7502 N.pl3     1 ATP        -0.4390
     29 C2         -1.3755    4.3143    2.6426 C.ar      1 ATP         0.5691
     30 N3         -0.5075    3.4292    2.2616 N.ar      1 ATP        -0.4283
     31 C4         -0.3667    3.3425    0.9070 C.ar      1 ATP         0.2226
     32 HOB2       -0.2665   -4.8927   -4.2733 H         1 ATP         0.2010
     33 H5'1        2.8432    0.3119   -2.6398 H         1 ATP        -0.0393
     34 H5'2        1.2128   -0.0927   -2.0428 H         1 ATP        -0.0393
     35 H4'         3.8040   -0.1399   -0.4044 H         1 ATP        -0.0393
     36 H3'         1.6768   -1.7637    0.2732 H         1 ATP        -0.0393
     37 HO3'        2.2231   -1.2979    2.3952 H         1 ATP         0.2010
     38 H2'         0.0002   -0.0084   -0.0014 H         1 ATP        -0.0393
     39 HO2'       -0.6132    0.5577    2.1063 H         1 ATP         0.2010
     40 H1'         1.7718    1.9211    1.6015 H         1 ATP        -0.0393
     41 H8          0.6089    2.4651   -2.2147 H         1 ATP         0.0000
     42 HN61       -2.5055    5.6680   -1.4503 H         1 ATP         0.2048
     43 HN62       -3.3462    6.4841   -0.1542 H         1 ATP         0.2048
     44 H2         -1.5932    4.4937    3.7066 H         1 ATP        -0.1292
     45 H45        -2.8098    5.8270    2.1160 H         1 ATP         0.2048
@<TRIPOS>BOND
     1    1    2 2
     2    1    3 1
     3    1    4 1
     4    1    8 1
     5    5    6 2
     6    5    7 1
     7    5    8 1
     8    5   12 1
     9    7   32 1
    10    9   10 2
    11    9   11 1
    12    9   12 1
    13    9   13 1
    14   13   14 1
    15   14   15 1
    16   14   33 1
    17   14   34 1
    18   15   16 1
    19   15   17 1
    20   15   35 1
    21   16   21 1
    22   17   18 1
    23   17   19 1
    24   17   36 1
    25   18   37 1
    26   19   20 1
    27   19   21 1
    28   19   38 1
    29   20   39 1
    30   21   22 1
    31   21   40 1
    32   22   23 ar
    33   22   31 ar
    34   23   24 ar
    35   23   41 1
    36   24   25 ar
    37   25   26 ar
    38   25   31 ar
    39   26   27 1
    40   26   28 ar
    41   27   42 1
    42   27   43 1
    43   28   29 ar
    44   28   45 1
    45   29   30 ar
    46   29   44 1
    47   30   31 ar
@<TRIPOS>SUBSTRUCTURE
     1 ATP         1 GROUP 0 A     ****
@<TRIPOS>MOLECULE
[[[5-(6-amino-1,8-dihydropurine-6,8-diylium-7-id-9-yl)-3,4-dihydroxy-tetrahydrofuran-2-yl]methoxy-oxido-phosphoryl]oxy-hydroxy-phosphoryl] phosphate
   45    47     1     0     0
SMALL
USER_CHARGES

@<TRIPOS>ATOM
      1 PG         -1.2806   -0.9376   -7.1957 P.3       1 ATP        -1.1921
      2 O1G        -2.6244   -0.4584   -6.6563 O.co2     1 ATP         0.3195
      3 O2G        -1.0895   -2.4500   -7.1465 O.co2     1 ATP         0.3195
      4 O3G        -0.8693   -0.2976   -8.5176 O.co2     1 ATP         0.3195
      5 PB          0.1582    1.1489   -5.6549 P.3       1 ATP        -0.9715
      6 O1B         0.6244    2.0485   -6.7612 O.2       1 ATP         0.2707
      7 O2B        -1.2009    1.6219   -4.9177 O.3       1 ATP         0.0326
      8 O3B        -0.1818   -0.3662   -6.1078 O.3       1 ATP         0.4672
      9 PA          2.7180    0.3539   -4.4230 P.3       1 ATP        -1.1062
     10 O1A         3.6120    1.3016   -5.1928 O.co2     1 ATP         0.3195
     11 O2A         2.6578   -1.1184   -4.7669 O.co2     1 ATP         0.3195
     12 O3A         1.1997    0.9517   -4.4359 O.3       1 ATP         0.4672
     13 O5'         3.0213    0.5153   -2.8245 O.3       1 ATP         0.1618
     14 C5'         2.2816   -0.2918   -1.9206 C.3       1 ATP         0.1504
     15 C4'         2.7248    0.0226   -0.4980 C.3       1 ATP         0.1111
     16 O4'         2.4697    1.4219   -0.2462 O.3       1 ATP        -0.1436
     17 C3'         1.9404   -0.7419    0.5596 C.3       1 ATP         0.1111
     18 O3'         2.7418   -0.8086    1.7389 O.3       1 ATP        -0.2728
     19 C2'         0.7477    0.1630    0.7858 C.3       1 ATP         0.1111
     20 O2'         0.1373   -0.0577    2.0407 O.3       1 ATP        -0.2728
     21 C1'         1.3733    1.5427    0.6747 C.3       1 ATP         0.2693
     22 N9          0.4520    2.5240    0.1767 N.pl3     1 ATP        -0.3222
     23 C8         -0.8593    2.9753    0.8343 C.ar      1 ATP         0.1640
     24 N7         -1.4457    3.9121    0.0693 N.2       1 ATP        -0.1640
     25 C5         -0.5581    4.0180   -0.9686 C.ar      1 ATP         0.0820
     26 C6         -0.7663    4.9543   -2.1092 C.ar      1 ATP         0.1640
     27 N6         -1.8429    5.7238   -2.1440 N.pl3     1 ATP        -0.4916
     28 N1          0.1993    4.9263   -3.0311 N.pl3     1 ATP        -0.4390
     29 C2          1.3416    4.0491   -2.9069 C.ar      1 ATP         0.5691
     30 N3          1.5401    3.2284   -1.9225 N.ar      1 ATP        -0.4283
     31 C4          0.5563    3.2529   -0.9772 C.ar      1 ATP         0.2226
     32 HOB2       -1.2187    2.4954   -4.4718 H         1 ATP         0.2010
     33 H5'1        1.2163   -0.0770   -2.0471 H         1 ATP        -0.0393
     34 H5'2        2.4655   -1.3443   -2.1563 H         1 ATP        -0.0393
     35 H4'         3.8040   -0.1399   -0.4044 H         1 ATP        -0.0393
     36 H3'         1.6768   -1.7637    0.2732 H         1 ATP        -0.0393
     37 HO3'        2.2231   -1.2979    2.3952 H         1 ATP         0.2010
     38 H2'         0.0002   -0.0084   -0.0014 H         1 ATP        -0.0393
     39 HO2'       -0.1554   -0.9852    2.0577 H         1 ATP         0.2010
     40 H1'         1.7718    1.9211    1.6015 H         1 ATP        -0.0393
     41 H8         -1.3368    2.6590    1.7670 H         1 ATP         0.0000
     42 HN61       -2.5230    5.6776   -1.3990 H         1 ATP         0.2048
     43 HN62       -1.9865    6.3594   -2.9154 H         1 ATP         0.2048
     44 H2          2.0529    4.1368   -3.7423 H         1 ATP        -0.1292
     45 H45         0.1054    5.5465   -3.8301 H         1 ATP         0.2048
@<TRIPOS>BOND
     1    1    2 2
     2    1    3 1
     3    1    4 1
     4    1    8 1
     5    5    6 2
     6    5    7 1
     7    5    8 1
     8    5   12 1
     9    7   32 1
    10    9   10 2
    11    9   11 1
    12    9   12 1
    13    9   13 1
    14   13   14 1
    15   14   15 1
    16   14   33 1
    17   14   34 1
    18   15   16 1
    19   15   17 1
    20   15   35 1
    21   16   21 1
    22   17   18 1
    23   17   19 1
    24   17   36 1
    25   18   37 1
    26   19   20 1
    27   19   21 1
    28   19   38 1
    29   20   39 1
    30   21   22 1
    31   21   40 1
    32   22   23 ar
    33   22   31 ar
    34   23   24 ar
    35   23   41 1
    36   24   25 ar
    37   25   26 ar
    38   25   31 ar
    39   26   27 1
    40   26   28 ar
    41   27   42 1
    42   27   43 1
    43   28   29 ar
    44   28   45 1
    45   29   30 ar
    46   29   44 1
    47   30   31 ar
@<TRIPOS>SUBSTRUCTURE
     1 ATP         1 GROUP 0 A     ****
@<TRIPOS>MOLECULE
[[[5-(6-amino-1,8-dihydropurine-6,8-diylium-7-id-9-yl)-3,4-dihydroxy-tetrahydrofuran-2-yl]methoxy-oxido-phosphoryl]oxy-hydroxy-phosphoryl] phosphate
   45    47     1     0     0
SMALL
USER_CHARGES

@<TRIPOS>ATOM
      1 PG          4.2084   -4.1282   -6.8551 P.3       1 ATP        -1.1921
      2 O1G         4.9295   -3.3826   -7.9733 O.co2     1 ATP         0.3195
      3 O2G         2.7544   -4.4686   -7.1657 O.co2     1 ATP         0.3195
      4 O3G         5.0054   -5.2798   -6.2513 O.co2     1 ATP         0.3195
      5 PB          5.2616   -2.2396   -4.8249 P.3       1 ATP        -0.9715
      6 O1B         6.2226   -3.1234   -4.0861 O.2       1 ATP         0.2707
      7 O2B         5.9307   -1.3033   -5.9606 O.3       1 ATP         0.0326
      8 O3B         4.1024   -3.0236   -5.6361 O.3       1 ATP         0.4672
      9 PA          3.3181   -0.0790   -4.3186 P.3       1 ATP        -1.1062
     10 O1A         2.0846   -0.8003   -4.8164 O.co2     1 ATP         0.3195
     11 O2A         3.9876    0.9926   -5.1510 O.co2     1 ATP         0.3195
     12 O3A         4.4380   -1.1934   -3.9103 O.3       1 ATP         0.4672
     13 O5'         3.0213    0.5153   -2.8245 O.3       1 ATP         0.1618
     14 C5'         2.2816   -0.2918   -1.9206 C.3       1 ATP         0.1504
     15 C4'         2.7248    0.0226   -0.4980 C.3       1 ATP         0.1111
     16 O4'         2.4697    1.4219   -0.2462 O.3       1 ATP        -0.1436
     17 C3'         1.9404   -0.7419    0.5596 C.3       1 ATP         0.1111
     18 O3'         2.7418   -0.8086    1.7389 O.3       1 ATP        -0.2728
     19 C2'         0.7477    0.1630    0.7858 C.3       1 ATP         0.1111
     20 O2'         0.1373   -0.0577    2.0407 O.3       1 ATP        -0.2728
     21 C1'         1.3733    1.5427    0.6747 C.3       1 ATP         0.2693
     22 N9          0.4520    2.5240    0.1767 N.pl3     1 ATP        -0.3222
     23 C8          0.1798    2.8712   -1.2933 C.ar      1 ATP         0.1640
     24 N7         -0.7494    3.8400   -1.3610 N.2       1 ATP        -0.1640
     25 C5         -1.0173    4.0603   -0.0358 C.ar      1 ATP         0.0820
     26 C6         -2.0105    5.0717    0.4241 C.ar      1 ATP         0.1640
     27 N6         -2.6723    5.7982   -0.4628 N.pl3     1 ATP        -0.4916
     28 N1         -2.1445    5.1522    1.7502 N.pl3     1 ATP        -0.4390
     29 C2         -1.3755    4.3143    2.6426 C.ar      1 ATP         0.5691
     30 N3         -0.5075    3.4292    2.2616 N.ar      1 ATP        -0.4283
     31 C4         -0.3667    3.3425    0.9070 C.ar      1 ATP         0.2226
     32 HOB2        6.6185   -0.6558   -5.6962 H         1 ATP         0.2010
     33 H5'1        1.2163   -0.0770   -2.0471 H         1 ATP        -0.0393
     34 H5'2        2.4655   -1.3443   -2.1563 H         1 ATP        -0.0393
     35 H4'         3.8040   -0.1399   -0.4044 H         1 ATP        -0.0393
     36 H3'         1.6768   -1.7637    0.2732 H         1 ATP        -0.0393
     37 HO3'        2.2231   -1.2979    2.3952 H         1 ATP         0.2010
     38 H2'         0.0002   -0.0084   -0.0014 H         1 ATP        -0.0393
     39 HO2'       -0.1554   -0.9852    2.0577 H         1 ATP         0.2010
     40 H1'         1.7718    1.9211    1.6015 H         1 ATP        -0.0393
     41 H8          0.6089    2.4651   -2.2147 H         1 ATP         0.0000
     42 HN61       -2.5055    5.6680   -1.4503 H         1 ATP         0.2048
     43 HN62       -3.3462    6.4841   -0.1542 H         1 ATP         0.2048
     44 H2         -1.5932    4.4937    3.7066 H         1 ATP        -0.1292
     45 H45        -2.8098    5.8270    2.1160 H         1 ATP         0.2048
@<TRIPOS>BOND
     1    1    2 2
     2    1    3 1
     3    1    4 1
     4    1    8 1
     5    5    6 2
     6    5    7 1
     7    5    8 1
     8    5   12 1
     9    7   32 1
    10    9   10 2
    11    9   11 1
    12    9   12 1
    13    9   13 1
    14   13   14 1
    15   14   15 1
    16   14   33 1
    17   14   34 1
    18   15   16 1
    19   15   17 1
    20   15   35 1
    21   16   21 1
    22   17   18 1
    23   17   19 1
    24   17   36 1
    25   18   37 1
    26   19   20 1
    27   19   21 1
    28   19   38 1
    29   20   39 1
    30   21   22 1
    31   21   40 1
    32   22   23 ar
    33   22   31 ar
    34   23   24 ar
    35   23   41 1
    36   24   25 ar
    37   25   26 ar
    38   25   31 ar
    39   26   27 1
    40   26   28 ar
    41   27   42 1
    42   27   43 1
    43   28   29 ar
    44   28   45 1
    45   29   30 ar
    46   29   44 1
    47   30   31 ar
@<TRIPOS>SUBSTRUCTURE
     1 ATP         1 GROUP 0 A     ****
@<TRIPOS>MOLECULE
[[[5-(6-amino-1,8-dihydropurine-6,8-diylium-7-id-9-yl)-3,4-dihydroxy-tetrahydrofuran-2-yl]methoxy-oxido-phosphoryl]oxy-hydroxy-phosphoryl] phosphate
   45    47     1     0     0
SMALL
USER_CHARGES

@<TRIPOS>ATOM
      1 PG          6.2343   -4.1151   -5.2482 P.3       1 ATP        -1.1921
      2 O1G         7.1480   -3.3831   -6.2257 O.co2     1 ATP         0.3195
      3 O2G         5.5718   -5.3622   -5.8244 O.co2     1 ATP         0.3195
      4 O3G         6.8280   -4.3080   -3.8567 O.co2     1 ATP         0.3195
      5 PB          4.9573   -1.5665   -4.4286 P.3       1 ATP        -0.9715
      6 O1B         5.4763   -1.4261   -3.0281 O.2       1 ATP         0.2707
      7 O2B         5.7750   -0.7318   -5.5461 O.3       1 ATP         0.0326
      8 O3B         4.9776   -3.0744   -5.0135 O.3       1 ATP         0.4672
      9 PA          2.7180    0.3539   -4.4230 P.3       1 ATP        -1.1062
     10 O1A         1.2273    0.1956   -4.6287 O.co2     1 ATP         0.3195
     11 O2A         3.5063    1.3990   -5.1820 O.co2     1 ATP         0.3195
     12 O3A         3.4276   -1.0977   -4.6517 O.3       1 ATP         0.4672
     13 O5'         3.0213    0.5153   -2.8245 O.3       1 ATP         0.1618
     14 C5'         2.2816   -0.2918   -1.9206 C.3       1 ATP         0.1504
     15 C4'         2.7248    0.0226   -0.4980 C.3       1 ATP         0.1111
     16 O4'         2.4697    1.4219   -0.2462 O.3       1 ATP        -0.1436
     17 C3'         1.9404   -0.7419    0.5596 C.3       1 ATP         0.1111
     18 O3'         2.7418   -0.8086    1.7389 O.3       1 ATP        -0.2728
     19 C2'         0.7477    0.1630    0.7858 C.3       1 ATP         0.1111
     20 O2'         0.1373   -0.0577    2.0407 O.3       1 ATP        -0.2728
     21 C1'         1.3733    1.5427    0.6747 C.3       1 ATP         0.2693
     22 N9          0.4520    2.5240    0.1767 N.pl3     1 ATP        -0.3222
     23 C8         -0.3054    2.4845   -1.1576 C.ar      1 ATP         0.1640
     24 N7         -1.0755    3.5806   -1.2691 N.2       1 ATP        -0.1640
     25 C5         -0.8043    4.2306   -0.0942 C.ar      1 ATP         0.0820
     26 C6         -1.4324    5.5335    0.2646 C.ar      1 ATP         0.1640
     27 N6         -2.2885    6.1054   -0.5675 N.pl3     1 ATP        -0.4916
     28 N1         -1.0537    6.0229    1.4478 N.pl3     1 ATP        -0.4390
     29 C2         -0.1096    5.3242    2.2908 C.ar      1 ATP         0.5691
     30 N3          0.4468    4.1904    1.9960 N.ar      1 ATP        -0.4283
     31 C4          0.0631    3.6855    0.7877 C.ar      1 ATP         0.2226
     32 HOB2        6.7281   -0.9231   -5.6773 H         1 ATP         0.2010
     33 H5'1        1.2163   -0.0770   -2.0471 H         1 ATP        -0.0393
     34 H5'2        2.4655   -1.3443   -2.1563 H         1 ATP        -0.0393
     35 H4'         3.8040   -0.1399   -0.4044 H         1 ATP        -0.0393
     36 H3'         1.6768   -1.7637    0.2732 H         1 ATP        -0.0393
     37 HO3'        2.2231   -1.2979    2.3952 H         1 ATP         0.2010
     38 H2'         0.0002   -0.0084   -0.0014 H         1 ATP        -0.0393
     39 HO2'       -0.1554   -0.9852    2.0577 H         1 ATP         0.2010
     40 H1'         1.7718    1.9211    1.6015 H         1 ATP        -0.0393
     41 H8         -0.2991    1.7413   -1.9611 H         1 ATP         0.0000
     42 HN61       -2.5167    5.6603   -1.4447 H         1 ATP         0.2048
     43 HN62       -2.7159    6.9882   -0.3270 H         1 ATP         0.2048
     44 H2          0.1059    5.8491    3.2340 H         1 ATP        -0.1292
     45 H45        -1.4532    6.9099    1.7401 H         1 ATP         0.2048
@<TRIPOS>BOND
     1    1    2 2
     2    1    3 1
     3    1    4 1
     4    1    8 1
     5    5    6 2
     6    5    7 1
     7    5    8 1
     8    5   12 1
     9    7   32 1
    10    9   10 2
    11    9   11 1
    12    9   12 1
    13    9   13 1
    14   13   14 1
    15   14   15 1
    16   14   33 1
    17   14   34 1
    18   15   16 1
    19   15   17 1
    20   15   35 1
    21   16   21 1
    22   17   18 1
    23   17   19 1
    24   17   36 1
    25   18   37 1
    26   19   20 1
    27   19   21 1
    28   19   38 1
    29   20   39 1
    30   21   22 1
    31   21   40 1
    32   22   23 ar
    33   22   31 ar
    34   23   24 ar
    35   23   41 1
    36   24   25 ar
    37   25   26 ar
    38   25   31 ar
    39   26   27 1
    40   26   28 ar
    41   27   42 1
    42   27   43 1
    43   28   29 ar
    44   28   45 1
    45   29   30 ar
    46   29   44 1
    47   30   31 ar
@<TRIPOS>SUBSTRUCTURE
     1 ATP         1 GROUP 0 A     ****
@<TRIPOS>MOLECULE
[[[5-(6-amino-1,8-dihydropurine-6,8-diylium-7-id-9-yl)-3,4-dihydroxy-tetrahydrofuran-2-yl]methoxy-oxido-phosphoryl]oxy-hydroxy-phosphoryl] phosphate
   45    47     1     0     0
SMALL
USER_CHARGES

@<TRIPOS>ATOM
      1 PG          3.9061   -3.7408   -7.9323 P.3       1 ATP        -1.1921
      2 O1G         2.6226   -3.4156   -8.6894 O.co2     1 ATP         0.3195
      3 O2G         4.0564   -5.2115   -7.5573 O.co2     1 ATP         0.3195
      4 O3G         5.1631   -3.1153   -8.5279 O.co2     1 ATP         0.3195
      5 PB          3.5141   -1.4151   -6.1335 P.3       1 ATP        -0.9715
      6 O1B         4.6260   -0.5154   -6.5859 O.2       1 ATP         0.2707
      7 O2B         2.0674   -1.0889   -6.7777 O.3       1 ATP         0.0326
      8 O3B         3.7223   -2.9811   -6.4809 O.3       1 ATP         0.4672
      9 PA          2.1265   -2.2419   -3.6650 P.3       1 ATP        -1.1062
     10 O1A         2.4690   -3.7144   -3.7280 O.co2     1 ATP         0.3195
     11 O2A         0.7465   -1.7427   -4.0336 O.co2     1 ATP         0.3195
     12 O3A         3.2274   -1.4180   -4.5438 O.3       1 ATP         0.4672
     13 O5'         2.5245   -1.6648   -2.1878 O.3       1 ATP         0.1618
     14 C5'         2.2816   -0.2918   -1.9206 C.3       1 ATP         0.1504
     15 C4'         2.7248    0.0226   -0.4980 C.3       1 ATP         0.1111
     16 O4'         2.4697    1.4219   -0.2462 O.3       1 ATP        -0.1436
     17 C3'         1.9404   -0.7419    0.5596 C.3       1 ATP         0.1111
     18 O3'         2.7418   -0.8086    1.7389 O.3       1 ATP        -0.2728
     19 C2'         0.7477    0.1630    0.7858 C.3       1 ATP         0.1111
     20 O2'         0.1373   -0.0577    2.0407 O.3       1 ATP        -0.2728
     21 C1'         1.3733    1.5427    0.6747 C.3       1 ATP         0.2693
     22 N9          0.4520    2.5240    0.1767 N.pl3     1 ATP        -0.3222
     23 C8          0.1798    2.8712   -1.2933 C.ar      1 ATP         0.1640
     24 N7         -0.7494    3.8400   -1.3610 N.2       1 ATP        -0.1640
     25 C5         -1.0173    4.0603   -0.0358 C.ar      1 ATP         0.0820
     26 C6         -2.0105    5.0717    0.4241 C.ar      1 ATP         0.1640
     27 N6         -2.6723    5.7982   -0.4628 N.pl3     1 ATP        -0.4916
     28 N1         -2.1445    5.1522    1.7502 N.pl3     1 ATP        -0.4390
     29 C2         -1.3755    4.3143    2.6426 C.ar      1 ATP         0.5691
     30 N3         -0.5075    3.4292    2.2616 N.ar      1 ATP        -0.4283
     31 C4         -0.3667    3.3425    0.9070 C.ar      1 ATP         0.2226
     32 HOB2        1.6695   -0.2052   -6.6259 H         1 ATP         0.2010
     33 H5'1        2.8432    0.3119   -2.6398 H         1 ATP        -0.0393
     34 H5'2        1.2128   -0.0927   -2.0428 H         1 ATP        -0.0393
     35 H4'         3.8040   -0.1399   -0.4044 H         1 ATP        -0.0393
     36 H3'         1.6768   -1.7637    0.2732 H         1 ATP        -0.0393
     37 HO3'        2.2231   -1.2979    2.3952 H         1 ATP         0.2010
     38 H2'         0.0002   -0.0084   -0.0014 H         1 ATP        -0.0393
     39 HO2'       -0.6132    0.5577    2.1063 H         1 ATP         0.2010
     40 H1'         1.7718    1.9211    1.6015 H         1 ATP        -0.0393
     41 H8          0.6089    2.4651   -2.2147 H         1 ATP         0.0000
     42 HN61       -2.5055    5.6680   -1.4503 H         1 ATP         0.2048
     43 HN62       -3.3462    6.4841   -0.1542 H         1 ATP         0.2048
     44 H2         -1.5932    4.4937    3.7066 H         1 ATP        -0.1292
     45 H45        -2.8098    5.8270    2.1160 H         1 ATP         0.2048
@<TRIPOS>BOND
     1    1    2 2
     2    1    3 1
     3    1    4 1
     4    1    8 1
     5    5    6 2
     6    5    7 1
     7    5    8 1
     8    5   12 1
     9    7   32 1
    10    9   10 2
    11    9   11 1
    12    9   12 1
    13    9   13 1
    14   13   14 1
    15   14   15 1
    16   14   33 1
    17   14   34 1
    18   15   16 1
    19   15   17 1
    20   15   35 1
    21   16   21 1
    22   17   18 1
    23   17   19 1
    24   17   36 1
    25   18   37 1
    26   19   20 1
    27   19   21 1
    28   19   38 1
    29   20   39 1
    30   21   22 1
    31   21   40 1
    32   22   23 ar
    33   22   31 ar
    34   23   24 ar
    35   23   41 1
    36   24   25 ar
    37   25   26 ar
    38   25   31 ar
    39   26   27 1
    40   26   28 ar
    41   27   42 1
    42   27   43 1
    43   28   29 ar
    44   28   45 1
    45   29   30 ar
    46   29   44 1
    47   30   31 ar
@<TRIPOS>SUBSTRUCTURE
     1 ATP         1 GROUP 0 A     ****
@<TRIPOS>MOLECULE
[[[5-(6-amino-1,8-dihydropurine-6,8-diylium-7-id-9-yl)-3,4-dihydroxy-tetrahydrofuran-2-yl]methoxy-oxido-phosphoryl]oxy-hydroxy-phosphoryl] phosphate
   45    47     1     0     0
SMALL
USER_CHARGES

@<TRIPOS>ATOM
      1 PG          0.9809   -3.2728   -7.4302 P.3       1 ATP        -1.1921
      2 O1G        -0.5425   -3.2037   -7.4041 O.co2     1 ATP         0.3195
      3 O2G         1.5586   -4.5692   -6.8717 O.co2     1 ATP         0.3195
      4 O3G         1.6083   -2.8238   -8.7458 O.co2     1 ATP         0.3195
      5 PB          1.1915   -0.5337   -6.3118 P.3       1 ATP        -0.9715
      6 O1B         1.7251    0.2167   -7.4962 O.2       1 ATP         0.2707
      7 O2B        -0.4091   -0.4338   -6.1055 O.3       1 ATP         0.0326
      8 O3B         1.4557   -2.1292   -6.3420 O.3       1 ATP         0.4672
      9 PA          3.3181   -0.0790   -4.3186 P.3       1 ATP        -1.1062
     10 O1A         4.1137    0.9396   -5.1054 O.co2     1 ATP         0.3195
     11 O2A         3.7869   -1.5123   -4.1946 O.co2     1 ATP         0.3195
     12 O3A         1.7856   -0.0816   -4.8792 O.3       1 ATP         0.4672
     13 O5'         3.0213    0.5153   -2.8245 O.3       1 ATP         0.1618
     14 C5'         2.2816   -0.2918   -1.9206 C.3       1 ATP         0.1504
     15 C4'         2.7248    0.0226   -0.4980 C.3       1 ATP         0.1111
     16 O4'         2.4697    1.4219   -0.2462 O.3       1 ATP        -0.1436
     17 C3'         1.9404   -0.7419    0.5596 C.3       1 ATP         0.1111
     18 O3'         2.7418   -0.8086    1.7389 O.3       1 ATP        -0.2728
     19 C2'         0.7477    0.1630    0.7858 C.3       1 ATP         0.1111
     20 O2'         0.1373   -0.0577    2.0407 O.3       1 ATP        -0.2728
     21 C1'         1.3733    1.5427    0.6747 C.3       1 ATP         0.2693
     22 N9          0.4520    2.5240    0.1767 N.pl3     1 ATP        -0.3222
     23 C8          0.1798    2.8712   -1.2933 C.ar      1 ATP         0.1640
     24 N7         -0.7494    3.8400   -1.3610 N.2       1 ATP        -0.1640
     25 C5         -1.0173    4.0603   -0.0358 C.ar      1 ATP         0.0820
     26 C6         -2.0105    5.0717    0.4241 C.ar      1 ATP         0.1640
     27 N6         -2.6723    5.7982   -0.4628 N.pl3     1 ATP        -0.4916
     28 N1         -2.1445    5.1522    1.7502 N.pl3     1 ATP        -0.4390
     29 C2         -1.3755    4.3143    2.6426 C.ar      1 ATP         0.5691
     30 N3         -0.5075    3.4292    2.2616 N.ar      1 ATP        -0.4283
     31 C4         -0.3667    3.3425    0.9070 C.ar      1 ATP         0.2226
     32 HOB2       -0.9999   -0.7592   -6.8177 H         1 ATP         0.2010
     33 H5'1        1.2163   -0.0770   -2.0471 H         1 ATP        -0.0393
     34 H5'2        2.4655   -1.3443   -2.1563 H         1 ATP        -0.0393
     35 H4'         3.8040   -0.1399   -0.4044 H         1 ATP        -0.0393
     36 H3'         1.6768   -1.7637    0.2732 H         1 ATP        -0.0393
     37 HO3'        2.2231   -1.2979    2.3952 H         1 ATP         0.2010
     38 H2'         0.0002   -0.0084   -0.0014 H         1 ATP        -0.0393
     39 HO2'       -0.6132    0.5577    2.1063 H         1 ATP         0.2010
     40 H1'         1.7718    1.9211    1.6015 H         1 ATP        -0.0393
     41 H8          0.6089    2.4651   -2.2147 H         1 ATP         0.0000
     42 HN61       -2.5055    5.6680   -1.4503 H         1 ATP         0.2048
     43 HN62       -3.3462    6.4841   -0.1542 H         1 ATP         0.2048
     44 H2         -1.5932    4.4937    3.7066 H         1 ATP        -0.1292
     45 H45        -2.8098    5.8270    2.1160 H         1 ATP         0.2048
@<TRIPOS>BOND
     1    1    2 2
     2    1    3 1
     3    1    4 1
     4    1    8 1
     5    5    6 2
     6    5    7 1
     7    5    8 1
     8    5   12 1
     9    7   32 1
    10    9   10 2
    11    9   11 1
    12    9   12 1
    13    9   13 1
    14   13   14 1
    15   14   15 1
    16   14   33 1
    17   14   34 1
    18   15   16 1
    19   15   17 1
    20   15   35 1
    21   16   21 1
    22   17   18 1
    23   17   19 1
    24   17   36 1
    25   18   37 1
    26   19   20 1
    27   19   21 1
    28   19   38 1
    29   20   39 1
    30   21   22 1
    31   21   40 1
    32   22   23 ar
    33   22   31 ar
    34   23   24 ar
    35   23   41 1
    36   24   25 ar
    37   25   26 ar
    38   25   31 ar
    39   26   27 1
    40   26   28 ar
    41   27   42 1
    42   27   43 1
    43   28   29 ar
    44   28   45 1
    45   29   30 ar
    46   29   44 1
    47   30   31 ar
@<TRIPOS>SUBSTRUCTURE
     1 ATP         1 GROUP 0 A     ****
@<TRIPOS>MOLECULE
[[[5-(6-amino-1,8-dihydropurine-6,8-diylium-7-id-9-yl)-3,4-dihydroxy-tetrahydrofuran-2-yl]methoxy-oxido-phosphoryl]oxy-hydroxy-phosphoryl] phosphate
   45    47     1     0     0
SMALL
USER_CHARGES

@<TRIPOS>ATOM
      1 PG          7.7200   -0.8947   -0.6854 P.3       1 ATP        -1.1921
      2 O1G         8.9029   -0.2460   -1.3968 O.co2     1 ATP         0.3195
      3 O2G         8.1104   -1.8184    0.4639 O.co2     1 ATP         0.3195
      4 O3G         6.5803    0.0643   -0.3580 O.co2     1 ATP         0.3195
      5 PB          6.4681   -1.6119   -3.2770 P.3       1 ATP        -0.9715
      6 O1B         7.4232   -0.9719   -4.2407 O.2       1 ATP         0.2707
      7 O2B         5.8968   -3.0526   -3.7377 O.3       1 ATP         0.0326
      8 O3B         7.0819   -1.9155   -1.8115 O.3       1 ATP         0.4672
      9 PA          3.9458   -0.2356   -3.9447 P.3       1 ATP        -1.1062
     10 O1A         3.1973   -1.4387   -4.4759 O.co2     1 ATP         0.3195
     11 O2A         4.5250    0.8020   -4.8814 O.co2     1 ATP         0.3195
     12 O3A         5.1327   -0.7615   -2.9560 O.3       1 ATP         0.4672
     13 O5'         3.0213    0.5153   -2.8245 O.3       1 ATP         0.1618
     14 C5'         2.2816   -0.2918   -1.9206 C.3       1 ATP         0.1504
     15 C4'         2.7248    0.0226   -0.4980 C.3       1 ATP         0.1111
     16 O4'         2.4697    1.4219   -0.2462 O.3       1 ATP        -0.1436
     17 C3'         1.9404   -0.7419    0.5596 C.3       1 ATP         0.1111
     18 O3'         2.7418   -0.8086    1.7389 O.3       1 ATP        -0.2728
     19 C2'         0.7477    0.1630    0.7858 C.3       1 ATP         0.1111
     20 O2'         0.1373   -0.0577    2.0407 O.3       1 ATP        -0.2728
     21 C1'         1.3733    1.5427    0.6747 C.3       1 ATP         0.2693
     22 N9          0.4520    2.5240    0.1767 N.pl3     1 ATP        -0.3222
     23 C8          0.1798    2.8712   -1.2933 C.ar      1 ATP         0.1640
     24 N7         -0.7494    3.8400   -1.3610 N.2       1 ATP        -0.1640
     25 C5         -1.0173    4.0603   -0.0358 C.ar      1 ATP         0.0820
     26 C6         -2.0105    5.0717    0.4241 C.ar      1 ATP         0.1640
     27 N6         -2.6723    5.7982   -0.4628 N.pl3     1 ATP        -0.4916
     28 N1         -2.1445    5.1522    1.7502 N.pl3     1 ATP        -0.4390
     29 C2         -1.3755    4.3143    2.6426 C.ar      1 ATP         0.5691
     30 N3         -0.5075    3.4292    2.2616 N.ar      1 ATP        -0.4283
     31 C4         -0.3667    3.3425    0.9070 C.ar      1 ATP         0.2226
     32 HOB2        5.3910   -3.1159   -4.5757 H         1 ATP         0.2010
     33 H5'1        1.2163   -0.0770   -2.0471 H         1 ATP        -0.0393
     34 H5'2        2.4655   -1.3443   -2.1563 H         1 ATP        -0.0393
     35 H4'         3.8040   -0.1399   -0.4044 H         1 ATP        -0.0393
     36 H3'         1.6768   -1.7637    0.2732 H         1 ATP        -0.0393
     37 HO3'        2.2231   -1.2979    2.3952 H         1 ATP         0.2010
     38 H2'         0.0002   -0.0084   -0.0014 H         1 ATP        -0.0393
     39 HO2'       -0.1554   -0.9852    2.0577 H         1 ATP         0.2010
     40 H1'         1.7718    1.9211    1.6015 H         1 ATP        -0.0393
     41 H8          0.6089    2.4651   -2.2147 H         1 ATP         0.0000
     42 HN61       -2.5055    5.6680   -1.4503 H         1 ATP         0.2048
     43 HN62       -3.3462    6.4841   -0.1542 H         1 ATP         0.2048
     44 H2         -1.5932    4.4937    3.7066 H         1 ATP        -0.1292
     45 H45        -2.8098    5.8270    2.1160 H         1 ATP         0.2048
@<TRIPOS>BOND
     1    1    2 2
     2    1    3 1
     3    1    4 1
     4    1    8 1
     5    5    6 2
     6    5    7 1
     7    5    8 1
     8    5   12 1
     9    7   32 1
    10    9   10 2
    11    9   11 1
    12    9   12 1
    13    9   13 1
    14   13   14 1
    15   14   15 1
    16   14   33 1
    17   14   34 1
    18   15   16 1
    19   15   17 1
    20   15   35 1
    21   16   21 1
    22   17   18 1
    23   17   19 1
    24   17   36 1
    25   18   37 1
    26   19   20 1
    27   19   21 1
    28   19   38 1
    29   20   39 1
    30   21   22 1
    31   21   40 1
    32   22   23 ar
    33   22   31 ar
    34   23   24 ar
    35   23   41 1
    36   24   25 ar
    37   25   26 ar
    38   25   31 ar
    39   26   27 1
    40   26   28 ar
    41   27   42 1
    42   27   43 1
    43   28   29 ar
    44   28   45 1
    45   29   30 ar
    46   29   44 1
    47   30   31 ar
@<TRIPOS>SUBSTRUCTURE
     1 ATP         1 GROUP 0 A     ****
@<TRIPOS>MOLECULE
[[[5-(6-amino-1,8-dihydropurine-6,8-diylium-7-id-9-yl)-3,4-dihydroxy-tetrahydrofuran-2-yl]methoxy-oxido-phosphoryl]oxy-hydroxy-phosphoryl] phosphate
   45    47     1     0     0
SMALL
USER_CHARGES

@<TRIPOS>ATOM
      1 PG         -1.5486   -0.1291   -7.3730 P.3       1 ATP        -1.1921
      2 O1G        -1.0259    0.7973   -8.4661 O.co2     1 ATP         0.3195
      3 O2G        -2.7781    0.3981   -6.6405 O.co2     1 ATP         0.3195
      4 O3G        -1.6457   -1.5946   -7.7842 O.co2     1 ATP         0.3195
      5 PB          1.1915   -0.5337   -6.3118 P.3       1 ATP        -0.9715
      6 O1B         1.4326   -1.9663   -6.6861 O.2       1 ATP         0.2707
      7 O2B         1.8100    0.5528   -7.3371 O.3       1 ATP         0.0326
      8 O3B        -0.3661   -0.1063   -6.2247 O.3       1 ATP         0.4672
      9 PA          3.3181   -0.0790   -4.3186 P.3       1 ATP        -1.1062
     10 O1A         4.1137    0.9396   -5.1054 O.co2     1 ATP         0.3195
     11 O2A         3.7869   -1.5123   -4.1946 O.co2     1 ATP         0.3195
     12 O3A         1.7856   -0.0816   -4.8792 O.3       1 ATP         0.4672
     13 O5'         3.0213    0.5153   -2.8245 O.3       1 ATP         0.1618
     14 C5'         2.2816   -0.2918   -1.9206 C.3       1 ATP         0.1504
     15 C4'         2.7248    0.0226   -0.4980 C.3       1 ATP         0.1111
     16 O4'         2.4697    1.4219   -0.2462 O.3       1 ATP        -0.1436
     17 C3'         1.9404   -0.7419    0.5596 C.3       1 ATP         0.1111
     18 O3'         2.7418   -0.8086    1.7389 O.3       1 ATP        -0.2728
     19 C2'         0.7477    0.1630    0.7858 C.3       1 ATP         0.1111
     20 O2'         0.1373   -0.0577    2.0407 O.3       1 ATP        -0.2728
     21 C1'         1.3733    1.5427    0.6747 C.3       1 ATP         0.2693
     22 N9          0.4520    2.5240    0.1767 N.pl3     1 ATP        -0.3222
     23 C8          0.1798    2.8712   -1.2933 C.ar      1 ATP         0.1640
     24 N7         -0.7494    3.8400   -1.3610 N.2       1 ATP        -0.1640
     25 C5         -1.0173    4.0603   -0.0358 C.ar      1 ATP         0.0820
     26 C6         -2.0105    5.0717    0.4241 C.ar      1 ATP         0.1640
     27 N6         -2.6723    5.7982   -0.4628 N.pl3     1 ATP        -0.4916
     28 N1         -2.1445    5.1522    1.7502 N.pl3     1 ATP        -0.4390
     29 C2         -1.3755    4.3143    2.6426 C.ar      1 ATP         0.5691
     30 N3         -0.5075    3.4292    2.2616 N.ar      1 ATP        -0.4283
     31 C4         -0.3667    3.3425    0.9070 C.ar      1 ATP         0.2226
     32 HOB2        2.7783    0.5585   -7.4942 H         1 ATP         0.2010
     33 H5'1        1.2163   -0.0770   -2.0471 H         1 ATP        -0.0393
     34 H5'2        2.4655   -1.3443   -2.1563 H         1 ATP        -0.0393
     35 H4'         3.8040   -0.1399   -0.4044 H         1 ATP        -0.0393
     36 H3'         1.6768   -1.7637    0.2732 H         1 ATP        -0.0393
     37 HO3'        2.2231   -1.2979    2.3952 H         1 ATP         0.2010
     38 H2'         0.0002   -0.0084   -0.0014 H         1 ATP        -0.0393
     39 HO2'       -0.6132    0.5577    2.1063 H         1 ATP         0.2010
     40 H1'         1.7718    1.9211    1.6015 H         1 ATP        -0.0393
     41 H8          0.6089    2.4651   -2.2147 H         1 ATP         0.0000
     42 HN61       -2.5055    5.6680   -1.4503 H         1 ATP         0.2048
     43 HN62       -3.3462    6.4841   -0.1542 H         1 ATP         0.2048
     44 H2         -1.5932    4.4937    3.7066 H         1 ATP        -0.1292
     45 H45        -2.8098    5.8270    2.1160 H         1 ATP         0.2048
@<TRIPOS>BOND
     1    1    2 2
     2    1    3 1
     3    1    4 1
     4    1    8 1
     5    5    6 2
     6    5    7 1
     7    5    8 1
     8    5   12 1
     9    7   32 1
    10    9   10 2
    11    9   11 1
    12    9   12 1
    13    9   13 1
    14   13   14 1
    15   14   15 1
    16   14   33 1
    17   14   34 1
    18   15   16 1
    19   15   17 1
    20   15   35 1
    21   16   21 1
    22   17   18 1
    23   17   19 1
    24   17   36 1
    25   18   37 1
    26   19   20 1
    27   19   21 1
    28   19   38 1
    29   20   39 1
    30   21   22 1
    31   21   40 1
    32   22   23 ar
    33   22   31 ar
    34   23   24 ar
    35   23   41 1
    36   24   25 ar
    37   25   26 ar
    38   25   31 ar
    39   26   27 1
    40   26   28 ar
    41   27   42 1
    42   27   43 1
    43   28   29 ar
    44   28   45 1
    45   29   30 ar
    46   29   44 1
    47   30   31 ar
@<TRIPOS>SUBSTRUCTURE
     1 ATP         1 GROUP 0 A     ****
@<TRIPOS>MOLECULE
[[[5-(6-amino-1,8-dihydropurine-6,8-diylium-7-id-9-yl)-3,4-dihydroxy-tetrahydrofuran-2-yl]methoxy-oxido-phosphoryl]oxy-hydroxy-phosphoryl] phosphate
   45    47     1     0     0
SMALL
USER_CHARGES

@<TRIPOS>ATOM
      1 PG         -1.5313   -4.1644    0.1803 P.3       1 ATP        -1.1921
      2 O1G        -1.6709   -5.5992   -0.3179 O.co2     1 ATP         0.3195
      3 O2G        -2.5618   -3.7632    1.2307 O.co2     1 ATP         0.3195
      4 O3G        -0.1019   -3.7518    0.5164 O.co2     1 ATP         0.3195
      5 PB         -1.2461   -3.1570   -2.5949 P.3       1 ATP        -0.9715
      6 O1B        -1.2463   -4.4440   -3.3658 O.2       1 ATP         0.2707
      7 O2B        -2.0488   -1.9413   -3.2963 O.3       1 ATP         0.0326
      8 O3B        -1.9237   -3.2424   -1.1286 O.3       1 ATP         0.4672
      9 PA          1.5375   -2.4279   -3.2447 P.3       1 ATP        -1.1062
     10 O1A         1.2350   -1.4961   -4.3980 O.co2     1 ATP         0.3195
     11 O2A         2.0607   -3.8271   -3.4854 O.co2     1 ATP         0.3195
     12 O3A         0.2112   -2.5260   -2.2990 O.3       1 ATP         0.4672
     13 O5'         2.5245   -1.6648   -2.1878 O.3       1 ATP         0.1618
     14 C5'         2.2816   -0.2918   -1.9206 C.3       1 ATP         0.1504
     15 C4'         2.7248    0.0226   -0.4980 C.3       1 ATP         0.1111
     16 O4'         2.4697    1.4219   -0.2462 O.3       1 ATP        -0.1436
     17 C3'         1.9404   -0.7419    0.5596 C.3       1 ATP         0.1111
     18 O3'         2.7418   -0.8086    1.7389 O.3       1 ATP        -0.2728
     19 C2'         0.7477    0.1630    0.7858 C.3       1 ATP         0.1111
     20 O2'         0.1373   -0.0577    2.0407 O.3       1 ATP        -0.2728
     21 C1'         1.3733    1.5427    0.6747 C.3       1 ATP         0.2693
     22 N9          0.4520    2.5240    0.1767 N.pl3     1 ATP        -0.3222
     23 C8          0.5793    3.3338   -1.1209 C.ar      1 ATP         0.1640
     24 N7         -0.4807    4.1508   -1.2458 N.2       1 ATP        -0.1640
     25 C5         -1.1921    3.8572   -0.1126 C.ar      1 ATP         0.0820
     26 C6         -2.4855    4.5203    0.2163 C.ar      1 ATP         0.1640
     27 N6         -2.9873    5.4319   -0.6020 N.pl3     1 ATP        -0.4916
     28 N1         -3.0414    4.1119    1.3596 N.pl3     1 ATP        -0.4390
     29 C2         -2.4169    3.1071    2.1904 C.ar      1 ATP         0.5691
     30 N3         -1.2928    2.5191    1.9210 N.ar      1 ATP        -0.4283
     31 C4         -0.7202    2.9326    0.7534 C.ar      1 ATP         0.2226
     32 HOB2       -1.7611   -1.6318   -4.1815 H         1 ATP         0.2010
     33 H5'1        2.8432    0.3119   -2.6398 H         1 ATP        -0.0393
     34 H5'2        1.2128   -0.0927   -2.0428 H         1 ATP        -0.0393
     35 H4'         3.8040   -0.1399   -0.4044 H         1 ATP        -0.0393
     36 H3'         1.6768   -1.7637    0.2732 H         1 ATP        -0.0393
     37 HO3'        2.2231   -1.2979    2.3952 H         1 ATP         0.2010
     38 H2'         0.0002   -0.0084   -0.0014 H         1 ATP        -0.0393
     39 HO2'       -0.1554   -0.9852    2.0577 H         1 ATP         0.2010
     40 H1'         1.7718    1.9211    1.6015 H         1 ATP        -0.0393
     41 H8          1.3565    3.3309   -1.8916 H         1 ATP         0.0000
     42 HN61       -2.4952    5.6785   -1.4487 H         1 ATP         0.2048
     43 HN62       -3.8637    5.8828   -0.3819 H         1 ATP         0.2048
     44 H2         -2.9911    2.8734    3.1000 H         1 ATP        -0.1292
     45 H45        -3.9253    4.5332    1.6302 H         1 ATP         0.2048
@<TRIPOS>BOND
     1    1    2 2
     2    1    3 1
     3    1    4 1
     4    1    8 1
     5    5    6 2
     6    5    7 1
     7    5    8 1
     8    5   12 1
     9    7   32 1
    10    9   10 2
    11    9   11 1
    12    9   12 1
    13    9   13 1
    14   13   14 1
    15   14   15 1
    16   14   33 1
    17   14   34 1
    18   15   16 1
    19   15   17 1
    20   15   35 1
    21   16   21 1
    22   17   18 1
    23   17   19 1
    24   17   36 1
    25   18   37 1
    26   19   20 1
    27   19   21 1
    28   19   38 1
    29   20   39 1
    30   21   22 1
    31   21   40 1
    32   22   23 ar
    33   22   31 ar
    34   23   24 ar
    35   23   41 1
    36   24   25 ar
    37   25   26 ar
    38   25   31 ar
    39   26   27 1
    40   26   28 ar
    41   27   42 1
    42   27   43 1
    43   28   29 ar
    44   28   45 1
    45   29   30 ar
    46   29   44 1
    47   30   31 ar
@<TRIPOS>SUBSTRUCTURE
     1 ATP         1 GROUP 0 A     ****
@<TRIPOS>MOLECULE
[[[5-(6-amino-1,8-dihydropurine-6,8-diylium-7-id-9-yl)-3,4-dihydroxy-tetrahydrofuran-2-yl]methoxy-oxido-phosphoryl]oxy-hydroxy-phosphoryl] phosphate
   45    47     1     0     0
SMALL
USER_CHARGES

@<TRIPOS>ATOM
      1 PG         -0.4872   -1.7926   -6.0888 P.3       1 ATP        -1.1921
      2 O1G        -0.0334   -1.8363   -7.5443 O.co2     1 ATP         0.3195
      3 O2G        -1.9143   -2.2810   -5.8629 O.co2     1 ATP         0.3195
      4 O3G         0.5289   -2.3482   -5.0964 O.co2     1 ATP         0.3195
      5 PB          0.5899    0.9521   -5.7651 P.3       1 ATP        -0.9715
      6 O1B         1.2347    1.1639   -7.1030 O.2       1 ATP         0.2707
      7 O2B        -0.1625    2.2478   -5.1575 O.3       1 ATP         0.0326
      8 O3B        -0.5614   -0.1838   -5.7372 O.3       1 ATP         0.4672
      9 PA          2.8924    1.2553   -3.9461 P.3       1 ATP        -1.1062
     10 O1A         2.4271    2.5125   -3.2441 O.co2     1 ATP         0.3195
     11 O2A         3.9765    1.3033   -5.0007 O.co2     1 ATP         0.3195
     12 O3A         1.5886    0.5039   -4.5771 O.3       1 ATP         0.4672
     13 O5'         3.2903    0.1346   -2.8241 O.3       1 ATP         0.1618
     14 C5'         2.2816   -0.2918   -1.9206 C.3       1 ATP         0.1504
     15 C4'         2.7248    0.0226   -0.4980 C.3       1 ATP         0.1111
     16 O4'         2.4697    1.4219   -0.2462 O.3       1 ATP        -0.1436
     17 C3'         1.9404   -0.7419    0.5596 C.3       1 ATP         0.1111
     18 O3'         2.7418   -0.8086    1.7389 O.3       1 ATP        -0.2728
     19 C2'         0.7477    0.1630    0.7858 C.3       1 ATP         0.1111
     20 O2'         0.1373   -0.0577    2.0407 O.3       1 ATP        -0.2728
     21 C1'         1.3733    1.5427    0.6747 C.3       1 ATP         0.2693
     22 N9          0.4520    2.5240    0.1767 N.pl3     1 ATP        -0.3222
     23 C8         -0.3054    2.4845   -1.1576 C.ar      1 ATP         0.1640
     24 N7         -1.0755    3.5806   -1.2691 N.2       1 ATP        -0.1640
     25 C5         -0.8043    4.2306   -0.0942 C.ar      1 ATP         0.0820
     26 C6         -1.4324    5.5335    0.2646 C.ar      1 ATP         0.1640
     27 N6         -2.2885    6.1054   -0.5675 N.pl3     1 ATP        -0.4916
     28 N1         -1.0537    6.0229    1.4478 N.pl3     1 ATP        -0.4390
     29 C2         -0.1096    5.3242    2.2908 C.ar      1 ATP         0.5691
     30 N3          0.4468    4.1904    1.9960 N.ar      1 ATP        -0.4283
     31 C4          0.0631    3.6855    0.7877 C.ar      1 ATP         0.2226
     32 HOB2        0.3574    3.0626   -4.9902 H         1 ATP         0.2010
     33 H5'1        1.3514    0.2330   -2.1577 H         1 ATP        -0.0393
     34 H5'2        2.1280   -1.3678   -2.0460 H         1 ATP        -0.0393
     35 H4'         3.8040   -0.1399   -0.4044 H         1 ATP        -0.0393
     36 H3'         1.6768   -1.7637    0.2732 H         1 ATP        -0.0393
     37 HO3'        2.2231   -1.2979    2.3952 H         1 ATP         0.2010
     38 H2'         0.0002   -0.0084   -0.0014 H         1 ATP        -0.0393
     39 HO2'       -0.6132    0.5577    2.1063 H         1 ATP         0.2010
     40 H1'         1.7718    1.9211    1.6015 H         1 ATP        -0.0393
     41 H8         -0.2991    1.7413   -1.9611 H         1 ATP         0.0000
     42 HN61       -2.5167    5.6603   -1.4447 H         1 ATP         0.2048
     43 HN62       -2.7159    6.9882   -0.3270 H         1 ATP         0.2048
     44 H2          0.1059    5.8491    3.2340 H         1 ATP        -0.1292
     45 H45        -1.4532    6.9099    1.7401 H         1 ATP         0.2048
@<TRIPOS>BOND
     1    1    2 2
     2    1    3 1
     3    1    4 1
     4    1    8 1
     5    5    6 2
     6    5    7 1
     7    5    8 1
     8    5   12 1
     9    7   32 1
    10    9   10 2
    11    9   11 1
    12    9   12 1
    13    9   13 1
    14   13   14 1
    15   14   15 1
    16   14   33 1
    17   14   34 1
    18   15   16 1
    19   15   17 1
    20   15   35 1
    21   16   21 1
    22   17   18 1
    23   17   19 1
    24   17   36 1
    25   18   37 1
    26   19   20 1
    27   19   21 1
    28   19   38 1
    29   20   39 1
    30   21   22 1
    31   21   40 1
    32   22   23 ar
    33   22   31 ar
    34   23   24 ar
    35   23   41 1
    36   24   25 ar
    37   25   26 ar
    38   25   31 ar
    39   26   27 1
    40   26   28 ar
    41   27   42 1
    42   27   43 1
    43   28   29 ar
    44   28   45 1
    45   29   30 ar
    46   29   44 1
    47   30   31 ar
@<TRIPOS>SUBSTRUCTURE
     1 ATP         1 GROUP 0 A     ****
@<TRIPOS>MOLECULE
[[[5-(6-amino-1,8-dihydropurine-6,8-diylium-7-id-9-yl)-3,4-dihydroxy-tetrahydrofuran-2-yl]methoxy-oxido-phosphoryl]oxy-hydroxy-phosphoryl] phosphate
   45    47     1     0     0
SMALL
USER_CHARGES

@<TRIPOS>ATOM
      1 PG          0.0054   -2.7425   -5.8132 P.3       1 ATP        -1.1921
      2 O1G         0.4520   -4.1980   -5.7219 O.co2     1 ATP         0.3195
      3 O2G        -1.1820   -2.5089   -6.7416 O.co2     1 ATP         0.3195
      4 O3G        -0.1031   -2.0324   -4.4678 O.co2     1 ATP         0.3195
      5 PB          2.8086   -1.8330   -6.1487 P.3       1 ATP        -0.9715
      6 O1B         3.5484   -3.1288   -5.9926 O.2       1 ATP         0.2707
      7 O2B         3.4011   -0.8410   -7.2797 O.3       1 ATP         0.0326
      8 O3B         1.2554   -1.9836   -6.5741 O.3       1 ATP         0.4672
      9 PA          3.9458   -0.2356   -3.9447 P.3       1 ATP        -1.1062
     10 O1A         4.6386    0.8086   -4.7928 O.co2     1 ATP         0.3195
     11 O2A         4.7275   -1.3448   -3.2753 O.co2     1 ATP         0.3195
     12 O3A         2.7479   -0.9056   -4.8274 O.3       1 ATP         0.4672
     13 O5'         3.0213    0.5153   -2.8245 O.3       1 ATP         0.1618
     14 C5'         2.2816   -0.2918   -1.9206 C.3       1 ATP         0.1504
     15 C4'         2.7248    0.0226   -0.4980 C.3       1 ATP         0.1111
     16 O4'         2.4697    1.4219   -0.2462 O.3       1 ATP        -0.1436
     17 C3'         1.9404   -0.7419    0.5596 C.3       1 ATP         0.1111
     18 O3'         2.7418   -0.8086    1.7389 O.3       1 ATP        -0.2728
     19 C2'         0.7477    0.1630    0.7858 C.3       1 ATP         0.1111
     20 O2'         0.1373   -0.0577    2.0407 O.3       1 ATP        -0.2728
     21 C1'         1.3733    1.5427    0.6747 C.3       1 ATP         0.2693
     22 N9          0.4520    2.5240    0.1767 N.pl3     1 ATP        -0.3222
     23 C8          0.1798    2.8712   -1.2933 C.ar      1 ATP         0.1640
     24 N7         -0.7494    3.8400   -1.3610 N.2       1 ATP        -0.1640
     25 C5         -1.0173    4.0603   -0.0358 C.ar      1 ATP         0.0820
     26 C6         -2.0105    5.0717    0.4241 C.ar      1 ATP         0.1640
     27 N6         -2.6723    5.7982   -0.4628 N.pl3     1 ATP        -0.4916
     28 N1         -2.1445    5.1522    1.7502 N.pl3     1 ATP        -0.4390
     29 C2         -1.3755    4.3143    2.6426 C.ar      1 ATP         0.5691
     30 N3         -0.5075    3.4292    2.2616 N.ar      1 ATP        -0.4283
     31 C4         -0.3667    3.3425    0.9070 C.ar      1 ATP         0.2226
     32 HOB2        3.4383   -1.1511   -8.2096 H         1 ATP         0.2010
     33 H5'1        1.2163   -0.0770   -2.0471 H         1 ATP        -0.0393
     34 H5'2        2.4655   -1.3443   -2.1563 H         1 ATP        -0.0393
     35 H4'         3.8040   -0.1399   -0.4044 H         1 ATP        -0.0393
     36 H3'         1.6768   -1.7637    0.2732 H         1 ATP        -0.0393
     37 HO3'        3.5553   -1.2733    1.4913 H         1 ATP         0.2010
     38 H2'         0.0002   -0.0084   -0.0014 H         1 ATP        -0.0393
     39 HO2'       -0.1554   -0.9852    2.0577 H         1 ATP         0.2010
     40 H1'         1.7718    1.9211    1.6015 H         1 ATP        -0.0393
     41 H8          0.6089    2.4651   -2.2147 H         1 ATP         0.0000
     42 HN61       -2.5055    5.6680   -1.4503 H         1 ATP         0.2048
     43 HN62       -3.3462    6.4841   -0.1542 H         1 ATP         0.2048
     44 H2         -1.5932    4.4937    3.7066 H         1 ATP        -0.1292
     45 H45        -2.8098    5.8270    2.1160 H         1 ATP         0.2048
@<TRIPOS>BOND
     1    1    2 2
     2    1    3 1
     3    1    4 1
     4    1    8 1
     5    5    6 2
     6    5    7 1
     7    5    8 1
     8    5   12 1
     9    7   32 1
    10    9   10 2
    11    9   11 1
    12    9   12 1
    13    9   13 1
    14   13   14 1
    15   14   15 1
    16   14   33 1
    17   14   34 1
    18   15   16 1
    19   15   17 1
    20   15   35 1
    21   16   21 1
    22   17   18 1
    23   17   19 1
    24   17   36 1
    25   18   37 1
    26   19   20 1
    27   19   21 1
    28   19   38 1
    29   20   39 1
    30   21   22 1
    31   21   40 1
    32   22   23 ar
    33   22   31 ar
    34   23   24 ar
    35   23   41 1
    36   24   25 ar
    37   25   26 ar
    38   25   31 ar
    39   26   27 1
    40   26   28 ar
    41   27   42 1
    42   27   43 1
    43   28   29 ar
    44   28   45 1
    45   29   30 ar
    46   29   44 1
    47   30   31 ar
@<TRIPOS>SUBSTRUCTURE
     1 ATP         1 GROUP 0 A     ****
@<TRIPOS>MOLECULE
[[[5-(6-amino-1,8-dihydropurine-6,8-diylium-7-id-9-yl)-3,4-dihydroxy-tetrahydrofuran-2-yl]methoxy-oxido-phosphoryl]oxy-hydroxy-phosphoryl] phosphate
   45    47     1     0     0
SMALL
USER_CHARGES

@<TRIPOS>ATOM
      1 PG          8.1063   -0.2523   -5.1605 P.3       1 ATP        -1.1921
      2 O1G         8.6594   -1.6437   -5.4512 O.co2     1 ATP         0.3195
      3 O2G         8.8499    0.5001   -4.0617 O.co2     1 ATP         0.3195
      4 O3G         7.8167    0.5816   -6.4042 O.co2     1 ATP         0.3195
      5 PB          5.3283   -1.2910   -5.1219 P.3       1 ATP        -0.9715
      6 O1B         4.7784   -0.6784   -6.3760 O.2       1 ATP         0.2707
      7 O2B         5.8370   -2.8182   -5.2749 O.3       1 ATP         0.0326
      8 O3B         6.6202   -0.5370   -4.5065 O.3       1 ATP         0.4672
      9 PA          2.8575   -2.1002   -3.7283 P.3       1 ATP        -1.1062
     10 O1A         3.0802   -3.5960   -3.7809 O.co2     1 ATP         0.3195
     11 O2A         1.8726   -1.4224   -4.6557 O.co2     1 ATP         0.3195
     12 O3A         4.3031   -1.3578   -3.8753 O.3       1 ATP         0.4672
     13 O5'         2.5245   -1.6648   -2.1878 O.3       1 ATP         0.1618
     14 C5'         2.2816   -0.2918   -1.9206 C.3       1 ATP         0.1504
     15 C4'         2.7248    0.0226   -0.4980 C.3       1 ATP         0.1111
     16 O4'         2.4697    1.4219   -0.2462 O.3       1 ATP        -0.1436
     17 C3'         1.9404   -0.7419    0.5596 C.3       1 ATP         0.1111
     18 O3'         2.7418   -0.8086    1.7389 O.3       1 ATP        -0.2728
     19 C2'         0.7477    0.1630    0.7858 C.3       1 ATP         0.1111
     20 O2'         0.1373   -0.0577    2.0407 O.3       1 ATP        -0.2728
     21 C1'         1.3733    1.5427    0.6747 C.3       1 ATP         0.2693
     22 N9          0.4520    2.5240    0.1767 N.pl3     1 ATP        -0.3222
     23 C8          0.1798    2.8712   -1.2933 C.ar      1 ATP         0.1640
     24 N7         -0.7494    3.8400   -1.3610 N.2       1 ATP        -0.1640
     25 C5         -1.0173    4.0603   -0.0358 C.ar      1 ATP         0.0820
     26 C6         -2.0105    5.0717    0.4241 C.ar      1 ATP         0.1640
     27 N6         -2.6723    5.7982   -0.4628 N.pl3     1 ATP        -0.4916
     28 N1         -2.1445    5.1522    1.7502 N.pl3     1 ATP        -0.4390
     29 C2         -1.3755    4.3143    2.6426 C.ar      1 ATP         0.5691
     30 N3         -0.5075    3.4292    2.2616 N.ar      1 ATP        -0.4283
     31 C4         -0.3667    3.3425    0.9070 C.ar      1 ATP         0.2226
     32 HOB2        5.1959   -3.5053   -5.5559 H         1 ATP         0.2010
     33 H5'1        2.8432    0.3119   -2.6398 H         1 ATP        -0.0393
     34 H5'2        1.2128   -0.0927   -2.0428 H         1 ATP        -0.0393
     35 H4'         3.8040   -0.1399   -0.4044 H         1 ATP        -0.0393
     36 H3'         1.6768   -1.7637    0.2732 H         1 ATP        -0.0393
     37 HO3'        2.2231   -1.2979    2.3952 H         1 ATP         0.2010
     38 H2'         0.0002   -0.0084   -0.0014 H         1 ATP        -0.0393
     39 HO2'       -0.6132    0.5577    2.1063 H         1 ATP         0.2010
     40 H1'         1.7718    1.9211    1.6015 H         1 ATP        -0.0393
     41 H8          0.6089    2.4651   -2.2147 H         1 ATP         0.0000
     42 HN61       -2.5055    5.6680   -1.4503 H         1 ATP         0.2048
     43 HN62       -3.3462    6.4841   -0.1542 H         1 ATP         0.2048
     44 H2         -1.5932    4.4937    3.7066 H         1 ATP        -0.1292
     45 H45        -2.8098    5.8270    2.1160 H         1 ATP         0.2048
@<TRIPOS>BOND
     1    1    2 2
     2    1    3 1
     3    1    4 1
     4    1    8 1
     5    5    6 2
     6    5    7 1
     7    5    8 1
     8    5   12 1
     9    7   32 1
    10    9   10 2
    11    9   11 1
    12    9   12 1
    13    9   13 1
    14   13   14 1
    15   14   15 1
    16   14   33 1
    17   14   34 1
    18   15   16 1
    19   15   17 1
    20   15   35 1
    21   16   21 1
    22   17   18 1
    23   17   19 1
    24   17   36 1
    25   18   37 1
    26   19   20 1
    27   19   21 1
    28   19   38 1
    29   20   39 1
    30   21   22 1
    31   21   40 1
    32   22   23 ar
    33   22   31 ar
    34   23   24 ar
    35   23   41 1
    36   24   25 ar
    37   25   26 ar
    38   25   31 ar
    39   26   27 1
    40   26   28 ar
    41   27   42 1
    42   27   43 1
    43   28   29 ar
    44   28   45 1
    45   29   30 ar
    46   29   44 1
    47   30   31 ar
@<TRIPOS>SUBSTRUCTURE
     1 ATP         1 GROUP 0 A     ****
@<TRIPOS>MOLECULE
[[[5-(6-amino-1,8-dihydropurine-6,8-diylium-7-id-9-yl)-3,4-dihydroxy-tetrahydrofuran-2-yl]methoxy-oxido-phosphoryl]oxy-hydroxy-phosphoryl] phosphate
   45    47     1     0     0
SMALL
USER_CHARGES

@<TRIPOS>ATOM
      1 PG         -1.6476   -0.5616   -5.3529 P.3       1 ATP        -1.1921
      2 O1G        -2.2086   -1.8060   -6.0335 O.co2     1 ATP         0.3195
      3 O2G        -2.3662    0.7319   -5.7225 O.co2     1 ATP         0.3195
      4 O3G        -1.3841   -0.7264   -3.8598 O.co2     1 ATP         0.3195
      5 PB          1.1293   -1.3739   -6.0060 P.3       1 ATP        -0.9715
      6 O1B         0.8921   -2.7122   -6.6412 O.2       1 ATP         0.2707
      7 O2B         2.2856   -0.4836   -6.7023 O.3       1 ATP         0.0326
      8 O3B        -0.1480   -0.3816   -6.0132 O.3       1 ATP         0.4672
      9 PA          2.8575   -2.1002   -3.7283 P.3       1 ATP        -1.1062
     10 O1A         4.1051   -1.3769   -4.1866 O.co2     1 ATP         0.3195
     11 O2A         2.7335   -3.6031   -3.8533 O.co2     1 ATP         0.3195
     12 O3A         1.5668   -1.4118   -4.4515 O.3       1 ATP         0.4672
     13 O5'         2.5245   -1.6648   -2.1878 O.3       1 ATP         0.1618
     14 C5'         2.2816   -0.2918   -1.9206 C.3       1 ATP         0.1504
     15 C4'         2.7248    0.0226   -0.4980 C.3       1 ATP         0.1111
     16 O4'         2.4697    1.4219   -0.2462 O.3       1 ATP        -0.1436
     17 C3'         1.9404   -0.7419    0.5596 C.3       1 ATP         0.1111
     18 O3'         2.7418   -0.8086    1.7389 O.3       1 ATP        -0.2728
     19 C2'         0.7477    0.1630    0.7858 C.3       1 ATP         0.1111
     20 O2'         0.1373   -0.0577    2.0407 O.3       1 ATP        -0.2728
     21 C1'         1.3733    1.5427    0.6747 C.3       1 ATP         0.2693
     22 N9          0.4520    2.5240    0.1767 N.pl3     1 ATP        -0.3222
     23 C8          0.1798    2.8712   -1.2933 C.ar      1 ATP         0.1640
     24 N7         -0.7494    3.8400   -1.3610 N.2       1 ATP        -0.1640
     25 C5         -1.0173    4.0603   -0.0358 C.ar      1 ATP         0.0820
     26 C6         -2.0105    5.0717    0.4241 C.ar      1 ATP         0.1640
     27 N6         -2.6723    5.7982   -0.4628 N.pl3     1 ATP        -0.4916
     28 N1         -2.1445    5.1522    1.7502 N.pl3     1 ATP        -0.4390
     29 C2         -1.3755    4.3143    2.6426 C.ar      1 ATP         0.5691
     30 N3         -0.5075    3.4292    2.2616 N.ar      1 ATP        -0.4283
     31 C4         -0.3667    3.3425    0.9070 C.ar      1 ATP         0.2226
     32 HOB2        3.1989   -0.8394   -6.7410 H         1 ATP         0.2010
     33 H5'1        2.8432    0.3119   -2.6398 H         1 ATP        -0.0393
     34 H5'2        1.2128   -0.0927   -2.0428 H         1 ATP        -0.0393
     35 H4'         3.8040   -0.1399   -0.4044 H         1 ATP        -0.0393
     36 H3'         1.6768   -1.7637    0.2732 H         1 ATP        -0.0393
     37 HO3'        3.5553   -1.2733    1.4913 H         1 ATP         0.2010
     38 H2'         0.0002   -0.0084   -0.0014 H         1 ATP        -0.0393
     39 HO2'        0.8091    0.1203    2.7213 H         1 ATP         0.2010
     40 H1'         1.7718    1.9211    1.6015 H         1 ATP        -0.0393
     41 H8          0.6089    2.4651   -2.2147 H         1 ATP         0.0000
     42 HN61       -2.5055    5.6680   -1.4503 H         1 ATP         0.2048
     43 HN62       -3.3462    6.4841   -0.1542 H         1 ATP         0.2048
     44 H2         -1.5932    4.4937    3.7066 H         1 ATP        -0.1292
     45 H45        -2.8098    5.8270    2.1160 H         1 ATP         0.2048
@<TRIPOS>BOND
     1    1    2 2
     2    1    3 1
     3    1    4 1
     4    1    8 1
     5    5    6 2
     6    5    7 1
     7    5    8 1
     8    5   12 1
     9    7   32 1
    10    9   10 2
    11    9   11 1
    12    9   12 1
    13    9   13 1
    14   13   14 1
    15   14   15 1
    16   14   33 1
    17   14   34 1
    18   15   16 1
    19   15   17 1
    20   15   35 1
    21   16   21 1
    22   17   18 1
    23   17   19 1
    24   17   36 1
    25   18   37 1
    26   19   20 1
    27   19   21 1
    28   19   38 1
    29   20   39 1
    30   21   22 1
    31   21   40 1
    32   22   23 ar
    33   22   31 ar
    34   23   24 ar
    35   23   41 1
    36   24   25 ar
    37   25   26 ar
    38   25   31 ar
    39   26   27 1
    40   26   28 ar
    41   27   42 1
    42   27   43 1
    43   28   29 ar
    44   28   45 1
    45   29   30 ar
    46   29   44 1
    47   30   31 ar
@<TRIPOS>SUBSTRUCTURE
     1 ATP         1 GROUP 0 A     ****
@<TRIPOS>MOLECULE
[[[5-(6-amino-1,8-dihydropurine-6,8-diylium-7-id-9-yl)-3,4-dihydroxy-tetrahydrofuran-2-yl]methoxy-oxido-phosphoryl]oxy-hydroxy-phosphoryl] phosphate
   45    47     1     0     0
SMALL
USER_CHARGES

@<TRIPOS>ATOM
      1 PG          0.6287    2.4483   -8.2794 P.3       1 ATP        -1.1921
      2 O1G         0.4296    1.1242   -9.0097 O.co2     1 ATP         0.3195
      3 O2G         1.8499    3.2388   -8.7378 O.co2     1 ATP         0.3195
      4 O3G        -0.6392    3.2836   -8.1348 O.co2     1 ATP         0.3195
      5 PB          0.1582    1.1489   -5.6549 P.3       1 ATP        -0.9715
      6 O1B        -1.1687    1.7394   -5.2792 O.2       1 ATP         0.2707
      7 O2B         0.0854   -0.3182   -6.3306 O.3       1 ATP         0.0326
      8 O3B         1.0025    2.0060   -6.7360 O.3       1 ATP         0.4672
      9 PA          2.7180    0.3539   -4.4230 P.3       1 ATP        -1.1062
     10 O1A         3.6120    1.3016   -5.1928 O.co2     1 ATP         0.3195
     11 O2A         2.6578   -1.1184   -4.7669 O.co2     1 ATP         0.3195
     12 O3A         1.1997    0.9517   -4.4359 O.3       1 ATP         0.4672
     13 O5'         3.0213    0.5153   -2.8245 O.3       1 ATP         0.1618
     14 C5'         2.2816   -0.2918   -1.9206 C.3       1 ATP         0.1504
     15 C4'         2.7248    0.0226   -0.4980 C.3       1 ATP         0.1111
     16 O4'         2.4697    1.4219   -0.2462 O.3       1 ATP        -0.1436
     17 C3'         1.9404   -0.7419    0.5596 C.3       1 ATP         0.1111
     18 O3'         2.7418   -0.8086    1.7389 O.3       1 ATP        -0.2728
     19 C2'         0.7477    0.1630    0.7858 C.3       1 ATP         0.1111
     20 O2'         0.1373   -0.0577    2.0407 O.3       1 ATP        -0.2728
     21 C1'         1.3733    1.5427    0.6747 C.3       1 ATP         0.2693
     22 N9          0.4520    2.5240    0.1767 N.pl3     1 ATP        -0.3222
     23 C8         -0.8593    2.9753    0.8343 C.ar      1 ATP         0.1640
     24 N7         -1.4457    3.9121    0.0693 N.2       1 ATP        -0.1640
     25 C5         -0.5581    4.0180   -0.9686 C.ar      1 ATP         0.0820
     26 C6         -0.7663    4.9543   -2.1092 C.ar      1 ATP         0.1640
     27 N6         -1.8429    5.7238   -2.1440 N.pl3     1 ATP        -0.4916
     28 N1          0.1993    4.9263   -3.0311 N.pl3     1 ATP        -0.4390
     29 C2          1.3416    4.0491   -2.9069 C.ar      1 ATP         0.5691
     30 N3          1.5401    3.2284   -1.9225 N.ar      1 ATP        -0.4283
     31 C4          0.5563    3.2529   -0.9772 C.ar      1 ATP         0.2226
     32 HOB2       -0.3125   -1.0556   -5.8206 H         1 ATP         0.2010
     33 H5'1        1.2163   -0.0770   -2.0471 H         1 ATP        -0.0393
     34 H5'2        2.4655   -1.3443   -2.1563 H         1 ATP        -0.0393
     35 H4'         3.8040   -0.1399   -0.4044 H         1 ATP        -0.0393
     36 H3'         1.6768   -1.7637    0.2732 H         1 ATP        -0.0393
     37 HO3'        2.2231   -1.2979    2.3952 H         1 ATP         0.2010
     38 H2'         0.0002   -0.0084   -0.0014 H         1 ATP        -0.0393
     39 HO2'       -0.1554   -0.9852    2.0577 H         1 ATP         0.2010
     40 H1'         1.7718    1.9211    1.6015 H         1 ATP        -0.0393
     41 H8         -1.3368    2.6590    1.7670 H         1 ATP         0.0000
     42 HN61       -2.5230    5.6776   -1.3990 H         1 ATP         0.2048
     43 HN62       -1.9865    6.3594   -2.9154 H         1 ATP         0.2048
     44 H2          2.0529    4.1368   -3.7423 H         1 ATP        -0.1292
     45 H45         0.1054    5.5465   -3.8301 H         1 ATP         0.2048
@<TRIPOS>BOND
     1    1    2 2
     2    1    3 1
     3    1    4 1
     4    1    8 1
     5    5    6 2
     6    5    7 1
     7    5    8 1
     8    5   12 1
     9    7   32 1
    10    9   10 2
    11    9   11 1
    12    9   12 1
    13    9   13 1
    14   13   14 1
    15   14   15 1
    16   14   33 1
    17   14   34 1
    18   15   16 1
    19   15   17 1
    20   15   35 1
    21   16   21 1
    22   17   18 1
    23   17   19 1
    24   17   36 1
    25   18   37 1
    26   19   20 1
    27   19   21 1
    28   19   38 1
    29   20   39 1
    30   21   22 1
    31   21   40 1
    32   22   23 ar
    33   22   31 ar
    34   23   24 ar
    35   23   41 1
    36   24   25 ar
    37   25   26 ar
    38   25   31 ar
    39   26   27 1
    40   26   28 ar
    41   27   42 1
    42   27   43 1
    43   28   29 ar
    44   28   45 1
    45   29   30 ar
    46   29   44 1
    47   30   31 ar
@<TRIPOS>SUBSTRUCTURE
     1 ATP         1 GROUP 0 A     ****
@<TRIPOS>MOLECULE
[[[5-(6-amino-1,8-dihydropurine-6,8-diylium-7-id-9-yl)-3,4-dihydroxy-tetrahydrofuran-2-yl]methoxy-oxido-phosphoryl]oxy-hydroxy-phosphoryl] phosphate
   45    47     1     0     0
SMALL
USER_CHARGES

@<TRIPOS>ATOM
      1 PG          1.0253   -3.0553   -7.7141 P.3       1 ATP        -1.1921
      2 O1G         1.9649   -2.6085   -8.8294 O.co2     1 ATP         0.3195
      3 O2G        -0.3444   -2.3850   -7.7432 O.co2     1 ATP         0.3195
      4 O3G         0.9791   -4.5643   -7.4977 O.co2     1 ATP         0.3195
      5 PB          3.1752   -2.7586   -5.6923 P.3       1 ATP        -0.9715
      6 O1B         3.4335   -4.1936   -5.3394 O.2       1 ATP         0.2707
      7 O2B         4.1912   -2.1305   -6.7820 O.3       1 ATP         0.0326
      8 O3B         1.7218   -2.4684   -6.3401 O.3       1 ATP         0.4672
      9 PA          3.0383   -0.0994   -4.4226 P.3       1 ATP        -1.1062
     10 O1A         1.5898    0.1994   -4.7425 O.co2     1 ATP         0.3195
     11 O2A         4.1619    0.5520   -5.1990 O.co2     1 ATP         0.3195
     12 O3A         3.2521   -1.7167   -4.4602 O.3       1 ATP         0.4672
     13 O5'         3.2903    0.1346   -2.8241 O.3       1 ATP         0.1618
     14 C5'         2.2816   -0.2918   -1.9206 C.3       1 ATP         0.1504
     15 C4'         2.7248    0.0226   -0.4980 C.3       1 ATP         0.1111
     16 O4'         2.4697    1.4219   -0.2462 O.3       1 ATP        -0.1436
     17 C3'         1.9404   -0.7419    0.5596 C.3       1 ATP         0.1111
     18 O3'         2.7418   -0.8086    1.7389 O.3       1 ATP        -0.2728
     19 C2'         0.7477    0.1630    0.7858 C.3       1 ATP         0.1111
     20 O2'         0.1373   -0.0577    2.0407 O.3       1 ATP        -0.2728
     21 C1'         1.3733    1.5427    0.6747 C.3       1 ATP         0.2693
     22 N9          0.4520    2.5240    0.1767 N.pl3     1 ATP        -0.3222
     23 C8          0.1798    2.8712   -1.2933 C.ar      1 ATP         0.1640
     24 N7         -0.7494    3.8400   -1.3610 N.2       1 ATP        -0.1640
     25 C5         -1.0173    4.0603   -0.0358 C.ar      1 ATP         0.0820
     26 C6         -2.0105    5.0717    0.4241 C.ar      1 ATP         0.1640
     27 N6         -2.6723    5.7982   -0.4628 N.pl3     1 ATP        -0.4916
     28 N1         -2.1445    5.1522    1.7502 N.pl3     1 ATP        -0.4390
     29 C2         -1.3755    4.3143    2.6426 C.ar      1 ATP         0.5691
     30 N3         -0.5075    3.4292    2.2616 N.ar      1 ATP        -0.4283
     31 C4         -0.3667    3.3425    0.9070 C.ar      1 ATP         0.2226
     32 HOB2        4.2421   -2.5383   -7.6727 H         1 ATP         0.2010
     33 H5'1        1.3514    0.2330   -2.1577 H         1 ATP        -0.0393
     34 H5'2        2.1280   -1.3678   -2.0460 H         1 ATP        -0.0393
     35 H4'         3.8040   -0.1399   -0.4044 H         1 ATP        -0.0393
     36 H3'         1.6768   -1.7637    0.2732 H         1 ATP        -0.0393
     37 HO3'        3.5553   -1.2733    1.4913 H         1 ATP         0.2010
     38 H2'         0.0002   -0.0084   -0.0014 H         1 ATP        -0.0393
     39 HO2'        0.8091    0.1203    2.7213 H         1 ATP         0.2010
     40 H1'         1.7718    1.9211    1.6015 H         1 ATP        -0.0393
     41 H8          0.6089    2.4651   -2.2147 H         1 ATP         0.0000
     42 HN61       -2.5055    5.6680   -1.4503 H         1 ATP         0.2048
     43 HN62       -3.3462    6.4841   -0.1542 H         1 ATP         0.2048
     44 H2         -1.5932    4.4937    3.7066 H         1 ATP        -0.1292
     45 H45        -2.8098    5.8270    2.1160 H         1 ATP         0.2048
@<TRIPOS>BOND
     1    1    2 2
     2    1    3 1
     3    1    4 1
     4    1    8 1
     5    5    6 2
     6    5    7 1
     7    5    8 1
     8    5   12 1
     9    7   32 1
    10    9   10 2
    11    9   11 1
    12    9   12 1
    13    9   13 1
    14   13   14 1
    15   14   15 1
    16   14   33 1
    17   14   34 1
    18   15   16 1
    19   15   17 1
    20   15   35 1
    21   16   21 1
    22   17   18 1
    23   17   19 1
    24   17   36 1
    25   18   37 1
    26   19   20 1
    27   19   21 1
    28   19   38 1
    29   20   39 1
    30   21   22 1
    31   21   40 1
    32   22   23 ar
    33   22   31 ar
    34   23   24 ar
    35   23   41 1
    36   24   25 ar
    37   25   26 ar
    38   25   31 ar
    39   26   27 1
    40   26   28 ar
    41   27   42 1
    42   27   43 1
    43   28   29 ar
    44   28   45 1
    45   29   30 ar
    46   29   44 1
    47   30   31 ar
@<TRIPOS>SUBSTRUCTURE
     1 ATP         1 GROUP 0 A     ****
@<TRIPOS>MOLECULE
[[[5-(6-amino-1,8-dihydropurine-6,8-diylium-7-id-9-yl)-3,4-dihydroxy-tetrahydrofuran-2-yl]methoxy-oxido-phosphoryl]oxy-hydroxy-phosphoryl] phosphate
   45    47     1     0     0
SMALL
USER_CHARGES

@<TRIPOS>ATOM
      1 PG          2.6082   -0.5610   -8.5725 P.3       1 ATP        -1.1921
      2 O1G         2.9959   -1.9325   -9.1155 O.co2     1 ATP         0.3195
      3 O2G         3.7085    0.4896   -8.6813 O.co2     1 ATP         0.3195
      4 O3G         1.2326   -0.0748   -9.0167 O.co2     1 ATP         0.3195
      5 PB          1.4654   -1.7799   -6.1217 P.3       1 ATP        -0.9715
      6 O1B         0.0017   -1.5311   -6.3365 O.2       1 ATP         0.2707
      7 O2B         1.9768   -3.2534   -6.5478 O.3       1 ATP         0.0326
      8 O3B         2.4506   -0.7994   -6.9490 O.3       1 ATP         0.4672
      9 PA          1.5375   -2.4279   -3.2447 P.3       1 ATP        -1.1062
     10 O1A         1.9764   -3.8700   -3.3765 O.co2     1 ATP         0.3195
     11 O2A         0.1022   -2.0728   -2.9228 O.co2     1 ATP         0.3195
     12 O3A         1.9782   -1.6286   -4.5973 O.3       1 ATP         0.4672
     13 O5'         2.5245   -1.6648   -2.1878 O.3       1 ATP         0.1618
     14 C5'         2.2816   -0.2918   -1.9206 C.3       1 ATP         0.1504
     15 C4'         2.7248    0.0226   -0.4980 C.3       1 ATP         0.1111
     16 O4'         2.4697    1.4219   -0.2462 O.3       1 ATP        -0.1436
     17 C3'         1.9404   -0.7419    0.5596 C.3       1 ATP         0.1111
     18 O3'         2.7418   -0.8086    1.7389 O.3       1 ATP        -0.2728
     19 C2'         0.7477    0.1630    0.7858 C.3       1 ATP         0.1111
     20 O2'         0.1373   -0.0577    2.0407 O.3       1 ATP        -0.2728
     21 C1'         1.3733    1.5427    0.6747 C.3       1 ATP         0.2693
     22 N9          0.4520    2.5240    0.1767 N.pl3     1 ATP        -0.3222
     23 C8          0.1798    2.8712   -1.2933 C.ar      1 ATP         0.1640
     24 N7         -0.7494    3.8400   -1.3610 N.2       1 ATP        -0.1640
     25 C5         -1.0173    4.0603   -0.0358 C.ar      1 ATP         0.0820
     26 C6         -2.0105    5.0717    0.4241 C.ar      1 ATP         0.1640
     27 N6         -2.6723    5.7982   -0.4628 N.pl3     1 ATP        -0.4916
     28 N1         -2.1445    5.1522    1.7502 N.pl3     1 ATP        -0.4390
     29 C2         -1.3755    4.3143    2.6426 C.ar      1 ATP         0.5691
     30 N3         -0.5075    3.4292    2.2616 N.ar      1 ATP        -0.4283
     31 C4         -0.3667    3.3425    0.9070 C.ar      1 ATP         0.2226
     32 HOB2        1.5849   -4.0370   -6.1067 H         1 ATP         0.2010
     33 H5'1        2.8432    0.3119   -2.6398 H         1 ATP        -0.0393
     34 H5'2        1.2128   -0.0927   -2.0428 H         1 ATP        -0.0393
     35 H4'         3.8040   -0.1399   -0.4044 H         1 ATP        -0.0393
     36 H3'         1.6768   -1.7637    0.2732 H         1 ATP        -0.0393
     37 HO3'        2.2231   -1.2979    2.3952 H         1 ATP         0.2010
     38 H2'         0.0002   -0.0084   -0.0014 H         1 ATP        -0.0393
     39 HO2'       -0.1554   -0.9852    2.0577 H         1 ATP         0.2010
     40 H1'         1.7718    1.9211    1.6015 H         1 ATP        -0.0393
     41 H8          0.6089    2.4651   -2.2147 H         1 ATP         0.0000
     42 HN61       -2.5055    5.6680   -1.4503 H         1 ATP         0.2048
     43 HN62       -3.3462    6.4841   -0.1542 H         1 ATP         0.2048
     44 H2         -1.5932    4.4937    3.7066 H         1 ATP        -0.1292
     45 H45        -2.8098    5.8270    2.1160 H         1 ATP         0.2048
@<TRIPOS>BOND
     1    1    2 2
     2    1    3 1
     3    1    4 1
     4    1    8 1
     5    5    6 2
     6    5    7 1
     7    5    8 1
     8    5   12 1
     9    7   32 1
    10    9   10 2
    11    9   11 1
    12    9   12 1
    13    9   13 1
    14   13   14 1
    15   14   15 1
    16   14   33 1
    17   14   34 1
    18   15   16 1
    19   15   17 1
    20   15   35 1
    21   16   21 1
    22   17   18 1
    23   17   19 1
    24   17   36 1
    25   18   37 1
    26   19   20 1
    27   19   21 1
    28   19   38 1
    29   20   39 1
    30   21   22 1
    31   21   40 1
    32   22   23 ar
    33   22   31 ar
    34   23   24 ar
    35   23   41 1
    36   24   25 ar
    37   25   26 ar
    38   25   31 ar
    39   26   27 1
    40   26   28 ar
    41   27   42 1
    42   27   43 1
    43   28   29 ar
    44   28   45 1
    45   29   30 ar
    46   29   44 1
    47   30   31 ar
@<TRIPOS>SUBSTRUCTURE
     1 ATP         1 GROUP 0 A     ****
@<TRIPOS>MOLECULE
[[[5-(6-amino-1,8-dihydropurine-6,8-diylium-7-id-9-yl)-3,4-dihydroxy-tetrahydrofuran-2-yl]methoxy-oxido-phosphoryl]oxy-hydroxy-phosphoryl] phosphate
   45    47     1     0     0
SMALL
USER_CHARGES

@<TRIPOS>ATOM
      1 PG          0.0359    0.3058   -6.4965 P.3       1 ATP        -1.1921
      2 O1G        -1.4185    0.6689   -6.2149 O.co2     1 ATP         0.3195
      3 O2G         0.4762    0.5550   -7.9354 O.co2     1 ATP         0.3195
      4 O3G         1.0228    0.8025   -5.4452 O.co2     1 ATP         0.3195
      5 PB         -0.2687   -2.2875   -5.0896 P.3       1 ATP        -0.9715
      6 O1B        -1.6740   -2.1699   -4.5777 O.2       1 ATP         0.2707
      7 O2B         0.1433   -3.7583   -5.6200 O.3       1 ATP         0.0326
      8 O3B         0.0778   -1.3356   -6.3505 O.3       1 ATP         0.4672
      9 PA          1.2481   -2.6085   -2.5799 P.3       1 ATP        -1.1062
     10 O1A         1.7344   -4.0210   -2.8206 O.co2     1 ATP         0.3195
     11 O2A         0.1125   -2.3243   -1.6211 O.co2     1 ATP         0.3195
     12 O3A         0.8903   -1.9331   -4.0217 O.3       1 ATP         0.4672
     13 O5'         2.5245   -1.6648   -2.1878 O.3       1 ATP         0.1618
     14 C5'         2.2816   -0.2918   -1.9206 C.3       1 ATP         0.1504
     15 C4'         2.7248    0.0226   -0.4980 C.3       1 ATP         0.1111
     16 O4'         2.4697    1.4219   -0.2462 O.3       1 ATP        -0.1436
     17 C3'         1.9404   -0.7419    0.5596 C.3       1 ATP         0.1111
     18 O3'         2.7418   -0.8086    1.7389 O.3       1 ATP        -0.2728
     19 C2'         0.7477    0.1630    0.7858 C.3       1 ATP         0.1111
     20 O2'         0.1373   -0.0577    2.0407 O.3       1 ATP        -0.2728
     21 C1'         1.3733    1.5427    0.6747 C.3       1 ATP         0.2693
     22 N9          0.4520    2.5240    0.1767 N.pl3     1 ATP        -0.3222
     23 C8          0.1798    2.8712   -1.2933 C.ar      1 ATP         0.1640
     24 N7         -0.7494    3.8400   -1.3610 N.2       1 ATP        -0.1640
     25 C5         -1.0173    4.0603   -0.0358 C.ar      1 ATP         0.0820
     26 C6         -2.0105    5.0717    0.4241 C.ar      1 ATP         0.1640
     27 N6         -2.6723    5.7982   -0.4628 N.pl3     1 ATP        -0.4916
     28 N1         -2.1445    5.1522    1.7502 N.pl3     1 ATP        -0.4390
     29 C2         -1.3755    4.3143    2.6426 C.ar      1 ATP         0.5691
     30 N3         -0.5075    3.4292    2.2616 N.ar      1 ATP        -0.4283
     31 C4         -0.3667    3.3425    0.9070 C.ar      1 ATP         0.2226
     32 HOB2        0.1048   -4.5148   -4.9968 H         1 ATP         0.2010
     33 H5'1        2.8432    0.3119   -2.6398 H         1 ATP        -0.0393
     34 H5'2        1.2128   -0.0927   -2.0428 H         1 ATP        -0.0393
     35 H4'         3.8040   -0.1399   -0.4044 H         1 ATP        -0.0393
     36 H3'         1.6768   -1.7637    0.2732 H         1 ATP        -0.0393
     37 HO3'        2.2231   -1.2979    2.3952 H         1 ATP         0.2010
     38 H2'         0.0002   -0.0084   -0.0014 H         1 ATP        -0.0393
     39 HO2'       -0.6132    0.5577    2.1063 H         1 ATP         0.2010
     40 H1'         1.7718    1.9211    1.6015 H         1 ATP        -0.0393
     41 H8          0.6089    2.4651   -2.2147 H         1 ATP         0.0000
     42 HN61       -2.5055    5.6680   -1.4503 H         1 ATP         0.2048
     43 HN62       -3.3462    6.4841   -0.1542 H         1 ATP         0.2048
     44 H2         -1.5932    4.4937    3.7066 H         1 ATP        -0.1292
     45 H45        -2.8098    5.8270    2.1160 H         1 ATP         0.2048
@<TRIPOS>BOND
     1    1    2 2
     2    1    3 1
     3    1    4 1
     4    1    8 1
     5    5    6 2
     6    5    7 1
     7    5    8 1
     8    5   12 1
     9    7   32 1
    10    9   10 2
    11    9   11 1
    12    9   12 1
    13    9   13 1
    14   13   14 1
    15   14   15 1
    16   14   33 1
    17   14   34 1
    18   15   16 1
    19   15   17 1
    20   15   35 1
    21   16   21 1
    22   17   18 1
    23   17   19 1
    24   17   36 1
    25   18   37 1
    26   19   20 1
    27   19   21 1
    28   19   38 1
    29   20   39 1
    30   21   22 1
    31   21   40 1
    32   22   23 ar
    33   22   31 ar
    34   23   24 ar
    35   23   41 1
    36   24   25 ar
    37   25   26 ar
    38   25   31 ar
    39   26   27 1
    40   26   28 ar
    41   27   42 1
    42   27   43 1
    43   28   29 ar
    44   28   45 1
    45   29   30 ar
    46   29   44 1
    47   30   31 ar
@<TRIPOS>SUBSTRUCTURE
     1 ATP         1 GROUP 0 A     ****
@<TRIPOS>MOLECULE
[[[5-(6-amino-1,8-dihydropurine-6,8-diylium-7-id-9-yl)-3,4-dihydroxy-tetrahydrofuran-2-yl]methoxy-oxido-phosphoryl]oxy-hydroxy-phosphoryl] phosphate
   45    47     1     0     0
SMALL
USER_CHARGES

@<TRIPOS>ATOM
      1 PG         -1.0253    3.5132   -6.2809 P.3       1 ATP        -1.1921
      2 O1G        -0.1264    4.2079   -7.2986 O.co2     1 ATP         0.3195
      3 O2G        -1.6013    4.4421   -5.2171 O.co2     1 ATP         0.3195
      4 O3G        -2.0421    2.5542   -6.8913 O.co2     1 ATP         0.3195
      5 PB          0.9435    1.3214   -5.9376 P.3       1 ATP        -0.9715
      6 O1B         0.2138    0.1803   -6.5827 O.2       1 ATP         0.2707
      7 O2B         2.0216    2.0650   -6.8857 O.3       1 ATP         0.0326
      8 O3B        -0.0001    2.5361   -5.4372 O.3       1 ATP         0.4672
      9 PA          3.0383   -0.0994   -4.4226 P.3       1 ATP        -1.1062
     10 O1A         4.2309    0.4256   -5.1920 O.co2     1 ATP         0.3195
     11 O2A         2.5243   -1.5059   -4.6397 O.co2     1 ATP         0.3195
     12 O3A         1.7977    0.9421   -4.6200 O.3       1 ATP         0.4672
     13 O5'         3.2903    0.1346   -2.8241 O.3       1 ATP         0.1618
     14 C5'         2.2816   -0.2918   -1.9206 C.3       1 ATP         0.1504
     15 C4'         2.7248    0.0226   -0.4980 C.3       1 ATP         0.1111
     16 O4'         2.4697    1.4219   -0.2462 O.3       1 ATP        -0.1436
     17 C3'         1.9404   -0.7419    0.5596 C.3       1 ATP         0.1111
     18 O3'         2.7418   -0.8086    1.7389 O.3       1 ATP        -0.2728
     19 C2'         0.7477    0.1630    0.7858 C.3       1 ATP         0.1111
     20 O2'         0.1373   -0.0577    2.0407 O.3       1 ATP        -0.2728
     21 C1'         1.3733    1.5427    0.6747 C.3       1 ATP         0.2693
     22 N9          0.4520    2.5240    0.1767 N.pl3     1 ATP        -0.3222
     23 C8         -1.0660    2.5608    0.3999 C.ar      1 ATP         0.1640
     24 N7         -1.5852    3.6333   -0.2221 N.2       1 ATP        -0.1640
     25 C5         -0.4682    4.1996   -0.7771 C.ar      1 ATP         0.0820
     26 C6         -0.5216    5.4476   -1.5899 C.ar      1 ATP         0.1640
     27 N6         -1.6813    6.0510   -1.7982 N.pl3     1 ATP        -0.4916
     28 N1          0.6621    5.8575   -2.0523 N.pl3     1 ATP        -0.4390
     29 C2          1.8795    5.1301   -1.7717 C.ar      1 ATP         0.5691
     30 N3          1.9458    4.0434   -1.0670 N.ar      1 ATP        -0.4283
     31 C4          0.7388    3.6199   -0.5917 C.ar      1 ATP         0.2226
     32 HOB2        2.7687    1.5454   -7.2519 H         1 ATP         0.2010
     33 H5'1        1.3514    0.2330   -2.1577 H         1 ATP        -0.0393
     34 H5'2        2.1280   -1.3678   -2.0460 H         1 ATP        -0.0393
     35 H4'         3.8040   -0.1399   -0.4044 H         1 ATP        -0.0393
     36 H3'         1.6768   -1.7637    0.2732 H         1 ATP        -0.0393
     37 HO3'        2.2231   -1.2979    2.3952 H         1 ATP         0.2010
     38 H2'         0.0002   -0.0084   -0.0014 H         1 ATP        -0.0393
     39 HO2'       -0.1554   -0.9852    2.0577 H         1 ATP         0.2010
     40 H1'         1.7718    1.9211    1.6015 H         1 ATP        -0.0393
     41 H8         -1.7235    1.8833    0.9537 H         1 ATP         0.0000
     42 HN61       -2.5296    5.6672   -1.4072 H         1 ATP         0.2048
     43 HN62       -1.7205    6.8969   -2.3483 H         1 ATP         0.2048
     44 H2          2.7750    5.5878   -2.2190 H         1 ATP        -0.1292
     45 H45         0.6808    6.7046   -2.6128 H         1 ATP         0.2048
@<TRIPOS>BOND
     1    1    2 2
     2    1    3 1
     3    1    4 1
     4    1    8 1
     5    5    6 2
     6    5    7 1
     7    5    8 1
     8    5   12 1
     9    7   32 1
    10    9   10 2
    11    9   11 1
    12    9   12 1
    13    9   13 1
    14   13   14 1
    15   14   15 1
    16   14   33 1
    17   14   34 1
    18   15   16 1
    19   15   17 1
    20   15   35 1
    21   16   21 1
    22   17   18 1
    23   17   19 1
    24   17   36 1
    25   18   37 1
    26   19   20 1
    27   19   21 1
    28   19   38 1
    29   20   39 1
    30   21   22 1
    31   21   40 1
    32   22   23 ar
    33   22   31 ar
    34   23   24 ar
    35   23   41 1
    36   24   25 ar
    37   25   26 ar
    38   25   31 ar
    39   26   27 1
    40   26   28 ar
    41   27   42 1
    42   27   43 1
    43   28   29 ar
    44   28   45 1
    45   29   30 ar
    46   29   44 1
    47   30   31 ar
@<TRIPOS>SUBSTRUCTURE
     1 ATP         1 GROUP 0 A     ****
@<TRIPOS>MOLECULE
[[[5-(6-amino-1,8-dihydropurine-6,8-diylium-7-id-9-yl)-3,4-dihydroxy-tetrahydrofuran-2-yl]methoxy-oxido-phosphoryl]oxy-hydroxy-phosphoryl] phosphate
   45    47     1     0     0
SMALL
USER_CHARGES

@<TRIPOS>ATOM
      1 PG          3.5000    4.6611   -5.8195 P.3       1 ATP        -1.1921
      2 O1G         2.7167    5.9530   -5.6103 O.co2     1 ATP         0.3195
      3 O2G         4.1997    4.5650   -7.1713 O.co2     1 ATP         0.3195
      4 O3G         4.3695    4.2541   -4.6344 O.co2     1 ATP         0.3195
      5 PB          1.2318    3.0421   -4.8036 P.3       1 ATP        -0.9715
      6 O1B         0.5916    4.1709   -4.0509 O.2       1 ATP         0.2707
      7 O2B         0.2126    2.1378   -5.6740 O.3       1 ATP         0.0326
      8 O3B         2.3395    3.4927   -5.8928 O.3       1 ATP         0.4672
      9 PA          2.8307    0.6109   -4.3192 P.3       1 ATP        -1.1062
     10 O1A         4.0573    1.0195   -5.1055 O.co2     1 ATP         0.3195
     11 O2A         1.8435   -0.3926   -4.8743 O.co2     1 ATP         0.3195
     12 O3A         2.0158    1.9599   -3.8961 O.3       1 ATP         0.4672
     13 O5'         3.2903    0.1346   -2.8241 O.3       1 ATP         0.1618
     14 C5'         2.2816   -0.2918   -1.9206 C.3       1 ATP         0.1504
     15 C4'         2.7248    0.0226   -0.4980 C.3       1 ATP         0.1111
     16 O4'         2.4697    1.4219   -0.2462 O.3       1 ATP        -0.1436
     17 C3'         1.9404   -0.7419    0.5596 C.3       1 ATP         0.1111
     18 O3'         2.7418   -0.8086    1.7389 O.3       1 ATP        -0.2728
     19 C2'         0.7477    0.1630    0.7858 C.3       1 ATP         0.1111
     20 O2'         0.1373   -0.0577    2.0407 O.3       1 ATP        -0.2728
     21 C1'         1.3733    1.5427    0.6747 C.3       1 ATP         0.2693
     22 N9          0.4520    2.5240    0.1767 N.pl3     1 ATP        -0.3222
     23 C8         -0.3054    2.4845   -1.1576 C.ar      1 ATP         0.1640
     24 N7         -1.0755    3.5806   -1.2691 N.2       1 ATP        -0.1640
     25 C5         -0.8043    4.2306   -0.0942 C.ar      1 ATP         0.0820
     26 C6         -1.4324    5.5335    0.2646 C.ar      1 ATP         0.1640
     27 N6         -2.2885    6.1054   -0.5675 N.pl3     1 ATP        -0.4916
     28 N1         -1.0537    6.0229    1.4478 N.pl3     1 ATP        -0.4390
     29 C2         -0.1096    5.3242    2.2908 C.ar      1 ATP         0.5691
     30 N3          0.4468    4.1904    1.9960 N.ar      1 ATP        -0.4283
     31 C4          0.0631    3.6855    0.7877 C.ar      1 ATP         0.2226
     32 HOB2        0.5701    1.3835   -6.1892 H         1 ATP         0.2010
     33 H5'1        1.3514    0.2330   -2.1577 H         1 ATP        -0.0393
     34 H5'2        2.1280   -1.3678   -2.0460 H         1 ATP        -0.0393
     35 H4'         3.8040   -0.1399   -0.4044 H         1 ATP        -0.0393
     36 H3'         1.6768   -1.7637    0.2732 H         1 ATP        -0.0393
     37 HO3'        3.5553   -1.2733    1.4913 H         1 ATP         0.2010
     38 H2'         0.0002   -0.0084   -0.0014 H         1 ATP        -0.0393
     39 HO2'       -0.1554   -0.9852    2.0577 H         1 ATP         0.2010
     40 H1'         1.7718    1.9211    1.6015 H         1 ATP        -0.0393
     41 H8         -0.2991    1.7413   -1.9611 H         1 ATP         0.0000
     42 HN61       -2.5167    5.6603   -1.4447 H         1 ATP         0.2048
     43 HN62       -2.7159    6.9882   -0.3270 H         1 ATP         0.2048
     44 H2          0.1059    5.8491    3.2340 H         1 ATP        -0.1292
     45 H45        -1.4532    6.9099    1.7401 H         1 ATP         0.2048
@<TRIPOS>BOND
     1    1    2 2
     2    1    3 1
     3    1    4 1
     4    1    8 1
     5    5    6 2
     6    5    7 1
     7    5    8 1
     8    5   12 1
     9    7   32 1
    10    9   10 2
    11    9   11 1
    12    9   12 1
    13    9   13 1
    14   13   14 1
    15   14   15 1
    16   14   33 1
    17   14   34 1
    18   15   16 1
    19   15   17 1
    20   15   35 1
    21   16   21 1
    22   17   18 1
    23   17   19 1
    24   17   36 1
    25   18   37 1
    26   19   20 1
    27   19   21 1
    28   19   38 1
    29   20   39 1
    30   21   22 1
    31   21   40 1
    32   22   23 ar
    33   22   31 ar
    34   23   24 ar
    35   23   41 1
    36   24   25 ar
    37   25   26 ar
    38   25   31 ar
    39   26   27 1
    40   26   28 ar
    41   27   42 1
    42   27   43 1
    43   28   29 ar
    44   28   45 1
    45   29   30 ar
    46   29   44 1
    47   30   31 ar
@<TRIPOS>SUBSTRUCTURE
     1 ATP         1 GROUP 0 A     ****
@<TRIPOS>MOLECULE
[[[5-(6-amino-1,8-dihydropurine-6,8-diylium-7-id-9-yl)-3,4-dihydroxy-tetrahydrofuran-2-yl]methoxy-oxido-phosphoryl]oxy-hydroxy-phosphoryl] phosphate
   45    47     1     0     0
SMALL
USER_CHARGES

@<TRIPOS>ATOM
      1 PG          1.0096   -3.9438   -5.4331 P.3       1 ATP        -1.1921
      2 O1G         1.7527   -4.3047   -6.7152 O.co2     1 ATP         0.3195
      3 O2G        -0.2290   -4.7932   -5.1670 O.co2     1 ATP         0.3195
      4 O3G         1.9100   -3.7523   -4.2171 O.co2     1 ATP         0.3195
      5 PB          1.1521   -1.0535   -6.0840 P.3       1 ATP        -0.9715
      6 O1B         1.9748   -1.0849   -7.3381 O.2       1 ATP         0.2707
      7 O2B        -0.0537    0.0236   -6.0857 O.3       1 ATP         0.0326
      8 O3B         0.4003   -2.4409   -5.7288 O.3       1 ATP         0.4672
      9 PA          2.8307    0.6109   -4.3192 P.3       1 ATP        -1.1062
     10 O1A         1.8842    1.7848   -4.1936 O.co2     1 ATP         0.3195
     11 O2A         4.0512    0.6814   -5.2108 O.co2     1 ATP         0.3195
     12 O3A         1.9639   -0.7091   -4.7305 O.3       1 ATP         0.4672
     13 O5'         3.2903    0.1346   -2.8241 O.3       1 ATP         0.1618
     14 C5'         2.2816   -0.2918   -1.9206 C.3       1 ATP         0.1504
     15 C4'         2.7248    0.0226   -0.4980 C.3       1 ATP         0.1111
     16 O4'         2.4697    1.4219   -0.2462 O.3       1 ATP        -0.1436
     17 C3'         1.9404   -0.7419    0.5596 C.3       1 ATP         0.1111
     18 O3'         2.7418   -0.8086    1.7389 O.3       1 ATP        -0.2728
     19 C2'         0.7477    0.1630    0.7858 C.3       1 ATP         0.1111
     20 O2'         0.1373   -0.0577    2.0407 O.3       1 ATP        -0.2728
     21 C1'         1.3733    1.5427    0.6747 C.3       1 ATP         0.2693
     22 N9          0.4520    2.5240    0.1767 N.pl3     1 ATP        -0.3222
     23 C8          0.5793    3.3338   -1.1209 C.ar      1 ATP         0.1640
     24 N7         -0.4807    4.1508   -1.2458 N.2       1 ATP        -0.1640
     25 C5         -1.1921    3.8572   -0.1126 C.ar      1 ATP         0.0820
     26 C6         -2.4855    4.5203    0.2163 C.ar      1 ATP         0.1640
     27 N6         -2.9873    5.4319   -0.6020 N.pl3     1 ATP        -0.4916
     28 N1         -3.0414    4.1119    1.3596 N.pl3     1 ATP        -0.4390
     29 C2         -2.4169    3.1071    2.1904 C.ar      1 ATP         0.5691
     30 N3         -1.2928    2.5191    1.9210 N.ar      1 ATP        -0.4283
     31 C4         -0.7202    2.9326    0.7534 C.ar      1 ATP         0.2226
     32 HOB2        0.1605    0.9746   -6.1955 H         1 ATP         0.2010
     33 H5'1        1.3514    0.2330   -2.1577 H         1 ATP        -0.0393
     34 H5'2        2.1280   -1.3678   -2.0460 H         1 ATP        -0.0393
     35 H4'         3.8040   -0.1399   -0.4044 H         1 ATP        -0.0393
     36 H3'         1.6768   -1.7637    0.2732 H         1 ATP        -0.0393
     37 HO3'        2.2231   -1.2979    2.3952 H         1 ATP         0.2010
     38 H2'         0.0002   -0.0084   -0.0014 H         1 ATP        -0.0393
     39 HO2'       -0.1554   -0.9852    2.0577 H         1 ATP         0.2010
     40 H1'         1.7718    1.9211    1.6015 H         1 ATP        -0.0393
     41 H8          1.3565    3.3309   -1.8916 H         1 ATP         0.0000
     42 HN61       -2.4952    5.6785   -1.4487 H         1 ATP         0.2048
     43 HN62       -3.8637    5.8828   -0.3819 H         1 ATP         0.2048
     44 H2         -2.9911    2.8734    3.1000 H         1 ATP        -0.1292
     45 H45        -3.9253    4.5332    1.6302 H         1 ATP         0.2048
@<TRIPOS>BOND
     1    1    2 2
     2    1    3 1
     3    1    4 1
     4    1    8 1
     5    5    6 2
     6    5    7 1
     7    5    8 1
     8    5   12 1
     9    7   32 1
    10    9   10 2
    11    9   11 1
    12    9   12 1
    13    9   13 1
    14   13   14 1
    15   14   15 1
    16   14   33 1
    17   14   34 1
    18   15   16 1
    19   15   17 1
    20   15   35 1
    21   16   21 1
    22   17   18 1
    23   17   19 1
    24   17   36 1
    25   18   37 1
    26   19   20 1
    27   19   21 1
    28   19   38 1
    29   20   39 1
    30   21   22 1
    31   21   40 1
    32   22   23 ar
    33   22   31 ar
    34   23   24 ar
    35   23   41 1
    36   24   25 ar
    37   25   26 ar
    38   25   31 ar
    39   26   27 1
    40   26   28 ar
    41   27   42 1
    42   27   43 1
    43   28   29 ar
    44   28   45 1
    45   29   30 ar
    46   29   44 1
    47   30   31 ar
@<TRIPOS>SUBSTRUCTURE
     1 ATP         1 GROUP 0 A     ****
@<TRIPOS>MOLECULE
[[[5-(6-amino-1,8-dihydropurine-6,8-diylium-7-id-9-yl)-3,4-dihydroxy-tetrahydrofuran-2-yl]methoxy-oxido-phosphoryl]oxy-hydroxy-phosphoryl] phosphate
   45    47     1     0     0
SMALL
USER_CHARGES

@<TRIPOS>ATOM
      1 PG         -3.7100   -2.9331   -0.9587 P.3       1 ATP        -1.1921
      2 O1G        -4.4072   -2.1345   -2.0553 O.co2     1 ATP         0.3195
      3 O2G        -3.8662   -2.3450    0.4398 O.co2     1 ATP         0.3195
      4 O3G        -3.9411   -4.4388   -1.0338 O.co2     1 ATP         0.3195
      5 PB         -1.2461   -3.1570   -2.5949 P.3       1 ATP        -0.9715
      6 O1B        -1.2590   -4.6194   -2.9294 O.2       1 ATP         0.2707
      7 O2B        -1.8511   -2.1897   -3.7405 O.3       1 ATP         0.0326
      8 O3B        -2.1045   -2.7512   -1.2854 O.3       1 ATP         0.4672
      9 PA          1.5375   -2.4279   -3.2447 P.3       1 ATP        -1.1062
     10 O1A         1.2350   -1.4961   -4.3980 O.co2     1 ATP         0.3195
     11 O2A         2.0607   -3.8271   -3.4854 O.co2     1 ATP         0.3195
     12 O3A         0.2112   -2.5260   -2.2990 O.3       1 ATP         0.4672
     13 O5'         2.5245   -1.6648   -2.1878 O.3       1 ATP         0.1618
     14 C5'         2.2816   -0.2918   -1.9206 C.3       1 ATP         0.1504
     15 C4'         2.7248    0.0226   -0.4980 C.3       1 ATP         0.1111
     16 O4'         2.4697    1.4219   -0.2462 O.3       1 ATP        -0.1436
     17 C3'         1.9404   -0.7419    0.5596 C.3       1 ATP         0.1111
     18 O3'         2.7418   -0.8086    1.7389 O.3       1 ATP        -0.2728
     19 C2'         0.7477    0.1630    0.7858 C.3       1 ATP         0.1111
     20 O2'         0.1373   -0.0577    2.0407 O.3       1 ATP        -0.2728
     21 C1'         1.3733    1.5427    0.6747 C.3       1 ATP         0.2693
     22 N9          0.4520    2.5240    0.1767 N.pl3     1 ATP        -0.3222
     23 C8          0.5793    3.3338   -1.1209 C.ar      1 ATP         0.1640
     24 N7         -0.4807    4.1508   -1.2458 N.2       1 ATP        -0.1640
     25 C5         -1.1921    3.8572   -0.1126 C.ar      1 ATP         0.0820
     26 C6         -2.4855    4.5203    0.2163 C.ar      1 ATP         0.1640
     27 N6         -2.9873    5.4319   -0.6020 N.pl3     1 ATP        -0.4916
     28 N1         -3.0414    4.1119    1.3596 N.pl3     1 ATP        -0.4390
     29 C2         -2.4169    3.1071    2.1904 C.ar      1 ATP         0.5691
     30 N3         -1.2928    2.5191    1.9210 N.ar      1 ATP        -0.4283
     31 C4         -0.7202    2.9326    0.7534 C.ar      1 ATP         0.2226
     32 HOB2       -2.7834   -2.3118   -4.0201 H         1 ATP         0.2010
     33 H5'1        2.8432    0.3119   -2.6398 H         1 ATP        -0.0393
     34 H5'2        1.2128   -0.0927   -2.0428 H         1 ATP        -0.0393
     35 H4'         3.8040   -0.1399   -0.4044 H         1 ATP        -0.0393
     36 H3'         1.6768   -1.7637    0.2732 H         1 ATP        -0.0393
     37 HO3'        3.5553   -1.2733    1.4913 H         1 ATP         0.2010
     38 H2'         0.0002   -0.0084   -0.0014 H         1 ATP        -0.0393
     39 HO2'       -0.1554   -0.9852    2.0577 H         1 ATP         0.2010
     40 H1'         1.7718    1.9211    1.6015 H         1 ATP        -0.0393
     41 H8          1.3565    3.3309   -1.8916 H         1 ATP         0.0000
     42 HN61       -2.4952    5.6785   -1.4487 H         1 ATP         0.2048
     43 HN62       -3.8637    5.8828   -0.3819 H         1 ATP         0.2048
     44 H2         -2.9911    2.8734    3.1000 H         1 ATP        -0.1292
     45 H45        -3.9253    4.5332    1.6302 H         1 ATP         0.2048
@<TRIPOS>BOND
     1    1    2 2
     2    1    3 1
     3    1    4 1
     4    1    8 1
     5    5    6 2
     6    5    7 1
     7    5    8 1
     8    5   12 1
     9    7   32 1
    10    9   10 2
    11    9   11 1
    12    9   12 1
    13    9   13 1
    14   13   14 1
    15   14   15 1
    16   14   33 1
    17   14   34 1
    18   15   16 1
    19   15   17 1
    20   15   35 1
    21   16   21 1
    22   17   18 1
    23   17   19 1
    24   17   36 1
    25   18   37 1
    26   19   20 1
    27   19   21 1
    28   19   38 1
    29   20   39 1
    30   21   22 1
    31   21   40 1
    32   22   23 ar
    33   22   31 ar
    34   23   24 ar
    35   23   41 1
    36   24   25 ar
    37   25   26 ar
    38   25   31 ar
    39   26   27 1
    40   26   28 ar
    41   27   42 1
    42   27   43 1
    43   28   29 ar
    44   28   45 1
    45   29   30 ar
    46   29   44 1
    47   30   31 ar
@<TRIPOS>SUBSTRUCTURE
     1 ATP         1 GROUP 0 A     ****
@<TRIPOS>MOLECULE
[[[5-(6-amino-1,8-dihydropurine-6,8-diylium-7-id-9-yl)-3,4-dihydroxy-tetrahydrofuran-2-yl]methoxy-oxido-phosphoryl]oxy-hydroxy-phosphoryl] phosphate
   45    47     1     0     0
SMALL
USER_CHARGES

@<TRIPOS>ATOM
      1 PG         -1.0535    2.5574   -6.6313 P.3       1 ATP        -1.1921
      2 O1G        -1.7366    3.8421   -6.1739 O.co2     1 ATP         0.3195
      3 O2G        -1.9762    1.3444   -6.6905 O.co2     1 ATP         0.3195
      4 O3G        -0.1579    2.7227   -7.8548 O.co2     1 ATP         0.3195
      5 PB          1.2318    3.0421   -4.8036 P.3       1 ATP        -0.9715
      6 O1B         2.0688    3.7528   -5.8258 O.2       1 ATP         0.2707
      7 O2B         0.5214    4.0039   -3.7153 O.3       1 ATP         0.0326
      8 O3B        -0.0086    2.1981   -5.4080 O.3       1 ATP         0.4672
      9 PA          2.8307    0.6109   -4.3192 P.3       1 ATP        -1.1062
     10 O1A         4.0573    1.0195   -5.1055 O.co2     1 ATP         0.3195
     11 O2A         1.8435   -0.3926   -4.8743 O.co2     1 ATP         0.3195
     12 O3A         2.0158    1.9599   -3.8961 O.3       1 ATP         0.4672
     13 O5'         3.2903    0.1346   -2.8241 O.3       1 ATP         0.1618
     14 C5'         2.2816   -0.2918   -1.9206 C.3       1 ATP         0.1504
     15 C4'         2.7248    0.0226   -0.4980 C.3       1 ATP         0.1111
     16 O4'         2.4697    1.4219   -0.2462 O.3       1 ATP        -0.1436
     17 C3'         1.9404   -0.7419    0.5596 C.3       1 ATP         0.1111
     18 O3'         2.7418   -0.8086    1.7389 O.3       1 ATP        -0.2728
     19 C2'         0.7477    0.1630    0.7858 C.3       1 ATP         0.1111
     20 O2'         0.1373   -0.0577    2.0407 O.3       1 ATP        -0.2728
     21 C1'         1.3733    1.5427    0.6747 C.3       1 ATP         0.2693
     22 N9          0.4520    2.5240    0.1767 N.pl3     1 ATP        -0.3222
     23 C8         -0.3054    2.4845   -1.1576 C.ar      1 ATP         0.1640
     24 N7         -1.0755    3.5806   -1.2691 N.2       1 ATP        -0.1640
     25 C5         -0.8043    4.2306   -0.0942 C.ar      1 ATP         0.0820
     26 C6         -1.4324    5.5335    0.2646 C.ar      1 ATP         0.1640
     27 N6         -2.2885    6.1054   -0.5675 N.pl3     1 ATP        -0.4916
     28 N1         -1.0537    6.0229    1.4478 N.pl3     1 ATP        -0.4390
     29 C2         -0.1096    5.3242    2.2908 C.ar      1 ATP         0.5691
     30 N3          0.4468    4.1904    1.9960 N.ar      1 ATP        -0.4283
     31 C4          0.0631    3.6855    0.7877 C.ar      1 ATP         0.2226
     32 HOB2       -0.1045    4.6916   -4.0276 H         1 ATP         0.2010
     33 H5'1        1.3514    0.2330   -2.1577 H         1 ATP        -0.0393
     34 H5'2        2.1280   -1.3678   -2.0460 H         1 ATP        -0.0393
     35 H4'         3.8040   -0.1399   -0.4044 H         1 ATP        -0.0393
     36 H3'         1.6768   -1.7637    0.2732 H         1 ATP        -0.0393
     37 HO3'        2.2231   -1.2979    2.3952 H         1 ATP         0.2010
     38 H2'         0.0002   -0.0084   -0.0014 H         1 ATP        -0.0393
     39 HO2'       -0.1554   -0.9852    2.0577 H         1 ATP         0.2010
     40 H1'         1.7718    1.9211    1.6015 H         1 ATP        -0.0393
     41 H8         -0.2991    1.7413   -1.9611 H         1 ATP         0.0000
     42 HN61       -2.5167    5.6603   -1.4447 H         1 ATP         0.2048
     43 HN62       -2.7159    6.9882   -0.3270 H         1 ATP         0.2048
     44 H2          0.1059    5.8491    3.2340 H         1 ATP        -0.1292
     45 H45        -1.4532    6.9099    1.7401 H         1 ATP         0.2048
@<TRIPOS>BOND
     1    1    2 2
     2    1    3 1
     3    1    4 1
     4    1    8 1
     5    5    6 2
     6    5    7 1
     7    5    8 1
     8    5   12 1
     9    7   32 1
    10    9   10 2
    11    9   11 1
    12    9   12 1
    13    9   13 1
    14   13   14 1
    15   14   15 1
    16   14   33 1
    17   14   34 1
    18   15   16 1
    19   15   17 1
    20   15   35 1
    21   16   21 1
    22   17   18 1
    23   17   19 1
    24   17   36 1
    25   18   37 1
    26   19   20 1
    27   19   21 1
    28   19   38 1
    29   20   39 1
    30   21   22 1
    31   21   40 1
    32   22   23 ar
    33   22   31 ar
    34   23   24 ar
    35   23   41 1
    36   24   25 ar
    37   25   26 ar
    38   25   31 ar
    39   26   27 1
    40   26   28 ar
    41   27   42 1
    42   27   43 1
    43   28   29 ar
    44   28   45 1
    45   29   30 ar
    46   29   44 1
    47   30   31 ar
@<TRIPOS>SUBSTRUCTURE
     1 ATP         1 GROUP 0 A     ****
@<TRIPOS>MOLECULE
[[[5-(6-amino-1,8-dihydropurine-6,8-diylium-7-id-9-yl)-3,4-dihydroxy-tetrahydrofuran-2-yl]methoxy-oxido-phosphoryl]oxy-hydroxy-phosphoryl] phosphate
   45    47     1     0     0
SMALL
USER_CHARGES

@<TRIPOS>ATOM
      1 PG         -2.1752    0.4470   -3.9635 P.3       1 ATP        -1.1921
      2 O1G        -2.5313   -0.7200   -4.8787 O.co2     1 ATP         0.3195
      3 O2G        -3.3613    1.3246   -3.5775 O.co2     1 ATP         0.3195
      4 O3G        -1.2651    0.0764   -2.7971 O.co2     1 ATP         0.3195
      5 PB          0.1582    1.1489   -5.6549 P.3       1 ATP        -0.9715
      6 O1B         0.1254    0.0361   -6.6604 O.2       1 ATP         0.2707
      7 O2B         0.5485    2.5989   -6.2544 O.3       1 ATP         0.0326
      8 O3B        -1.2477    1.4310   -4.9064 O.3       1 ATP         0.4672
      9 PA          2.7180    0.3539   -4.4230 P.3       1 ATP        -1.1062
     10 O1A         3.6120    1.3016   -5.1928 O.co2     1 ATP         0.3195
     11 O2A         2.6578   -1.1184   -4.7669 O.co2     1 ATP         0.3195
     12 O3A         1.1997    0.9517   -4.4359 O.3       1 ATP         0.4672
     13 O5'         3.0213    0.5153   -2.8245 O.3       1 ATP         0.1618
     14 C5'         2.2816   -0.2918   -1.9206 C.3       1 ATP         0.1504
     15 C4'         2.7248    0.0226   -0.4980 C.3       1 ATP         0.1111
     16 O4'         2.4697    1.4219   -0.2462 O.3       1 ATP        -0.1436
     17 C3'         1.9404   -0.7419    0.5596 C.3       1 ATP         0.1111
     18 O3'         2.7418   -0.8086    1.7389 O.3       1 ATP        -0.2728
     19 C2'         0.7477    0.1630    0.7858 C.3       1 ATP         0.1111
     20 O2'         0.1373   -0.0577    2.0407 O.3       1 ATP        -0.2728
     21 C1'         1.3733    1.5427    0.6747 C.3       1 ATP         0.2693
     22 N9          0.4520    2.5240    0.1767 N.pl3     1 ATP        -0.3222
     23 C8         -1.0247    2.3053   -0.1800 C.ar      1 ATP         0.1640
     24 N7         -1.5580    3.4612   -0.6116 N.2       1 ATP        -0.1640
     25 C5         -0.4873    4.3110   -0.5222 C.ar      1 ATP         0.0820
     26 C6         -0.5728    5.7505   -0.8981 C.ar      1 ATP         0.1640
     27 N6         -1.7163    6.2514   -1.3385 N.pl3     1 ATP        -0.4916
     28 N1          0.5667    6.4301   -0.7475 N.pl3     1 ATP        -0.4390
     29 C2          1.7697    5.7952   -0.2579 C.ar      1 ATP         0.5691
     30 N3          1.8633    4.5450    0.0742 N.ar      1 ATP        -0.4283
     31 C4          0.7014    3.8457   -0.0776 C.ar      1 ATP         0.2226
     32 HOB2        1.4196    2.7124   -6.6909 H         1 ATP         0.2010
     33 H5'1        1.2163   -0.0770   -2.0471 H         1 ATP        -0.0393
     34 H5'2        2.4655   -1.3443   -2.1563 H         1 ATP        -0.0393
     35 H4'         3.8040   -0.1399   -0.4044 H         1 ATP        -0.0393
     36 H3'         1.6768   -1.7637    0.2732 H         1 ATP        -0.0393
     37 HO3'        2.2231   -1.2979    2.3952 H         1 ATP         0.2010
     38 H2'         0.0002   -0.0084   -0.0014 H         1 ATP        -0.0393
     39 HO2'       -0.6132    0.5577    2.1063 H         1 ATP         0.2010
     40 H1'         1.7718    1.9211    1.6015 H         1 ATP        -0.0393
     41 H8         -1.6458    1.4054   -0.1318 H         1 ATP         0.0000
     42 HN61       -2.5307    5.6598   -1.4199 H         1 ATP         0.2048
     43 HN62       -1.7773    7.2266   -1.5938 H         1 ATP         0.2048
     44 H2          2.6279    6.4808   -0.1872 H         1 ATP        -0.1292
     45 H45         0.5621    7.4166   -0.9900 H         1 ATP         0.2048
@<TRIPOS>BOND
     1    1    2 2
     2    1    3 1
     3    1    4 1
     4    1    8 1
     5    5    6 2
     6    5    7 1
     7    5    8 1
     8    5   12 1
     9    7   32 1
    10    9   10 2
    11    9   11 1
    12    9   12 1
    13    9   13 1
    14   13   14 1
    15   14   15 1
    16   14   33 1
    17   14   34 1
    18   15   16 1
    19   15   17 1
    20   15   35 1
    21   16   21 1
    22   17   18 1
    23   17   19 1
    24   17   36 1
    25   18   37 1
    26   19   20 1
    27   19   21 1
    28   19   38 1
    29   20   39 1
    30   21   22 1
    31   21   40 1
    32   22   23 ar
    33   22   31 ar
    34   23   24 ar
    35   23   41 1
    36   24   25 ar
    37   25   26 ar
    38   25   31 ar
    39   26   27 1
    40   26   28 ar
    41   27   42 1
    42   27   43 1
    43   28   29 ar
    44   28   45 1
    45   29   30 ar
    46   29   44 1
    47   30   31 ar
@<TRIPOS>SUBSTRUCTURE
     1 ATP         1 GROUP 0 A     ****
@<TRIPOS>MOLECULE
[[[5-(6-amino-1,8-dihydropurine-6,8-diylium-7-id-9-yl)-3,4-dihydroxy-tetrahydrofuran-2-yl]methoxy-oxido-phosphoryl]oxy-hydroxy-phosphoryl] phosphate
   45    47     1     0     0
SMALL
USER_CHARGES

@<TRIPOS>ATOM
      1 PG          8.8893   -0.7402   -4.7520 P.3       1 ATP        -1.1921
      2 O1G         9.7418   -0.8603   -3.4930 O.co2     1 ATP         0.3195
      3 O2G         9.1063    0.5510   -5.5343 O.co2     1 ATP         0.3195
      4 O3G         8.8615   -1.9975   -5.6148 O.co2     1 ATP         0.3195
      5 PB          6.4681   -1.6119   -3.2770 P.3       1 ATP        -0.9715
      6 O1B         6.2397   -2.9662   -3.8806 O.2       1 ATP         0.2707
      7 O2B         7.2600   -1.6180   -1.8673 O.3       1 ATP         0.0326
      8 O3B         7.3479   -0.6024   -4.1842 O.3       1 ATP         0.4672
      9 PA          3.9458   -0.2356   -3.9447 P.3       1 ATP        -1.1062
     10 O1A         3.1973   -1.4387   -4.4759 O.co2     1 ATP         0.3195
     11 O2A         4.5250    0.8020   -4.8814 O.co2     1 ATP         0.3195
     12 O3A         5.1327   -0.7615   -2.9560 O.3       1 ATP         0.4672
     13 O5'         3.0213    0.5153   -2.8245 O.3       1 ATP         0.1618
     14 C5'         2.2816   -0.2918   -1.9206 C.3       1 ATP         0.1504
     15 C4'         2.7248    0.0226   -0.4980 C.3       1 ATP         0.1111
     16 O4'         2.4697    1.4219   -0.2462 O.3       1 ATP        -0.1436
     17 C3'         1.9404   -0.7419    0.5596 C.3       1 ATP         0.1111
     18 O3'         2.7418   -0.8086    1.7389 O.3       1 ATP        -0.2728
     19 C2'         0.7477    0.1630    0.7858 C.3       1 ATP         0.1111
     20 O2'         0.1373   -0.0577    2.0407 O.3       1 ATP        -0.2728
     21 C1'         1.3733    1.5427    0.6747 C.3       1 ATP         0.2693
     22 N9          0.4520    2.5240    0.1767 N.pl3     1 ATP        -0.3222
     23 C8          0.1798    2.8712   -1.2933 C.ar      1 ATP         0.1640
     24 N7         -0.7494    3.8400   -1.3610 N.2       1 ATP        -0.1640
     25 C5         -1.0173    4.0603   -0.0358 C.ar      1 ATP         0.0820
     26 C6         -2.0105    5.0717    0.4241 C.ar      1 ATP         0.1640
     27 N6         -2.6723    5.7982   -0.4628 N.pl3     1 ATP        -0.4916
     28 N1         -2.1445    5.1522    1.7502 N.pl3     1 ATP        -0.4390
     29 C2         -1.3755    4.3143    2.6426 C.ar      1 ATP         0.5691
     30 N3         -0.5075    3.4292    2.2616 N.ar      1 ATP        -0.4283
     31 C4         -0.3667    3.3425    0.9070 C.ar      1 ATP         0.2226
     32 HOB2        6.8709   -2.1010   -1.1073 H         1 ATP         0.2010
     33 H5'1        1.2163   -0.0770   -2.0471 H         1 ATP        -0.0393
     34 H5'2        2.4655   -1.3443   -2.1563 H         1 ATP        -0.0393
     35 H4'         3.8040   -0.1399   -0.4044 H         1 ATP        -0.0393
     36 H3'         1.6768   -1.7637    0.2732 H         1 ATP        -0.0393
     37 HO3'        2.2231   -1.2979    2.3952 H         1 ATP         0.2010
     38 H2'         0.0002   -0.0084   -0.0014 H         1 ATP        -0.0393
     39 HO2'       -0.6132    0.5577    2.1063 H         1 ATP         0.2010
     40 H1'         1.7718    1.9211    1.6015 H         1 ATP        -0.0393
     41 H8          0.6089    2.4651   -2.2147 H         1 ATP         0.0000
     42 HN61       -2.5055    5.6680   -1.4503 H         1 ATP         0.2048
     43 HN62       -3.3462    6.4841   -0.1542 H         1 ATP         0.2048
     44 H2         -1.5932    4.4937    3.7066 H         1 ATP        -0.1292
     45 H45        -2.8098    5.8270    2.1160 H         1 ATP         0.2048
@<TRIPOS>BOND
     1    1    2 2
     2    1    3 1
     3    1    4 1
     4    1    8 1
     5    5    6 2
     6    5    7 1
     7    5    8 1
     8    5   12 1
     9    7   32 1
    10    9   10 2
    11    9   11 1
    12    9   12 1
    13    9   13 1
    14   13   14 1
    15   14   15 1
    16   14   33 1
    17   14   34 1
    18   15   16 1
    19   15   17 1
    20   15   35 1
    21   16   21 1
    22   17   18 1
    23   17   19 1
    24   17   36 1
    25   18   37 1
    26   19   20 1
    27   19   21 1
    28   19   38 1
    29   20   39 1
    30   21   22 1
    31   21   40 1
    32   22   23 ar
    33   22   31 ar
    34   23   24 ar
    35   23   41 1
    36   24   25 ar
    37   25   26 ar
    38   25   31 ar
    39   26   27 1
    40   26   28 ar
    41   27   42 1
    42   27   43 1
    43   28   29 ar
    44   28   45 1
    45   29   30 ar
    46   29   44 1
    47   30   31 ar
@<TRIPOS>SUBSTRUCTURE
     1 ATP         1 GROUP 0 A     ****
@<TRIPOS>MOLECULE
[[[5-(6-amino-1,8-dihydropurine-6,8-diylium-7-id-9-yl)-3,4-dihydroxy-tetrahydrofuran-2-yl]methoxy-oxido-phosphoryl]oxy-hydroxy-phosphoryl] phosphate
   45    47     1     0     0
SMALL
USER_CHARGES

@<TRIPOS>ATOM
      1 PG          3.2845    0.2141   -8.2417 P.3       1 ATP        -1.1921
      2 O1G         2.3014   -0.4716   -9.1848 O.co2     1 ATP         0.3195
      3 O2G         4.6051    0.6105   -8.8938 O.co2     1 ATP         0.3195
      4 O3G         2.6654    1.3022   -7.3705 O.co2     1 ATP         0.3195
      5 PB          2.8086   -1.8330   -6.1487 P.3       1 ATP        -0.9715
      6 O1B         1.4797   -2.2689   -6.6912 O.2       1 ATP         0.2707
      7 O2B         3.7987   -3.0372   -5.7198 O.3       1 ATP         0.0326
      8 O3B         3.7114   -0.9676   -7.1745 O.3       1 ATP         0.4672
      9 PA          3.9458   -0.2356   -3.9447 P.3       1 ATP        -1.1062
     10 O1A         4.6386    0.8086   -4.7928 O.co2     1 ATP         0.3195
     11 O2A         4.7275   -1.3448   -3.2753 O.co2     1 ATP         0.3195
     12 O3A         2.7479   -0.9056   -4.8274 O.3       1 ATP         0.4672
     13 O5'         3.0213    0.5153   -2.8245 O.3       1 ATP         0.1618
     14 C5'         2.2816   -0.2918   -1.9206 C.3       1 ATP         0.1504
     15 C4'         2.7248    0.0226   -0.4980 C.3       1 ATP         0.1111
     16 O4'         2.4697    1.4219   -0.2462 O.3       1 ATP        -0.1436
     17 C3'         1.9404   -0.7419    0.5596 C.3       1 ATP         0.1111
     18 O3'         2.7418   -0.8086    1.7389 O.3       1 ATP        -0.2728
     19 C2'         0.7477    0.1630    0.7858 C.3       1 ATP         0.1111
     20 O2'         0.1373   -0.0577    2.0407 O.3       1 ATP        -0.2728
     21 C1'         1.3733    1.5427    0.6747 C.3       1 ATP         0.2693
     22 N9          0.4520    2.5240    0.1767 N.pl3     1 ATP        -0.3222
     23 C8          0.1798    2.8712   -1.2933 C.ar      1 ATP         0.1640
     24 N7         -0.7494    3.8400   -1.3610 N.2       1 ATP        -0.1640
     25 C5         -1.0173    4.0603   -0.0358 C.ar      1 ATP         0.0820
     26 C6         -2.0105    5.0717    0.4241 C.ar      1 ATP         0.1640
     27 N6         -2.6723    5.7982   -0.4628 N.pl3     1 ATP        -0.4916
     28 N1         -2.1445    5.1522    1.7502 N.pl3     1 ATP        -0.4390
     29 C2         -1.3755    4.3143    2.6426 C.ar      1 ATP         0.5691
     30 N3         -0.5075    3.4292    2.2616 N.ar      1 ATP        -0.4283
     31 C4         -0.3667    3.3425    0.9070 C.ar      1 ATP         0.2226
     32 HOB2        3.5074   -3.6655   -5.0251 H         1 ATP         0.2010
     33 H5'1        1.2163   -0.0770   -2.0471 H         1 ATP        -0.0393
     34 H5'2        2.4655   -1.3443   -2.1563 H         1 ATP        -0.0393
     35 H4'         3.8040   -0.1399   -0.4044 H         1 ATP        -0.0393
     36 H3'         1.6768   -1.7637    0.2732 H         1 ATP        -0.0393
     37 HO3'        2.2231   -1.2979    2.3952 H         1 ATP         0.2010
     38 H2'         0.0002   -0.0084   -0.0014 H         1 ATP        -0.0393
     39 HO2'       -0.1554   -0.9852    2.0577 H         1 ATP         0.2010
     40 H1'         1.7718    1.9211    1.6015 H         1 ATP        -0.0393
     41 H8          0.6089    2.4651   -2.2147 H         1 ATP         0.0000
     42 HN61       -2.5055    5.6680   -1.4503 H         1 ATP         0.2048
     43 HN62       -3.3462    6.4841   -0.1542 H         1 ATP         0.2048
     44 H2         -1.5932    4.4937    3.7066 H         1 ATP        -0.1292
     45 H45        -2.8098    5.8270    2.1160 H         1 ATP         0.2048
@<TRIPOS>BOND
     1    1    2 2
     2    1    3 1
     3    1    4 1
     4    1    8 1
     5    5    6 2
     6    5    7 1
     7    5    8 1
     8    5   12 1
     9    7   32 1
    10    9   10 2
    11    9   11 1
    12    9   12 1
    13    9   13 1
    14   13   14 1
    15   14   15 1
    16   14   33 1
    17   14   34 1
    18   15   16 1
    19   15   17 1
    20   15   35 1
    21   16   21 1
    22   17   18 1
    23   17   19 1
    24   17   36 1
    25   18   37 1
    26   19   20 1
    27   19   21 1
    28   19   38 1
    29   20   39 1
    30   21   22 1
    31   21   40 1
    32   22   23 ar
    33   22   31 ar
    34   23   24 ar
    35   23   41 1
    36   24   25 ar
    37   25   26 ar
    38   25   31 ar
    39   26   27 1
    40   26   28 ar
    41   27   42 1
    42   27   43 1
    43   28   29 ar
    44   28   45 1
    45   29   30 ar
    46   29   44 1
    47   30   31 ar
@<TRIPOS>SUBSTRUCTURE
     1 ATP         1 GROUP 0 A     ****
@<TRIPOS>MOLECULE
[[[5-(6-amino-1,8-dihydropurine-6,8-diylium-7-id-9-yl)-3,4-dihydroxy-tetrahydrofuran-2-yl]methoxy-oxido-phosphoryl]oxy-hydroxy-phosphoryl] phosphate
   45    47     1     0     0
SMALL
USER_CHARGES

@<TRIPOS>ATOM
      1 PG         -2.4241    2.6082   -5.6451 P.3       1 ATP        -1.1921
      2 O1G        -1.8828    3.6427   -6.6265 O.co2     1 ATP         0.3195
      3 O2G        -3.1692    3.2038   -4.4550 O.co2     1 ATP         0.3195
      4 O3G        -3.1349    1.4297   -6.3023 O.co2     1 ATP         0.3195
      5 PB          0.1582    1.1489   -5.6549 P.3       1 ATP        -0.9715
      6 O1B        -0.2269   -0.1053   -6.3823 O.2       1 ATP         0.2707
      7 O2B         0.8595    2.2813   -6.5715 O.3       1 ATP         0.0326
      8 O3B        -1.0735    1.9446   -4.9721 O.3       1 ATP         0.4672
      9 PA          2.7180    0.3539   -4.4230 P.3       1 ATP        -1.1062
     10 O1A         3.6120    1.3016   -5.1928 O.co2     1 ATP         0.3195
     11 O2A         2.6578   -1.1184   -4.7669 O.co2     1 ATP         0.3195
     12 O3A         1.1997    0.9517   -4.4359 O.3       1 ATP         0.4672
     13 O5'         3.0213    0.5153   -2.8245 O.3       1 ATP         0.1618
     14 C5'         2.2816   -0.2918   -1.9206 C.3       1 ATP         0.1504
     15 C4'         2.7248    0.0226   -0.4980 C.3       1 ATP         0.1111
     16 O4'         2.4697    1.4219   -0.2462 O.3       1 ATP        -0.1436
     17 C3'         1.9404   -0.7419    0.5596 C.3       1 ATP         0.1111
     18 O3'         2.7418   -0.8086    1.7389 O.3       1 ATP        -0.2728
     19 C2'         0.7477    0.1630    0.7858 C.3       1 ATP         0.1111
     20 O2'         0.1373   -0.0577    2.0407 O.3       1 ATP        -0.2728
     21 C1'         1.3733    1.5427    0.6747 C.3       1 ATP         0.2693
     22 N9          0.4520    2.5240    0.1767 N.pl3     1 ATP        -0.3222
     23 C8         -0.7463    2.2774   -0.7501 C.ar      1 ATP         0.1640
     24 N7         -1.3714    3.4419   -0.9948 N.2       1 ATP        -0.1640
     25 C5         -0.6104    4.3223   -0.2723 C.ar      1 ATP         0.0820
     26 C6         -0.9062    5.7820   -0.2194 C.ar      1 ATP         0.1640
     27 N6         -1.9385    6.2713   -0.8881 N.pl3     1 ATP        -0.4916
     28 N1         -0.0613    6.4906    0.5336 N.pl3     1 ATP        -0.4390
     29 C2          1.0416    5.8662    1.2291 C.ar      1 ATP         0.5691
     30 N3          1.3146    4.5989    1.1954 N.ar      1 ATP        -0.4283
     31 C4          0.4541    3.8697    0.4273 C.ar      1 ATP         0.2226
     32 HOB2        0.3626    2.6491   -7.3331 H         1 ATP         0.2010
     33 H5'1        1.2163   -0.0770   -2.0471 H         1 ATP        -0.0393
     34 H5'2        2.4655   -1.3443   -2.1563 H         1 ATP        -0.0393
     35 H4'         3.8040   -0.1399   -0.4044 H         1 ATP        -0.0393
     36 H3'         1.6768   -1.7637    0.2732 H         1 ATP        -0.0393
     37 HO3'        2.2231   -1.2979    2.3952 H         1 ATP         0.2010
     38 H2'         0.0002   -0.0084   -0.0014 H         1 ATP        -0.0393
     39 HO2'       -0.6132    0.5577    2.1063 H         1 ATP         0.2010
     40 H1'         1.7718    1.9211    1.6015 H         1 ATP        -0.0393
     41 H8         -1.1244    1.3534   -1.1987 H         1 ATP         0.0000
     42 HN61       -2.5259    5.6573   -1.4336 H         1 ATP         0.2048
     43 HN62       -2.1416    7.2600   -0.8539 H         1 ATP         0.2048
     44 H2          1.6509    6.5764    1.8088 H         1 ATP        -0.1292
     45 H45        -0.2190    7.4917    0.6033 H         1 ATP         0.2048
@<TRIPOS>BOND
     1    1    2 2
     2    1    3 1
     3    1    4 1
     4    1    8 1
     5    5    6 2
     6    5    7 1
     7    5    8 1
     8    5   12 1
     9    7   32 1
    10    9   10 2
    11    9   11 1
    12    9   12 1
    13    9   13 1
    14   13   14 1
    15   14   15 1
    16   14   33 1
    17   14   34 1
    18   15   16 1
    19   15   17 1
    20   15   35 1
    21   16   21 1
    22   17   18 1
    23   17   19 1
    24   17   36 1
    25   18   37 1
    26   19   20 1
    27   19   21 1
    28   19   38 1
    29   20   39 1
    30   21   22 1
    31   21   40 1
    32   22   23 ar
    33   22   31 ar
    34   23   24 ar
    35   23   41 1
    36   24   25 ar
    37   25   26 ar
    38   25   31 ar
    39   26   27 1
    40   26   28 ar
    41   27   42 1
    42   27   43 1
    43   28   29 ar
    44   28   45 1
    45   29   30 ar
    46   29   44 1
    47   30   31 ar
@<TRIPOS>SUBSTRUCTURE
     1 ATP         1 GROUP 0 A     ****
@<TRIPOS>MOLECULE
[[[5-(6-amino-1,8-dihydropurine-6,8-diylium-7-id-9-yl)-3,4-dihydroxy-tetrahydrofuran-2-yl]methoxy-oxido-phosphoryl]oxy-hydroxy-phosphoryl] phosphate
   45    47     1     0     0
SMALL
USER_CHARGES

@<TRIPOS>ATOM
      1 PG          6.9998    1.2121   -2.1638 P.3       1 ATP        -1.1921
      2 O1G         7.2895    1.8063   -3.5383 O.co2     1 ATP         0.3195
      3 O2G         8.0330    1.5649   -1.0987 O.co2     1 ATP         0.3195
      4 O3G         5.5528    1.3624   -1.7060 O.co2     1 ATP         0.3195
      5 PB          6.4220   -1.4408   -3.3580 P.3       1 ATP        -0.9715
      6 O1B         6.5384   -1.1258   -4.8201 O.2       1 ATP         0.2707
      7 O2B         7.0206   -2.8775   -2.9199 O.3       1 ATP         0.0326
      8 O3B         7.1925   -0.4111   -2.3769 O.3       1 ATP         0.4672
      9 PA          3.5344   -2.0410   -3.4175 P.3       1 ATP        -1.1062
     10 O1A         3.6462   -3.5464   -3.5211 O.co2     1 ATP         0.3195
     11 O2A         3.1788   -1.1977   -4.6226 O.co2     1 ATP         0.3195
     12 O3A         4.9172   -1.4640   -2.7711 O.3       1 ATP         0.4672
     13 O5'         2.5245   -1.6648   -2.1878 O.3       1 ATP         0.1618
     14 C5'         2.2816   -0.2918   -1.9206 C.3       1 ATP         0.1504
     15 C4'         2.7248    0.0226   -0.4980 C.3       1 ATP         0.1111
     16 O4'         2.4697    1.4219   -0.2462 O.3       1 ATP        -0.1436
     17 C3'         1.9404   -0.7419    0.5596 C.3       1 ATP         0.1111
     18 O3'         2.7418   -0.8086    1.7389 O.3       1 ATP        -0.2728
     19 C2'         0.7477    0.1630    0.7858 C.3       1 ATP         0.1111
     20 O2'         0.1373   -0.0577    2.0407 O.3       1 ATP        -0.2728
     21 C1'         1.3733    1.5427    0.6747 C.3       1 ATP         0.2693
     22 N9          0.4520    2.5240    0.1767 N.pl3     1 ATP        -0.3222
     23 C8          0.1798    2.8712   -1.2933 C.ar      1 ATP         0.1640
     24 N7         -0.7494    3.8400   -1.3610 N.2       1 ATP        -0.1640
     25 C5         -1.0173    4.0603   -0.0358 C.ar      1 ATP         0.0820
     26 C6         -2.0105    5.0717    0.4241 C.ar      1 ATP         0.1640
     27 N6         -2.6723    5.7982   -0.4628 N.pl3     1 ATP        -0.4916
     28 N1         -2.1445    5.1522    1.7502 N.pl3     1 ATP        -0.4390
     29 C2         -1.3755    4.3143    2.6426 C.ar      1 ATP         0.5691
     30 N3         -0.5075    3.4292    2.2616 N.ar      1 ATP        -0.4283
     31 C4         -0.3667    3.3425    0.9070 C.ar      1 ATP         0.2226
     32 HOB2        6.6429   -3.6900   -3.3193 H         1 ATP         0.2010
     33 H5'1        2.8432    0.3119   -2.6398 H         1 ATP        -0.0393
     34 H5'2        1.2128   -0.0927   -2.0428 H         1 ATP        -0.0393
     35 H4'         3.8040   -0.1399   -0.4044 H         1 ATP        -0.0393
     36 H3'         1.6768   -1.7637    0.2732 H         1 ATP        -0.0393
     37 HO3'        2.2231   -1.2979    2.3952 H         1 ATP         0.2010
     38 H2'         0.0002   -0.0084   -0.0014 H         1 ATP        -0.0393
     39 HO2'       -0.6132    0.5577    2.1063 H         1 ATP         0.2010
     40 H1'         1.7718    1.9211    1.6015 H         1 ATP        -0.0393
     41 H8          0.6089    2.4651   -2.2147 H         1 ATP         0.0000
     42 HN61       -2.5055    5.6680   -1.4503 H         1 ATP         0.2048
     43 HN62       -3.3462    6.4841   -0.1542 H         1 ATP         0.2048
     44 H2         -1.5932    4.4937    3.7066 H         1 ATP        -0.1292
     45 H45        -2.8098    5.8270    2.1160 H         1 ATP         0.2048
@<TRIPOS>BOND
     1    1    2 2
     2    1    3 1
     3    1    4 1
     4    1    8 1
     5    5    6 2
     6    5    7 1
     7    5    8 1
     8    5   12 1
     9    7   32 1
    10    9   10 2
    11    9   11 1
    12    9   12 1
    13    9   13 1
    14   13   14 1
    15   14   15 1
    16   14   33 1
    17   14   34 1
    18   15   16 1
    19   15   17 1
    20   15   35 1
    21   16   21 1
    22   17   18 1
    23   17   19 1
    24   17   36 1
    25   18   37 1
    26   19   20 1
    27   19   21 1
    28   19   38 1
    29   20   39 1
    30   21   22 1
    31   21   40 1
    32   22   23 ar
    33   22   31 ar
    34   23   24 ar
    35   23   41 1
    36   24   25 ar
    37   25   26 ar
    38   25   31 ar
    39   26   27 1
    40   26   28 ar
    41   27   42 1
    42   27   43 1
    43   28   29 ar
    44   28   45 1
    45   29   30 ar
    46   29   44 1
    47   30   31 ar
@<TRIPOS>SUBSTRUCTURE
     1 ATP         1 GROUP 0 A     ****
@<TRIPOS>MOLECULE
[[[5-(6-amino-1,8-dihydropurine-6,8-diylium-7-id-9-yl)-3,4-dihydroxy-tetrahydrofuran-2-yl]methoxy-oxido-phosphoryl]oxy-hydroxy-phosphoryl] phosphate
   45    47     1     0     0
SMALL
USER_CHARGES

@<TRIPOS>ATOM
      1 PG         -3.3921   -3.2677   -2.4368 P.3       1 ATP        -1.1921
      2 O1G        -3.2986   -4.7729   -2.6643 O.co2     1 ATP         0.3195
      3 O2G        -4.3984   -2.5595   -3.3381 O.co2     1 ATP         0.3195
      4 O3G        -3.4685   -2.8570   -0.9699 O.co2     1 ATP         0.3195
      5 PB         -0.4366   -3.0173   -2.4277 P.3       1 ATP        -0.9715
      6 O1B        -0.1833   -2.6934   -0.9849 O.2       1 ATP         0.2707
      7 O2B        -0.2469   -4.5740   -2.8209 O.3       1 ATP         0.0326
      8 O3B        -1.9340   -2.6910   -2.9452 O.3       1 ATP         0.4672
      9 PA          2.1265   -2.2419   -3.6650 P.3       1 ATP        -1.1062
     10 O1A         2.4931   -1.2125   -4.7118 O.co2     1 ATP         0.3195
     11 O2A         2.5985   -3.6751   -3.7777 O.co2     1 ATP         0.3195
     12 O3A         0.5044   -2.2428   -3.4880 O.3       1 ATP         0.4672
     13 O5'         2.5245   -1.6648   -2.1878 O.3       1 ATP         0.1618
     14 C5'         2.2816   -0.2918   -1.9206 C.3       1 ATP         0.1504
     15 C4'         2.7248    0.0226   -0.4980 C.3       1 ATP         0.1111
     16 O4'         2.4697    1.4219   -0.2462 O.3       1 ATP        -0.1436
     17 C3'         1.9404   -0.7419    0.5596 C.3       1 ATP         0.1111
     18 O3'         2.7418   -0.8086    1.7389 O.3       1 ATP        -0.2728
     19 C2'         0.7477    0.1630    0.7858 C.3       1 ATP         0.1111
     20 O2'         0.1373   -0.0577    2.0407 O.3       1 ATP        -0.2728
     21 C1'         1.3733    1.5427    0.6747 C.3       1 ATP         0.2693
     22 N9          0.4520    2.5240    0.1767 N.pl3     1 ATP        -0.3222
     23 C8          0.1798    2.8712   -1.2933 C.ar      1 ATP         0.1640
     24 N7         -0.7494    3.8400   -1.3610 N.2       1 ATP        -0.1640
     25 C5         -1.0173    4.0603   -0.0358 C.ar      1 ATP         0.0820
     26 C6         -2.0105    5.0717    0.4241 C.ar      1 ATP         0.1640
     27 N6         -2.6723    5.7982   -0.4628 N.pl3     1 ATP        -0.4916
     28 N1         -2.1445    5.1522    1.7502 N.pl3     1 ATP        -0.4390
     29 C2         -1.3755    4.3143    2.6426 C.ar      1 ATP         0.5691
     30 N3         -0.5075    3.4292    2.2616 N.ar      1 ATP        -0.4283
     31 C4         -0.3667    3.3425    0.9070 C.ar      1 ATP         0.2226
     32 HOB2       -0.8045   -5.2468   -2.3751 H         1 ATP         0.2010
     33 H5'1        2.8432    0.3119   -2.6398 H         1 ATP        -0.0393
     34 H5'2        1.2128   -0.0927   -2.0428 H         1 ATP        -0.0393
     35 H4'         3.8040   -0.1399   -0.4044 H         1 ATP        -0.0393
     36 H3'         1.6768   -1.7637    0.2732 H         1 ATP        -0.0393
     37 HO3'        3.5553   -1.2733    1.4913 H         1 ATP         0.2010
     38 H2'         0.0002   -0.0084   -0.0014 H         1 ATP        -0.0393
     39 HO2'        0.8091    0.1203    2.7213 H         1 ATP         0.2010
     40 H1'         1.7718    1.9211    1.6015 H         1 ATP        -0.0393
     41 H8          0.6089    2.4651   -2.2147 H         1 ATP         0.0000
     42 HN61       -2.5055    5.6680   -1.4503 H         1 ATP         0.2048
     43 HN62       -3.3462    6.4841   -0.1542 H         1 ATP         0.2048
     44 H2         -1.5932    4.4937    3.7066 H         1 ATP        -0.1292
     45 H45        -2.8098    5.8270    2.1160 H         1 ATP         0.2048
@<TRIPOS>BOND
     1    1    2 2
     2    1    3 1
     3    1    4 1
     4    1    8 1
     5    5    6 2
     6    5    7 1
     7    5    8 1
     8    5   12 1
     9    7   32 1
    10    9   10 2
    11    9   11 1
    12    9   12 1
    13    9   13 1
    14   13   14 1
    15   14   15 1
    16   14   33 1
    17   14   34 1
    18   15   16 1
    19   15   17 1
    20   15   35 1
    21   16   21 1
    22   17   18 1
    23   17   19 1
    24   17   36 1
    25   18   37 1
    26   19   20 1
    27   19   21 1
    28   19   38 1
    29   20   39 1
    30   21   22 1
    31   21   40 1
    32   22   23 ar
    33   22   31 ar
    34   23   24 ar
    35   23   41 1
    36   24   25 ar
    37   25   26 ar
    38   25   31 ar
    39   26   27 1
    40   26   28 ar
    41   27   42 1
    42   27   43 1
    43   28   29 ar
    44   28   45 1
    45   29   30 ar
    46   29   44 1
    47   30   31 ar
@<TRIPOS>SUBSTRUCTURE
     1 ATP         1 GROUP 0 A     ****
@<TRIPOS>MOLECULE
[[[5-(6-amino-1,8-dihydropurine-6,8-diylium-7-id-9-yl)-3,4-dihydroxy-tetrahydrofuran-2-yl]methoxy-oxido-phosphoryl]oxy-hydroxy-phosphoryl] phosphate
   45    47     1     0     0
SMALL
USER_CHARGES

@<TRIPOS>ATOM
      1 PG          7.4913    0.1730   -5.6052 P.3       1 ATP        -1.1921
      2 O1G         8.4039    0.9479   -4.6601 O.co2     1 ATP         0.3195
      3 O2G         6.7231    1.0475   -6.5908 O.co2     1 ATP         0.3195
      4 O3G         8.1357   -1.0590   -6.2321 O.co2     1 ATP         0.3195
      5 PB          6.4220   -1.4408   -3.3580 P.3       1 ATP        -0.9715
      6 O1B         7.0140   -2.7844   -3.6661 O.2       1 ATP         0.2707
      7 O2B         7.2390   -0.5689   -2.2686 O.3       1 ATP         0.0326
      8 O3B         6.3171   -0.4376   -4.6225 O.3       1 ATP         0.4672
      9 PA          3.5344   -2.0410   -3.4175 P.3       1 ATP        -1.1062
     10 O1A         3.6462   -3.5464   -3.5211 O.co2     1 ATP         0.3195
     11 O2A         3.1788   -1.1977   -4.6226 O.co2     1 ATP         0.3195
     12 O3A         4.9172   -1.4640   -2.7711 O.3       1 ATP         0.4672
     13 O5'         2.5245   -1.6648   -2.1878 O.3       1 ATP         0.1618
     14 C5'         2.2816   -0.2918   -1.9206 C.3       1 ATP         0.1504
     15 C4'         2.7248    0.0226   -0.4980 C.3       1 ATP         0.1111
     16 O4'         2.4697    1.4219   -0.2462 O.3       1 ATP        -0.1436
     17 C3'         1.9404   -0.7419    0.5596 C.3       1 ATP         0.1111
     18 O3'         2.7418   -0.8086    1.7389 O.3       1 ATP        -0.2728
     19 C2'         0.7477    0.1630    0.7858 C.3       1 ATP         0.1111
     20 O2'         0.1373   -0.0577    2.0407 O.3       1 ATP        -0.2728
     21 C1'         1.3733    1.5427    0.6747 C.3       1 ATP         0.2693
     22 N9          0.4520    2.5240    0.1767 N.pl3     1 ATP        -0.3222
     23 C8          0.1798    2.8712   -1.2933 C.ar      1 ATP         0.1640
     24 N7         -0.7494    3.8400   -1.3610 N.2       1 ATP        -0.1640
     25 C5         -1.0173    4.0603   -0.0358 C.ar      1 ATP         0.0820
     26 C6         -2.0105    5.0717    0.4241 C.ar      1 ATP         0.1640
     27 N6         -2.6723    5.7982   -0.4628 N.pl3     1 ATP        -0.4916
     28 N1         -2.1445    5.1522    1.7502 N.pl3     1 ATP        -0.4390
     29 C2         -1.3755    4.3143    2.6426 C.ar      1 ATP         0.5691
     30 N3         -0.5075    3.4292    2.2616 N.ar      1 ATP        -0.4283
     31 C4         -0.3667    3.3425    0.9070 C.ar      1 ATP         0.2226
     32 HOB2        8.1704   -0.3266   -2.4578 H         1 ATP         0.2010
     33 H5'1        2.8432    0.3119   -2.6398 H         1 ATP        -0.0393
     34 H5'2        1.2128   -0.0927   -2.0428 H         1 ATP        -0.0393
     35 H4'         3.8040   -0.1399   -0.4044 H         1 ATP        -0.0393
     36 H3'         1.6768   -1.7637    0.2732 H         1 ATP        -0.0393
     37 HO3'        2.2231   -1.2979    2.3952 H         1 ATP         0.2010
     38 H2'         0.0002   -0.0084   -0.0014 H         1 ATP        -0.0393
     39 HO2'       -0.1554   -0.9852    2.0577 H         1 ATP         0.2010
     40 H1'         1.7718    1.9211    1.6015 H         1 ATP        -0.0393
     41 H8          0.6089    2.4651   -2.2147 H         1 ATP         0.0000
     42 HN61       -2.5055    5.6680   -1.4503 H         1 ATP         0.2048
     43 HN62       -3.3462    6.4841   -0.1542 H         1 ATP         0.2048
     44 H2         -1.5932    4.4937    3.7066 H         1 ATP        -0.1292
     45 H45        -2.8098    5.8270    2.1160 H         1 ATP         0.2048
@<TRIPOS>BOND
     1    1    2 2
     2    1    3 1
     3    1    4 1
     4    1    8 1
     5    5    6 2
     6    5    7 1
     7    5    8 1
     8    5   12 1
     9    7   32 1
    10    9   10 2
    11    9   11 1
    12    9   12 1
    13    9   13 1
    14   13   14 1
    15   14   15 1
    16   14   33 1
    17   14   34 1
    18   15   16 1
    19   15   17 1
    20   15   35 1
    21   16   21 1
    22   17   18 1
    23   17   19 1
    24   17   36 1
    25   18   37 1
    26   19   20 1
    27   19   21 1
    28   19   38 1
    29   20   39 1
    30   21   22 1
    31   21   40 1
    32   22   23 ar
    33   22   31 ar
    34   23   24 ar
    35   23   41 1
    36   24   25 ar
    37   25   26 ar
    38   25   31 ar
    39   26   27 1
    40   26   28 ar
    41   27   42 1
    42   27   43 1
    43   28   29 ar
    44   28   45 1
    45   29   30 ar
    46   29   44 1
    47   30   31 ar
@<TRIPOS>SUBSTRUCTURE
     1 ATP         1 GROUP 0 A     ****
@<TRIPOS>MOLECULE
[[[5-(6-amino-1,8-dihydropurine-6,8-diylium-7-id-9-yl)-3,4-dihydroxy-tetrahydrofuran-2-yl]methoxy-oxido-phosphoryl]oxy-hydroxy-phosphoryl] phosphate
   45    47     1     0     0
SMALL
USER_CHARGES

@<TRIPOS>ATOM
      1 PG          2.2427   -1.6560   -8.7757 P.3       1 ATP        -1.1921
      2 O1G         1.7091   -3.0833   -8.7105 O.co2     1 ATP         0.3195
      3 O2G         3.6860   -1.5484   -9.2570 O.co2     1 ATP         0.3195
      4 O3G         1.2903   -0.6577   -9.4257 O.co2     1 ATP         0.3195
      5 PB          1.1521   -1.0535   -6.0840 P.3       1 ATP        -0.9715
      6 O1B         0.0465   -0.1011   -6.4319 O.2       1 ATP         0.2707
      7 O2B         0.6884   -2.5871   -5.8665 O.3       1 ATP         0.0326
      8 O3B         2.3169   -1.1802   -7.1992 O.3       1 ATP         0.4672
      9 PA          2.8307    0.6109   -4.3192 P.3       1 ATP        -1.1062
     10 O1A         1.8842    1.7848   -4.1936 O.co2     1 ATP         0.3195
     11 O2A         4.0512    0.6814   -5.2108 O.co2     1 ATP         0.3195
     12 O3A         1.9639   -0.7091   -4.7305 O.3       1 ATP         0.4672
     13 O5'         3.2903    0.1346   -2.8241 O.3       1 ATP         0.1618
     14 C5'         2.2816   -0.2918   -1.9206 C.3       1 ATP         0.1504
     15 C4'         2.7248    0.0226   -0.4980 C.3       1 ATP         0.1111
     16 O4'         2.4697    1.4219   -0.2462 O.3       1 ATP        -0.1436
     17 C3'         1.9404   -0.7419    0.5596 C.3       1 ATP         0.1111
     18 O3'         2.7418   -0.8086    1.7389 O.3       1 ATP        -0.2728
     19 C2'         0.7477    0.1630    0.7858 C.3       1 ATP         0.1111
     20 O2'         0.1373   -0.0577    2.0407 O.3       1 ATP        -0.2728
     21 C1'         1.3733    1.5427    0.6747 C.3       1 ATP         0.2693
     22 N9          0.4520    2.5240    0.1767 N.pl3     1 ATP        -0.3222
     23 C8         -0.3054    2.4845   -1.1576 C.ar      1 ATP         0.1640
     24 N7         -1.0755    3.5806   -1.2691 N.2       1 ATP        -0.1640
     25 C5         -0.8043    4.2306   -0.0942 C.ar      1 ATP         0.0820
     26 C6         -1.4324    5.5335    0.2646 C.ar      1 ATP         0.1640
     27 N6         -2.2885    6.1054   -0.5675 N.pl3     1 ATP        -0.4916
     28 N1         -1.0537    6.0229    1.4478 N.pl3     1 ATP        -0.4390
     29 C2         -0.1096    5.3242    2.2908 C.ar      1 ATP         0.5691
     30 N3          0.4468    4.1904    1.9960 N.ar      1 ATP        -0.4283
     31 C4          0.0631    3.6855    0.7877 C.ar      1 ATP         0.2226
     32 HOB2        0.2565   -3.0613   -6.6086 H         1 ATP         0.2010
     33 H5'1        1.3514    0.2330   -2.1577 H         1 ATP        -0.0393
     34 H5'2        2.1280   -1.3678   -2.0460 H         1 ATP        -0.0393
     35 H4'         3.8040   -0.1399   -0.4044 H         1 ATP        -0.0393
     36 H3'         1.6768   -1.7637    0.2732 H         1 ATP        -0.0393
     37 HO3'        2.2231   -1.2979    2.3952 H         1 ATP         0.2010
     38 H2'         0.0002   -0.0084   -0.0014 H         1 ATP        -0.0393
     39 HO2'       -0.6132    0.5577    2.1063 H         1 ATP         0.2010
     40 H1'         1.7718    1.9211    1.6015 H         1 ATP        -0.0393
     41 H8         -0.2991    1.7413   -1.9611 H         1 ATP         0.0000
     42 HN61       -2.5167    5.6603   -1.4447 H         1 ATP         0.2048
     43 HN62       -2.7159    6.9882   -0.3270 H         1 ATP         0.2048
     44 H2          0.1059    5.8491    3.2340 H         1 ATP        -0.1292
     45 H45        -1.4532    6.9099    1.7401 H         1 ATP         0.2048
@<TRIPOS>BOND
     1    1    2 2
     2    1    3 1
     3    1    4 1
     4    1    8 1
     5    5    6 2
     6    5    7 1
     7    5    8 1
     8    5   12 1
     9    7   32 1
    10    9   10 2
    11    9   11 1
    12    9   12 1
    13    9   13 1
    14   13   14 1
    15   14   15 1
    16   14   33 1
    17   14   34 1
    18   15   16 1
    19   15   17 1
    20   15   35 1
    21   16   21 1
    22   17   18 1
    23   17   19 1
    24   17   36 1
    25   18   37 1
    26   19   20 1
    27   19   21 1
    28   19   38 1
    29   20   39 1
    30   21   22 1
    31   21   40 1
    32   22   23 ar
    33   22   31 ar
    34   23   24 ar
    35   23   41 1
    36   24   25 ar
    37   25   26 ar
    38   25   31 ar
    39   26   27 1
    40   26   28 ar
    41   27   42 1
    42   27   43 1
    43   28   29 ar
    44   28   45 1
    45   29   30 ar
    46   29   44 1
    47   30   31 ar
@<TRIPOS>SUBSTRUCTURE
     1 ATP         1 GROUP 0 A     ****
@<TRIPOS>MOLECULE
[[[5-(6-amino-1,8-dihydropurine-6,8-diylium-7-id-9-yl)-3,4-dihydroxy-tetrahydrofuran-2-yl]methoxy-oxido-phosphoryl]oxy-hydroxy-phosphoryl] phosphate
   45    47     1     0     0
SMALL
USER_CHARGES

@<TRIPOS>ATOM
      1 PG          0.0853   -5.3575   -0.0595 P.3       1 ATP        -1.1921
      2 O1G         0.3632   -6.7108   -0.7059 O.co2     1 ATP         0.3195
      3 O2G        -0.9237   -5.4048    1.0833 O.co2     1 ATP         0.3195
      4 O3G         1.3346   -4.5365    0.2423 O.co2     1 ATP         0.3195
      5 PB         -0.2050   -4.0722   -2.7169 P.3       1 ATP        -0.9715
      6 O1B         0.1343   -5.2172   -3.6250 O.2       1 ATP         0.2707
      7 O2B        -1.4084   -3.1245   -3.2343 O.3       1 ATP         0.0326
      8 O3B        -0.6906   -4.5005   -1.2346 O.3       1 ATP         0.4672
      9 PA          2.1381   -2.4286   -3.4316 P.3       1 ATP        -1.1062
     10 O1A         1.4576   -1.5471   -4.4561 O.co2     1 ATP         0.3195
     11 O2A         3.0535   -3.5569   -3.8544 O.co2     1 ATP         0.3195
     12 O3A         0.9983   -3.0328   -2.4322 O.3       1 ATP         0.4672
     13 O5'         2.9216   -1.4836   -2.3516 O.3       1 ATP         0.1618
     14 C5'         2.2816   -0.2918   -1.9206 C.3       1 ATP         0.1504
     15 C4'         2.7248    0.0226   -0.4980 C.3       1 ATP         0.1111
     16 O4'         2.4697    1.4219   -0.2462 O.3       1 ATP        -0.1436
     17 C3'         1.9404   -0.7419    0.5596 C.3       1 ATP         0.1111
     18 O3'         2.7418   -0.8086    1.7389 O.3       1 ATP        -0.2728
     19 C2'         0.7477    0.1630    0.7858 C.3       1 ATP         0.1111
     20 O2'         0.1373   -0.0577    2.0407 O.3       1 ATP        -0.2728
     21 C1'         1.3733    1.5427    0.6747 C.3       1 ATP         0.2693
     22 N9          0.4520    2.5240    0.1767 N.pl3     1 ATP        -0.3222
     23 C8         -0.3054    2.4845   -1.1576 C.ar      1 ATP         0.1640
     24 N7         -1.0755    3.5806   -1.2691 N.2       1 ATP        -0.1640
     25 C5         -0.8043    4.2306   -0.0942 C.ar      1 ATP         0.0820
     26 C6         -1.4324    5.5335    0.2646 C.ar      1 ATP         0.1640
     27 N6         -2.2885    6.1054   -0.5675 N.pl3     1 ATP        -0.4916
     28 N1         -1.0537    6.0229    1.4478 N.pl3     1 ATP        -0.4390
     29 C2         -0.1096    5.3242    2.2908 C.ar      1 ATP         0.5691
     30 N3          0.4468    4.1904    1.9960 N.ar      1 ATP        -0.4283
     31 C4          0.0631    3.6855    0.7877 C.ar      1 ATP         0.2226
     32 HOB2       -1.3114   -2.6621   -4.0939 H         1 ATP         0.2010
     33 H5'1        2.5589    0.5217   -2.5976 H         1 ATP        -0.0393
     34 H5'2        1.1982   -0.4388   -1.9617 H         1 ATP        -0.0393
     35 H4'         3.8040   -0.1399   -0.4044 H         1 ATP        -0.0393
     36 H3'         1.6768   -1.7637    0.2732 H         1 ATP        -0.0393
     37 HO3'        2.2231   -1.2979    2.3952 H         1 ATP         0.2010
     38 H2'         0.0002   -0.0084   -0.0014 H         1 ATP        -0.0393
     39 HO2'       -0.6132    0.5577    2.1063 H         1 ATP         0.2010
     40 H1'         1.7718    1.9211    1.6015 H         1 ATP        -0.0393
     41 H8         -0.2991    1.7413   -1.9611 H         1 ATP         0.0000
     42 HN61       -2.5167    5.6603   -1.4447 H         1 ATP         0.2048
     43 HN62       -2.7159    6.9882   -0.3270 H         1 ATP         0.2048
     44 H2          0.1059    5.8491    3.2340 H         1 ATP        -0.1292
     45 H45        -1.4532    6.9099    1.7401 H         1 ATP         0.2048
@<TRIPOS>BOND
     1    1    2 2
     2    1    3 1
     3    1    4 1
     4    1    8 1
     5    5    6 2
     6    5    7 1
     7    5    8 1
     8    5   12 1
     9    7   32 1
    10    9   10 2
    11    9   11 1
    12    9   12 1
    13    9   13 1
    14   13   14 1
    15   14   15 1
    16   14   33 1
    17   14   34 1
    18   15   16 1
    19   15   17 1
    20   15   35 1
    21   16   21 1
    22   17   18 1
    23   17   19 1
    24   17   36 1
    25   18   37 1
    26   19   20 1
    27   19   21 1
    28   19   38 1
    29   20   39 1
    30   21   22 1
    31   21   40 1
    32   22   23 ar
    33   22   31 ar
    34   23   24 ar
    35   23   41 1
    36   24   25 ar
    37   25   26 ar
    38   25   31 ar
    39   26   27 1
    40   26   28 ar
    41   27   42 1
    42   27   43 1
    43   28   29 ar
    44   28   45 1
    45   29   30 ar
    46   29   44 1
    47   30   31 ar
@<TRIPOS>SUBSTRUCTURE
     1 ATP         1 GROUP 0 A     ****
@<TRIPOS>MOLECULE
[[[5-(6-amino-1,8-dihydropurine-6,8-diylium-7-id-9-yl)-3,4-dihydroxy-tetrahydrofuran-2-yl]methoxy-oxido-phosphoryl]oxy-hydroxy-phosphoryl] phosphate
   45    47     1     0     0
SMALL
USER_CHARGES

@<TRIPOS>ATOM
      1 PG          6.9794   -4.4916   -3.9441 P.3       1 ATP        -1.1921
      2 O1G         6.0221   -5.5076   -4.5586 O.co2     1 ATP         0.3195
      3 O2G         7.4352   -4.8363   -2.5300 O.co2     1 ATP         0.3195
      4 O3G         8.1040   -4.0456   -4.8729 O.co2     1 ATP         0.3195
      5 PB          5.2616   -2.2396   -4.8249 P.3       1 ATP        -0.9715
      6 O1B         6.1214   -1.6260   -5.8901 O.2       1 ATP         0.2707
      7 O2B         4.1198   -3.2481   -5.3666 O.3       1 ATP         0.0326
      8 O3B         6.0582   -3.1395   -3.7423 O.3       1 ATP         0.4672
      9 PA          3.3181   -0.0790   -4.3186 P.3       1 ATP        -1.1062
     10 O1A         2.0846   -0.8003   -4.8164 O.co2     1 ATP         0.3195
     11 O2A         3.9876    0.9926   -5.1510 O.co2     1 ATP         0.3195
     12 O3A         4.4380   -1.1934   -3.9103 O.3       1 ATP         0.4672
     13 O5'         3.0213    0.5153   -2.8245 O.3       1 ATP         0.1618
     14 C5'         2.2816   -0.2918   -1.9206 C.3       1 ATP         0.1504
     15 C4'         2.7248    0.0226   -0.4980 C.3       1 ATP         0.1111
     16 O4'         2.4697    1.4219   -0.2462 O.3       1 ATP        -0.1436
     17 C3'         1.9404   -0.7419    0.5596 C.3       1 ATP         0.1111
     18 O3'         2.7418   -0.8086    1.7389 O.3       1 ATP        -0.2728
     19 C2'         0.7477    0.1630    0.7858 C.3       1 ATP         0.1111
     20 O2'         0.1373   -0.0577    2.0407 O.3       1 ATP        -0.2728
     21 C1'         1.3733    1.5427    0.6747 C.3       1 ATP         0.2693
     22 N9          0.4520    2.5240    0.1767 N.pl3     1 ATP        -0.3222
     23 C8         -0.3054    2.4845   -1.1576 C.ar      1 ATP         0.1640
     24 N7         -1.0755    3.5806   -1.2691 N.2       1 ATP        -0.1640
     25 C5         -0.8043    4.2306   -0.0942 C.ar      1 ATP         0.0820
     26 C6         -1.4324    5.5335    0.2646 C.ar      1 ATP         0.1640
     27 N6         -2.2885    6.1054   -0.5675 N.pl3     1 ATP        -0.4916
     28 N1         -1.0537    6.0229    1.4478 N.pl3     1 ATP        -0.4390
     29 C2         -0.1096    5.3242    2.2908 C.ar      1 ATP         0.5691
     30 N3          0.4468    4.1904    1.9960 N.ar      1 ATP        -0.4283
     31 C4          0.0631    3.6855    0.7877 C.ar      1 ATP         0.2226
     32 HOB2        4.3913   -4.0436   -5.8723 H         1 ATP         0.2010
     33 H5'1        1.2163   -0.0770   -2.0471 H         1 ATP        -0.0393
     34 H5'2        2.4655   -1.3443   -2.1563 H         1 ATP        -0.0393
     35 H4'         3.8040   -0.1399   -0.4044 H         1 ATP        -0.0393
     36 H3'         1.6768   -1.7637    0.2732 H         1 ATP        -0.0393
     37 HO3'        3.5553   -1.2733    1.4913 H         1 ATP         0.2010
     38 H2'         0.0002   -0.0084   -0.0014 H         1 ATP        -0.0393
     39 HO2'       -0.1554   -0.9852    2.0577 H         1 ATP         0.2010
     40 H1'         1.7718    1.9211    1.6015 H         1 ATP        -0.0393
     41 H8         -0.2991    1.7413   -1.9611 H         1 ATP         0.0000
     42 HN61       -2.5167    5.6603   -1.4447 H         1 ATP         0.2048
     43 HN62       -2.7159    6.9882   -0.3270 H         1 ATP         0.2048
     44 H2          0.1059    5.8491    3.2340 H         1 ATP        -0.1292
     45 H45        -1.4532    6.9099    1.7401 H         1 ATP         0.2048
@<TRIPOS>BOND
     1    1    2 2
     2    1    3 1
     3    1    4 1
     4    1    8 1
     5    5    6 2
     6    5    7 1
     7    5    8 1
     8    5   12 1
     9    7   32 1
    10    9   10 2
    11    9   11 1
    12    9   12 1
    13    9   13 1
    14   13   14 1
    15   14   15 1
    16   14   33 1
    17   14   34 1
    18   15   16 1
    19   15   17 1
    20   15   35 1
    21   16   21 1
    22   17   18 1
    23   17   19 1
    24   17   36 1
    25   18   37 1
    26   19   20 1
    27   19   21 1
    28   19   38 1
    29   20   39 1
    30   21   22 1
    31   21   40 1
    32   22   23 ar
    33   22   31 ar
    34   23   24 ar
    35   23   41 1
    36   24   25 ar
    37   25   26 ar
    38   25   31 ar
    39   26   27 1
    40   26   28 ar
    41   27   42 1
    42   27   43 1
    43   28   29 ar
    44   28   45 1
    45   29   30 ar
    46   29   44 1
    47   30   31 ar
@<TRIPOS>SUBSTRUCTURE
     1 ATP         1 GROUP 0 A     ****
@<TRIPOS>MOLECULE
[[[5-(6-amino-1,8-dihydropurine-6,8-diylium-7-id-9-yl)-3,4-dihydroxy-tetrahydrofuran-2-yl]methoxy-oxido-phosphoryl]oxy-hydroxy-phosphoryl] phosphate
   45    47     1     0     0
SMALL
USER_CHARGES

@<TRIPOS>ATOM
      1 PG          4.2330   -4.4424   -4.4738 P.3       1 ATP        -1.1921
      2 O1G         4.7886   -4.6401   -3.0672 O.co2     1 ATP         0.3195
      3 O2G         4.6645   -5.5107   -5.4733 O.co2     1 ATP         0.3195
      4 O3G         2.7463   -4.1053   -4.5210 O.co2     1 ATP         0.3195
      5 PB          4.9573   -1.5665   -4.4286 P.3       1 ATP        -0.9715
      6 O1B         5.4763   -1.4261   -3.0281 O.2       1 ATP         0.2707
      7 O2B         5.7750   -0.7318   -5.5461 O.3       1 ATP         0.0326
      8 O3B         4.9776   -3.0744   -5.0135 O.3       1 ATP         0.4672
      9 PA          2.7180    0.3539   -4.4230 P.3       1 ATP        -1.1062
     10 O1A         1.2273    0.1956   -4.6287 O.co2     1 ATP         0.3195
     11 O2A         3.5063    1.3990   -5.1820 O.co2     1 ATP         0.3195
     12 O3A         3.4276   -1.0977   -4.6517 O.3       1 ATP         0.4672
     13 O5'         3.0213    0.5153   -2.8245 O.3       1 ATP         0.1618
     14 C5'         2.2816   -0.2918   -1.9206 C.3       1 ATP         0.1504
     15 C4'         2.7248    0.0226   -0.4980 C.3       1 ATP         0.1111
     16 O4'         2.4697    1.4219   -0.2462 O.3       1 ATP        -0.1436
     17 C3'         1.9404   -0.7419    0.5596 C.3       1 ATP         0.1111
     18 O3'         2.7418   -0.8086    1.7389 O.3       1 ATP        -0.2728
     19 C2'         0.7477    0.1630    0.7858 C.3       1 ATP         0.1111
     20 O2'         0.1373   -0.0577    2.0407 O.3       1 ATP        -0.2728
     21 C1'         1.3733    1.5427    0.6747 C.3       1 ATP         0.2693
     22 N9          0.4520    2.5240    0.1767 N.pl3     1 ATP        -0.3222
     23 C8         -1.0660    2.5608    0.3999 C.ar      1 ATP         0.1640
     24 N7         -1.5852    3.6333   -0.2221 N.2       1 ATP        -0.1640
     25 C5         -0.4682    4.1996   -0.7771 C.ar      1 ATP         0.0820
     26 C6         -0.5216    5.4476   -1.5899 C.ar      1 ATP         0.1640
     27 N6         -1.6813    6.0510   -1.7982 N.pl3     1 ATP        -0.4916
     28 N1          0.6621    5.8575   -2.0523 N.pl3     1 ATP        -0.4390
     29 C2          1.8795    5.1301   -1.7717 C.ar      1 ATP         0.5691
     30 N3          1.9458    4.0434   -1.0670 N.ar      1 ATP        -0.4283
     31 C4          0.7388    3.6199   -0.5917 C.ar      1 ATP         0.2226
     32 HOB2        5.8311    0.2439   -5.4619 H         1 ATP         0.2010
     33 H5'1        1.2163   -0.0770   -2.0471 H         1 ATP        -0.0393
     34 H5'2        2.4655   -1.3443   -2.1563 H         1 ATP        -0.0393
     35 H4'         3.8040   -0.1399   -0.4044 H         1 ATP        -0.0393
     36 H3'         1.6768   -1.7637    0.2732 H         1 ATP        -0.0393
     37 HO3'        2.2231   -1.2979    2.3952 H         1 ATP         0.2010
     38 H2'         0.0002   -0.0084   -0.0014 H         1 ATP        -0.0393
     39 HO2'       -0.1554   -0.9852    2.0577 H         1 ATP         0.2010
     40 H1'         1.7718    1.9211    1.6015 H         1 ATP        -0.0393
     41 H8         -1.7235    1.8833    0.9537 H         1 ATP         0.0000
     42 HN61       -2.5296    5.6672   -1.4072 H         1 ATP         0.2048
     43 HN62       -1.7205    6.8969   -2.3483 H         1 ATP         0.2048
     44 H2          2.7750    5.5878   -2.2190 H         1 ATP        -0.1292
     45 H45         0.6808    6.7046   -2.6128 H         1 ATP         0.2048
@<TRIPOS>BOND
     1    1    2 2
     2    1    3 1
     3    1    4 1
     4    1    8 1
     5    5    6 2
     6    5    7 1
     7    5    8 1
     8    5   12 1
     9    7   32 1
    10    9   10 2
    11    9   11 1
    12    9   12 1
    13    9   13 1
    14   13   14 1
    15   14   15 1
    16   14   33 1
    17   14   34 1
    18   15   16 1
    19   15   17 1
    20   15   35 1
    21   16   21 1
    22   17   18 1
    23   17   19 1
    24   17   36 1
    25   18   37 1
    26   19   20 1
    27   19   21 1
    28   19   38 1
    29   20   39 1
    30   21   22 1
    31   21   40 1
    32   22   23 ar
    33   22   31 ar
    34   23   24 ar
    35   23   41 1
    36   24   25 ar
    37   25   26 ar
    38   25   31 ar
    39   26   27 1
    40   26   28 ar
    41   27   42 1
    42   27   43 1
    43   28   29 ar
    44   28   45 1
    45   29   30 ar
    46   29   44 1
    47   30   31 ar
@<TRIPOS>SUBSTRUCTURE
     1 ATP         1 GROUP 0 A     ****
@<TRIPOS>MOLECULE
[[[5-(6-amino-1,8-dihydropurine-6,8-diylium-7-id-9-yl)-3,4-dihydroxy-tetrahydrofuran-2-yl]methoxy-oxido-phosphoryl]oxy-hydroxy-phosphoryl] phosphate
   45    47     1     0     0
SMALL
USER_CHARGES

@<TRIPOS>ATOM
      1 PG          1.9277   -3.8353   -5.7431 P.3       1 ATP        -1.1921
      2 O1G         2.6323   -3.8225   -7.0958 O.co2     1 ATP         0.3195
      3 O2G         1.0490   -5.0592   -5.5063 O.co2     1 ATP         0.3195
      4 O3G         2.8237   -3.4707   -4.5640 O.co2     1 ATP         0.3195
      5 PB          1.0928   -1.0086   -6.0754 P.3       1 ATP        -0.9715
      6 O1B         1.7708   -0.6621   -7.3680 O.2       1 ATP         0.2707
      7 O2B        -0.3869   -0.3831   -5.8920 O.3       1 ATP         0.0326
      8 O3B         0.8516   -2.5900   -5.8365 O.3       1 ATP         0.4672
      9 PA          2.3065    0.9470   -4.2302 P.3       1 ATP        -1.1062
     10 O1A         1.0524    1.7363   -3.9238 O.co2     1 ATP         0.3195
     11 O2A         3.3598    1.4862   -5.1733 O.co2     1 ATP         0.3195
     12 O3A         1.8688   -0.5407   -4.7381 O.3       1 ATP         0.4672
     13 O5'         3.0213    0.5153   -2.8245 O.3       1 ATP         0.1618
     14 C5'         2.2816   -0.2918   -1.9206 C.3       1 ATP         0.1504
     15 C4'         2.7248    0.0226   -0.4980 C.3       1 ATP         0.1111
     16 O4'         2.4697    1.4219   -0.2462 O.3       1 ATP        -0.1436
     17 C3'         1.9404   -0.7419    0.5596 C.3       1 ATP         0.1111
     18 O3'         2.7418   -0.8086    1.7389 O.3       1 ATP        -0.2728
     19 C2'         0.7477    0.1630    0.7858 C.3       1 ATP         0.1111
     20 O2'         0.1373   -0.0577    2.0407 O.3       1 ATP        -0.2728
     21 C1'         1.3733    1.5427    0.6747 C.3       1 ATP         0.2693
     22 N9          0.4520    2.5240    0.1767 N.pl3     1 ATP        -0.3222
     23 C8         -1.0660    2.5608    0.3999 C.ar      1 ATP         0.1640
     24 N7         -1.5852    3.6333   -0.2221 N.2       1 ATP        -0.1640
     25 C5         -0.4682    4.1996   -0.7771 C.ar      1 ATP         0.0820
     26 C6         -0.5216    5.4476   -1.5899 C.ar      1 ATP         0.1640
     27 N6         -1.6813    6.0510   -1.7982 N.pl3     1 ATP        -0.4916
     28 N1          0.6621    5.8575   -2.0523 N.pl3     1 ATP        -0.4390
     29 C2          1.8795    5.1301   -1.7717 C.ar      1 ATP         0.5691
     30 N3          1.9458    4.0434   -1.0670 N.ar      1 ATP        -0.4283
     31 C4          0.7388    3.6199   -0.5917 C.ar      1 ATP         0.2226
     32 HOB2       -0.4944    0.5918   -5.9069 H         1 ATP         0.2010
     33 H5'1        1.2163   -0.0770   -2.0471 H         1 ATP        -0.0393
     34 H5'2        2.4655   -1.3443   -2.1563 H         1 ATP        -0.0393
     35 H4'         3.8040   -0.1399   -0.4044 H         1 ATP        -0.0393
     36 H3'         1.6768   -1.7637    0.2732 H         1 ATP        -0.0393
     37 HO3'        2.2231   -1.2979    2.3952 H         1 ATP         0.2010
     38 H2'         0.0002   -0.0084   -0.0014 H         1 ATP        -0.0393
     39 HO2'       -0.1554   -0.9852    2.0577 H         1 ATP         0.2010
     40 H1'         1.7718    1.9211    1.6015 H         1 ATP        -0.0393
     41 H8         -1.7235    1.8833    0.9537 H         1 ATP         0.0000
     42 HN61       -2.5296    5.6672   -1.4072 H         1 ATP         0.2048
     43 HN62       -1.7205    6.8969   -2.3483 H         1 ATP         0.2048
     44 H2          2.7750    5.5878   -2.2190 H         1 ATP        -0.1292
     45 H45         0.6808    6.7046   -2.6128 H         1 ATP         0.2048
@<TRIPOS>BOND
     1    1    2 2
     2    1    3 1
     3    1    4 1
     4    1    8 1
     5    5    6 2
     6    5    7 1
     7    5    8 1
     8    5   12 1
     9    7   32 1
    10    9   10 2
    11    9   11 1
    12    9   12 1
    13    9   13 1
    14   13   14 1
    15   14   15 1
    16   14   33 1
    17   14   34 1
    18   15   16 1
    19   15   17 1
    20   15   35 1
    21   16   21 1
    22   17   18 1
    23   17   19 1
    24   17   36 1
    25   18   37 1
    26   19   20 1
    27   19   21 1
    28   19   38 1
    29   20   39 1
    30   21   22 1
    31   21   40 1
    32   22   23 ar
    33   22   31 ar
    34   23   24 ar
    35   23   41 1
    36   24   25 ar
    37   25   26 ar
    38   25   31 ar
    39   26   27 1
    40   26   28 ar
    41   27   42 1
    42   27   43 1
    43   28   29 ar
    44   28   45 1
    45   29   30 ar
    46   29   44 1
    47   30   31 ar
@<TRIPOS>SUBSTRUCTURE
     1 ATP         1 GROUP 0 A     ****
@<TRIPOS>MOLECULE
[[[5-(6-amino-1,8-dihydropurine-6,8-diylium-7-id-9-yl)-3,4-dihydroxy-tetrahydrofuran-2-yl]methoxy-oxido-phosphoryl]oxy-hydroxy-phosphoryl] phosphate
   45    47     1     0     0
SMALL
USER_CHARGES

@<TRIPOS>ATOM
      1 PG         -2.4612   -4.8013   -0.9348 P.3       1 ATP        -1.1921
      2 O1G        -3.4676   -4.1777   -1.8964 O.co2     1 ATP         0.3195
      3 O2G        -2.6729   -4.4205    0.5268 O.co2     1 ATP         0.3195
      4 O3G        -2.2105   -6.2881   -1.1641 O.co2     1 ATP         0.3195
      5 PB         -0.2050   -4.0722   -2.7169 P.3       1 ATP        -0.9715
      6 O1B         0.2157   -5.4249   -3.2107 O.2       1 ATP         0.2707
      7 O2B        -1.1818   -3.2556   -3.7134 O.3       1 ATP         0.0326
      8 O3B        -1.0302   -4.0824   -1.3258 O.3       1 ATP         0.4672
      9 PA          2.1381   -2.4286   -3.4316 P.3       1 ATP        -1.1062
     10 O1A         1.4576   -1.5471   -4.4561 O.co2     1 ATP         0.3195
     11 O2A         3.0535   -3.5569   -3.8544 O.co2     1 ATP         0.3195
     12 O3A         0.9983   -3.0328   -2.4322 O.3       1 ATP         0.4672
     13 O5'         2.9216   -1.4836   -2.3516 O.3       1 ATP         0.1618
     14 C5'         2.2816   -0.2918   -1.9206 C.3       1 ATP         0.1504
     15 C4'         2.7248    0.0226   -0.4980 C.3       1 ATP         0.1111
     16 O4'         2.4697    1.4219   -0.2462 O.3       1 ATP        -0.1436
     17 C3'         1.9404   -0.7419    0.5596 C.3       1 ATP         0.1111
     18 O3'         2.7418   -0.8086    1.7389 O.3       1 ATP        -0.2728
     19 C2'         0.7477    0.1630    0.7858 C.3       1 ATP         0.1111
     20 O2'         0.1373   -0.0577    2.0407 O.3       1 ATP        -0.2728
     21 C1'         1.3733    1.5427    0.6747 C.3       1 ATP         0.2693
     22 N9          0.4520    2.5240    0.1767 N.pl3     1 ATP        -0.3222
     23 C8         -0.3054    2.4845   -1.1576 C.ar      1 ATP         0.1640
     24 N7         -1.0755    3.5806   -1.2691 N.2       1 ATP        -0.1640
     25 C5         -0.8043    4.2306   -0.0942 C.ar      1 ATP         0.0820
     26 C6         -1.4324    5.5335    0.2646 C.ar      1 ATP         0.1640
     27 N6         -2.2885    6.1054   -0.5675 N.pl3     1 ATP        -0.4916
     28 N1         -1.0537    6.0229    1.4478 N.pl3     1 ATP        -0.4390
     29 C2         -0.1096    5.3242    2.2908 C.ar      1 ATP         0.5691
     30 N3          0.4468    4.1904    1.9960 N.ar      1 ATP        -0.4283
     31 C4          0.0631    3.6855    0.7877 C.ar      1 ATP         0.2226
     32 HOB2       -0.8637   -3.0374   -4.6153 H         1 ATP         0.2010
     33 H5'1        2.5589    0.5217   -2.5976 H         1 ATP        -0.0393
     34 H5'2        1.1982   -0.4388   -1.9617 H         1 ATP        -0.0393
     35 H4'         3.8040   -0.1399   -0.4044 H         1 ATP        -0.0393
     36 H3'         1.6768   -1.7637    0.2732 H         1 ATP        -0.0393
     37 HO3'        2.2231   -1.2979    2.3952 H         1 ATP         0.2010
     38 H2'         0.0002   -0.0084   -0.0014 H         1 ATP        -0.0393
     39 HO2'       -0.1554   -0.9852    2.0577 H         1 ATP         0.2010
     40 H1'         1.7718    1.9211    1.6015 H         1 ATP        -0.0393
     41 H8         -0.2991    1.7413   -1.9611 H         1 ATP         0.0000
     42 HN61       -2.5167    5.6603   -1.4447 H         1 ATP         0.2048
     43 HN62       -2.7159    6.9882   -0.3270 H         1 ATP         0.2048
     44 H2          0.1059    5.8491    3.2340 H         1 ATP        -0.1292
     45 H45        -1.4532    6.9099    1.7401 H         1 ATP         0.2048
@<TRIPOS>BOND
     1    1    2 2
     2    1    3 1
     3    1    4 1
     4    1    8 1
     5    5    6 2
     6    5    7 1
     7    5    8 1
     8    5   12 1
     9    7   32 1
    10    9   10 2
    11    9   11 1
    12    9   12 1
    13    9   13 1
    14   13   14 1
    15   14   15 1
    16   14   33 1
    17   14   34 1
    18   15   16 1
    19   15   17 1
    20   15   35 1
    21   16   21 1
    22   17   18 1
    23   17   19 1
    24   17   36 1
    25   18   37 1
    26   19   20 1
    27   19   21 1
    28   19   38 1
    29   20   39 1
    30   21   22 1
    31   21   40 1
    32   22   23 ar
    33   22   31 ar
    34   23   24 ar
    35   23   41 1
    36   24   25 ar
    37   25   26 ar
    38   25   31 ar
    39   26   27 1
    40   26   28 ar
    41   27   42 1
    42   27   43 1
    43   28   29 ar
    44   28   45 1
    45   29   30 ar
    46   29   44 1
    47   30   31 ar
@<TRIPOS>SUBSTRUCTURE
     1 ATP         1 GROUP 0 A     ****
@<TRIPOS>MOLECULE
[[[5-(6-amino-1,8-dihydropurine-6,8-diylium-7-id-9-yl)-3,4-dihydroxy-tetrahydrofuran-2-yl]methoxy-oxido-phosphoryl]oxy-hydroxy-phosphoryl] phosphate
   45    47     1     0     0
SMALL
USER_CHARGES

@<TRIPOS>ATOM
      1 PG          5.6597   -3.1224   -1.3674 P.3       1 ATP        -1.1921
      2 O1G         5.3008   -4.6021   -1.4569 O.co2     1 ATP         0.3195
      3 O2G         5.2787   -2.4646   -0.0451 O.co2     1 ATP         0.3195
      4 O3G         7.0665   -2.7862   -1.8511 O.co2     1 ATP         0.3195
      5 PB          4.5337   -2.6169   -4.0645 P.3       1 ATP        -0.9715
      6 O1B         5.7832   -2.3373   -4.8463 O.2       1 ATP         0.2707
      7 O2B         3.9814   -4.1321   -4.1799 O.3       1 ATP         0.0326
      8 O3B         4.6676   -2.3990   -2.4673 O.3       1 ATP         0.4672
      9 PA          3.0383   -0.0994   -4.4226 P.3       1 ATP        -1.1062
     10 O1A         1.5898    0.1994   -4.7425 O.co2     1 ATP         0.3195
     11 O2A         4.1619    0.5520   -5.1990 O.co2     1 ATP         0.3195
     12 O3A         3.2521   -1.7167   -4.4602 O.3       1 ATP         0.4672
     13 O5'         3.2903    0.1346   -2.8241 O.3       1 ATP         0.1618
     14 C5'         2.2816   -0.2918   -1.9206 C.3       1 ATP         0.1504
     15 C4'         2.7248    0.0226   -0.4980 C.3       1 ATP         0.1111
     16 O4'         2.4697    1.4219   -0.2462 O.3       1 ATP        -0.1436
     17 C3'         1.9404   -0.7419    0.5596 C.3       1 ATP         0.1111
     18 O3'         2.7418   -0.8086    1.7389 O.3       1 ATP        -0.2728
     19 C2'         0.7477    0.1630    0.7858 C.3       1 ATP         0.1111
     20 O2'         0.1373   -0.0577    2.0407 O.3       1 ATP        -0.2728
     21 C1'         1.3733    1.5427    0.6747 C.3       1 ATP         0.2693
     22 N9          0.4520    2.5240    0.1767 N.pl3     1 ATP        -0.3222
     23 C8         -1.0660    2.5608    0.3999 C.ar      1 ATP         0.1640
     24 N7         -1.5852    3.6333   -0.2221 N.2       1 ATP        -0.1640
     25 C5         -0.4682    4.1996   -0.7771 C.ar      1 ATP         0.0820
     26 C6         -0.5216    5.4476   -1.5899 C.ar      1 ATP         0.1640
     27 N6         -1.6813    6.0510   -1.7982 N.pl3     1 ATP        -0.4916
     28 N1          0.6621    5.8575   -2.0523 N.pl3     1 ATP        -0.4390
     29 C2          1.8795    5.1301   -1.7717 C.ar      1 ATP         0.5691
     30 N3          1.9458    4.0434   -1.0670 N.ar      1 ATP        -0.4283
     31 C4          0.7388    3.6199   -0.5917 C.ar      1 ATP         0.2226
     32 HOB2        4.5573   -4.8700   -3.8868 H         1 ATP         0.2010
     33 H5'1        1.3514    0.2330   -2.1577 H         1 ATP        -0.0393
     34 H5'2        2.1280   -1.3678   -2.0460 H         1 ATP        -0.0393
     35 H4'         3.8040   -0.1399   -0.4044 H         1 ATP        -0.0393
     36 H3'         1.6768   -1.7637    0.2732 H         1 ATP        -0.0393
     37 HO3'        2.2231   -1.2979    2.3952 H         1 ATP         0.2010
     38 H2'         0.0002   -0.0084   -0.0014 H         1 ATP        -0.0393
     39 HO2'       -0.1554   -0.9852    2.0577 H         1 ATP         0.2010
     40 H1'         1.7718    1.9211    1.6015 H         1 ATP        -0.0393
     41 H8         -1.7235    1.8833    0.9537 H         1 ATP         0.0000
     42 HN61       -2.5296    5.6672   -1.4072 H         1 ATP         0.2048
     43 HN62       -1.7205    6.8969   -2.3483 H         1 ATP         0.2048
     44 H2          2.7750    5.5878   -2.2190 H         1 ATP        -0.1292
     45 H45         0.6808    6.7046   -2.6128 H         1 ATP         0.2048
@<TRIPOS>BOND
     1    1    2 2
     2    1    3 1
     3    1    4 1
     4    1    8 1
     5    5    6 2
     6    5    7 1
     7    5    8 1
     8    5   12 1
     9    7   32 1
    10    9   10 2
    11    9   11 1
    12    9   12 1
    13    9   13 1
    14   13   14 1
    15   14   15 1
    16   14   33 1
    17   14   34 1
    18   15   16 1
    19   15   17 1
    20   15   35 1
    21   16   21 1
    22   17   18 1
    23   17   19 1
    24   17   36 1
    25   18   37 1
    26   19   20 1
    27   19   21 1
    28   19   38 1
    29   20   39 1
    30   21   22 1
    31   21   40 1
    32   22   23 ar
    33   22   31 ar
    34   23   24 ar
    35   23   41 1
    36   24   25 ar
    37   25   26 ar
    38   25   31 ar
    39   26   27 1
    40   26   28 ar
    41   27   42 1
    42   27   43 1
    43   28   29 ar
    44   28   45 1
    45   29   30 ar
    46   29   44 1
    47   30   31 ar
@<TRIPOS>SUBSTRUCTURE
     1 ATP         1 GROUP 0 A     ****
@<TRIPOS>MOLECULE
[[[5-(6-amino-1,8-dihydropurine-6,8-diylium-7-id-9-yl)-3,4-dihydroxy-tetrahydrofuran-2-yl]methoxy-oxido-phosphoryl]oxy-hydroxy-phosphoryl] phosphate
   45    47     1     0     0
SMALL
USER_CHARGES

@<TRIPOS>ATOM
      1 PG         -1.0418   -1.2687   -5.9573 P.3       1 ATP        -1.1921
      2 O1G        -1.0786   -2.5394   -6.8002 O.co2     1 ATP         0.3195
      3 O2G        -2.1668   -0.2842   -6.2593 O.co2     1 ATP         0.3195
      4 O3G        -0.8014   -1.5074   -4.4703 O.co2     1 ATP         0.3195
      5 PB          1.8655   -0.9461   -6.4491 P.3       1 ATP        -0.9715
      6 O1B         2.0995   -2.3855   -6.8014 O.2       1 ATP         0.2707
      7 O2B         2.5749    0.1215   -7.4346 O.3       1 ATP         0.0326
      8 O3B         0.3153   -0.4846   -6.4680 O.3       1 ATP         0.4672
      9 PA          2.3065    0.9470   -4.2302 P.3       1 ATP        -1.1062
     10 O1A         0.8552    1.2820   -3.9631 O.co2     1 ATP         0.3195
     11 O2A         3.2099    1.9122   -4.9662 O.co2     1 ATP         0.3195
     12 O3A         2.3723   -0.5000   -4.9816 O.3       1 ATP         0.4672
     13 O5'         3.0213    0.5153   -2.8245 O.3       1 ATP         0.1618
     14 C5'         2.2816   -0.2918   -1.9206 C.3       1 ATP         0.1504
     15 C4'         2.7248    0.0226   -0.4980 C.3       1 ATP         0.1111
     16 O4'         2.4697    1.4219   -0.2462 O.3       1 ATP        -0.1436
     17 C3'         1.9404   -0.7419    0.5596 C.3       1 ATP         0.1111
     18 O3'         2.7418   -0.8086    1.7389 O.3       1 ATP        -0.2728
     19 C2'         0.7477    0.1630    0.7858 C.3       1 ATP         0.1111
     20 O2'         0.1373   -0.0577    2.0407 O.3       1 ATP        -0.2728
     21 C1'         1.3733    1.5427    0.6747 C.3       1 ATP         0.2693
     22 N9          0.4520    2.5240    0.1767 N.pl3     1 ATP        -0.3222
     23 C8          0.5793    3.3338   -1.1209 C.ar      1 ATP         0.1640
     24 N7         -0.4807    4.1508   -1.2458 N.2       1 ATP        -0.1640
     25 C5         -1.1921    3.8572   -0.1126 C.ar      1 ATP         0.0820
     26 C6         -2.4855    4.5203    0.2163 C.ar      1 ATP         0.1640
     27 N6         -2.9873    5.4319   -0.6020 N.pl3     1 ATP        -0.4916
     28 N1         -3.0414    4.1119    1.3596 N.pl3     1 ATP        -0.4390
     29 C2         -2.4169    3.1071    2.1904 C.ar      1 ATP         0.5691
     30 N3         -1.2928    2.5191    1.9210 N.ar      1 ATP        -0.4283
     31 C4         -0.7202    2.9326    0.7534 C.ar      1 ATP         0.2226
     32 HOB2        3.5514    0.1054   -7.5265 H         1 ATP         0.2010
     33 H5'1        1.2163   -0.0770   -2.0471 H         1 ATP        -0.0393
     34 H5'2        2.4655   -1.3443   -2.1563 H         1 ATP        -0.0393
     35 H4'         3.8040   -0.1399   -0.4044 H         1 ATP        -0.0393
     36 H3'         1.6768   -1.7637    0.2732 H         1 ATP        -0.0393
     37 HO3'        2.2231   -1.2979    2.3952 H         1 ATP         0.2010
     38 H2'         0.0002   -0.0084   -0.0014 H         1 ATP        -0.0393
     39 HO2'       -0.1554   -0.9852    2.0577 H         1 ATP         0.2010
     40 H1'         1.7718    1.9211    1.6015 H         1 ATP        -0.0393
     41 H8          1.3565    3.3309   -1.8916 H         1 ATP         0.0000
     42 HN61       -2.4952    5.6785   -1.4487 H         1 ATP         0.2048
     43 HN62       -3.8637    5.8828   -0.3819 H         1 ATP         0.2048
     44 H2         -2.9911    2.8734    3.1000 H         1 ATP        -0.1292
     45 H45        -3.9253    4.5332    1.6302 H         1 ATP         0.2048
@<TRIPOS>BOND
     1    1    2 2
     2    1    3 1
     3    1    4 1
     4    1    8 1
     5    5    6 2
     6    5    7 1
     7    5    8 1
     8    5   12 1
     9    7   32 1
    10    9   10 2
    11    9   11 1
    12    9   12 1
    13    9   13 1
    14   13   14 1
    15   14   15 1
    16   14   33 1
    17   14   34 1
    18   15   16 1
    19   15   17 1
    20   15   35 1
    21   16   21 1
    22   17   18 1
    23   17   19 1
    24   17   36 1
    25   18   37 1
    26   19   20 1
    27   19   21 1
    28   19   38 1
    29   20   39 1
    30   21   22 1
    31   21   40 1
    32   22   23 ar
    33   22   31 ar
    34   23   24 ar
    35   23   41 1
    36   24   25 ar
    37   25   26 ar
    38   25   31 ar
    39   26   27 1
    40   26   28 ar
    41   27   42 1
    42   27   43 1
    43   28   29 ar
    44   28   45 1
    45   29   30 ar
    46   29   44 1
    47   30   31 ar
@<TRIPOS>SUBSTRUCTURE
     1 ATP         1 GROUP 0 A     ****
@<TRIPOS>MOLECULE
[[[5-(6-amino-1,8-dihydropurine-6,8-diylium-7-id-9-yl)-3,4-dihydroxy-tetrahydrofuran-2-yl]methoxy-oxido-phosphoryl]oxy-hydroxy-phosphoryl] phosphate
   45    47     1     0     0
SMALL
USER_CHARGES

@<TRIPOS>ATOM
      1 PG         -3.1936   -1.8679   -4.8311 P.3       1 ATP        -1.1921
      2 O1G        -3.1825   -0.8480   -5.9651 O.co2     1 ATP         0.3195
      3 O2G        -3.9807   -1.4281   -3.6010 O.co2     1 ATP         0.3195
      4 O3G        -3.4757   -3.2993   -5.2756 O.co2     1 ATP         0.3195
      5 PB         -0.2687   -2.2875   -5.0896 P.3       1 ATP        -0.9715
      6 O1B        -0.2294   -3.6810   -5.6440 O.2       1 ATP         0.2707
      7 O2B        -0.1401   -1.1110   -6.1911 O.3       1 ATP         0.0326
      8 O3B        -1.6314   -1.9053   -4.3063 O.3       1 ATP         0.4672
      9 PA          1.2481   -2.6085   -2.5799 P.3       1 ATP        -1.1062
     10 O1A         1.7344   -4.0210   -2.8206 O.co2     1 ATP         0.3195
     11 O2A         0.1125   -2.3243   -1.6211 O.co2     1 ATP         0.3195
     12 O3A         0.8903   -1.9331   -4.0217 O.3       1 ATP         0.4672
     13 O5'         2.5245   -1.6648   -2.1878 O.3       1 ATP         0.1618
     14 C5'         2.2816   -0.2918   -1.9206 C.3       1 ATP         0.1504
     15 C4'         2.7248    0.0226   -0.4980 C.3       1 ATP         0.1111
     16 O4'         2.4697    1.4219   -0.2462 O.3       1 ATP        -0.1436
     17 C3'         1.9404   -0.7419    0.5596 C.3       1 ATP         0.1111
     18 O3'         2.7418   -0.8086    1.7389 O.3       1 ATP        -0.2728
     19 C2'         0.7477    0.1630    0.7858 C.3       1 ATP         0.1111
     20 O2'         0.1373   -0.0577    2.0407 O.3       1 ATP        -0.2728
     21 C1'         1.3733    1.5427    0.6747 C.3       1 ATP         0.2693
     22 N9          0.4520    2.5240    0.1767 N.pl3     1 ATP        -0.3222
     23 C8          0.1798    2.8712   -1.2933 C.ar      1 ATP         0.1640
     24 N7         -0.7494    3.8400   -1.3610 N.2       1 ATP        -0.1640
     25 C5         -1.0173    4.0603   -0.0358 C.ar      1 ATP         0.0820
     26 C6         -2.0105    5.0717    0.4241 C.ar      1 ATP         0.1640
     27 N6         -2.6723    5.7982   -0.4628 N.pl3     1 ATP        -0.4916
     28 N1         -2.1445    5.1522    1.7502 N.pl3     1 ATP        -0.4390
     29 C2         -1.3755    4.3143    2.6426 C.ar      1 ATP         0.5691
     30 N3         -0.5075    3.4292    2.2616 N.ar      1 ATP        -0.4283
     31 C4         -0.3667    3.3425    0.9070 C.ar      1 ATP         0.2226
     32 HOB2       -0.8139   -1.0512   -6.9015 H         1 ATP         0.2010
     33 H5'1        2.8432    0.3119   -2.6398 H         1 ATP        -0.0393
     34 H5'2        1.2128   -0.0927   -2.0428 H         1 ATP        -0.0393
     35 H4'         3.8040   -0.1399   -0.4044 H         1 ATP        -0.0393
     36 H3'         1.6768   -1.7637    0.2732 H         1 ATP        -0.0393
     37 HO3'        2.2231   -1.2979    2.3952 H         1 ATP         0.2010
     38 H2'         0.0002   -0.0084   -0.0014 H         1 ATP        -0.0393
     39 HO2'       -0.6132    0.5577    2.1063 H         1 ATP         0.2010
     40 H1'         1.7718    1.9211    1.6015 H         1 ATP        -0.0393
     41 H8          0.6089    2.4651   -2.2147 H         1 ATP         0.0000
     42 HN61       -2.5055    5.6680   -1.4503 H         1 ATP         0.2048
     43 HN62       -3.3462    6.4841   -0.1542 H         1 ATP         0.2048
     44 H2         -1.5932    4.4937    3.7066 H         1 ATP        -0.1292
     45 H45        -2.8098    5.8270    2.1160 H         1 ATP         0.2048
@<TRIPOS>BOND
     1    1    2 2
     2    1    3 1
     3    1    4 1
     4    1    8 1
     5    5    6 2
     6    5    7 1
     7    5    8 1
     8    5   12 1
     9    7   32 1
    10    9   10 2
    11    9   11 1
    12    9   12 1
    13    9   13 1
    14   13   14 1
    15   14   15 1
    16   14   33 1
    17   14   34 1
    18   15   16 1
    19   15   17 1
    20   15   35 1
    21   16   21 1
    22   17   18 1
    23   17   19 1
    24   17   36 1
    25   18   37 1
    26   19   20 1
    27   19   21 1
    28   19   38 1
    29   20   39 1
    30   21   22 1
    31   21   40 1
    32   22   23 ar
    33   22   31 ar
    34   23   24 ar
    35   23   41 1
    36   24   25 ar
    37   25   26 ar
    38   25   31 ar
    39   26   27 1
    40   26   28 ar
    41   27   42 1
    42   27   43 1
    43   28   29 ar
    44   28   45 1
    45   29   30 ar
    46   29   44 1
    47   30   31 ar
@<TRIPOS>SUBSTRUCTURE
     1 ATP         1 GROUP 0 A     ****
@<TRIPOS>MOLECULE
[[[5-(6-amino-1,8-dihydropurine-6,8-diylium-7-id-9-yl)-3,4-dihydroxy-tetrahydrofuran-2-yl]methoxy-oxido-phosphoryl]oxy-hydroxy-phosphoryl] phosphate
   45    47     1     0     0
SMALL
USER_CHARGES

@<TRIPOS>ATOM
      1 PG          5.7206   -3.6646   -4.7952 P.3       1 ATP        -1.1921
      2 O1G         6.6941   -3.2627   -5.8984 O.co2     1 ATP         0.3195
      3 O2G         5.6980   -5.1597   -4.4942 O.co2     1 ATP         0.3195
      4 O3G         5.7737   -2.7775   -3.5557 O.co2     1 ATP         0.3195
      5 PB          3.5769   -1.9959   -5.9860 P.3       1 ATP        -0.9715
      6 O1B         4.3171   -1.3484   -7.1189 O.2       1 ATP         0.2707
      7 O2B         2.0556   -2.4275   -6.3231 O.3       1 ATP         0.0326
      8 O3B         4.2332   -3.3707   -5.4423 O.3       1 ATP         0.4672
      9 PA          2.7180    0.3539   -4.4230 P.3       1 ATP        -1.1062
     10 O1A         1.2273    0.1956   -4.6287 O.co2     1 ATP         0.3195
     11 O2A         3.5063    1.3990   -5.1820 O.co2     1 ATP         0.3195
     12 O3A         3.4276   -1.0977   -4.6517 O.3       1 ATP         0.4672
     13 O5'         3.0213    0.5153   -2.8245 O.3       1 ATP         0.1618
     14 C5'         2.2816   -0.2918   -1.9206 C.3       1 ATP         0.1504
     15 C4'         2.7248    0.0226   -0.4980 C.3       1 ATP         0.1111
     16 O4'         2.4697    1.4219   -0.2462 O.3       1 ATP        -0.1436
     17 C3'         1.9404   -0.7419    0.5596 C.3       1 ATP         0.1111
     18 O3'         2.7418   -0.8086    1.7389 O.3       1 ATP        -0.2728
     19 C2'         0.7477    0.1630    0.7858 C.3       1 ATP         0.1111
     20 O2'         0.1373   -0.0577    2.0407 O.3       1 ATP        -0.2728
     21 C1'         1.3733    1.5427    0.6747 C.3       1 ATP         0.2693
     22 N9          0.4520    2.5240    0.1767 N.pl3     1 ATP        -0.3222
     23 C8         -1.0660    2.5608    0.3999 C.ar      1 ATP         0.1640
     24 N7         -1.5852    3.6333   -0.2221 N.2       1 ATP        -0.1640
     25 C5         -0.4682    4.1996   -0.7771 C.ar      1 ATP         0.0820
     26 C6         -0.5216    5.4476   -1.5899 C.ar      1 ATP         0.1640
     27 N6         -1.6813    6.0510   -1.7982 N.pl3     1 ATP        -0.4916
     28 N1          0.6621    5.8575   -2.0523 N.pl3     1 ATP        -0.4390
     29 C2          1.8795    5.1301   -1.7717 C.ar      1 ATP         0.5691
     30 N3          1.9458    4.0434   -1.0670 N.ar      1 ATP        -0.4283
     31 C4          0.7388    3.6199   -0.5917 C.ar      1 ATP         0.2226
     32 HOB2        1.4162   -1.7355   -6.5961 H         1 ATP         0.2010
     33 H5'1        1.2163   -0.0770   -2.0471 H         1 ATP        -0.0393
     34 H5'2        2.4655   -1.3443   -2.1563 H         1 ATP        -0.0393
     35 H4'         3.8040   -0.1399   -0.4044 H         1 ATP        -0.0393
     36 H3'         1.6768   -1.7637    0.2732 H         1 ATP        -0.0393
     37 HO3'        2.2231   -1.2979    2.3952 H         1 ATP         0.2010
     38 H2'         0.0002   -0.0084   -0.0014 H         1 ATP        -0.0393
     39 HO2'       -0.1554   -0.9852    2.0577 H         1 ATP         0.2010
     40 H1'         1.7718    1.9211    1.6015 H         1 ATP        -0.0393
     41 H8         -1.7235    1.8833    0.9537 H         1 ATP         0.0000
     42 HN61       -2.5296    5.6672   -1.4072 H         1 ATP         0.2048
     43 HN62       -1.7205    6.8969   -2.3483 H         1 ATP         0.2048
     44 H2          2.7750    5.5878   -2.2190 H         1 ATP        -0.1292
     45 H45         0.6808    6.7046   -2.6128 H         1 ATP         0.2048
@<TRIPOS>BOND
     1    1    2 2
     2    1    3 1
     3    1    4 1
     4    1    8 1
     5    5    6 2
     6    5    7 1
     7    5    8 1
     8    5   12 1
     9    7   32 1
    10    9   10 2
    11    9   11 1
    12    9   12 1
    13    9   13 1
    14   13   14 1
    15   14   15 1
    16   14   33 1
    17   14   34 1
    18   15   16 1
    19   15   17 1
    20   15   35 1
    21   16   21 1
    22   17   18 1
    23   17   19 1
    24   17   36 1
    25   18   37 1
    26   19   20 1
    27   19   21 1
    28   19   38 1
    29   20   39 1
    30   21   22 1
    31   21   40 1
    32   22   23 ar
    33   22   31 ar
    34   23   24 ar
    35   23   41 1
    36   24   25 ar
    37   25   26 ar
    38   25   31 ar
    39   26   27 1
    40   26   28 ar
    41   27   42 1
    42   27   43 1
    43   28   29 ar
    44   28   45 1
    45   29   30 ar
    46   29   44 1
    47   30   31 ar
@<TRIPOS>SUBSTRUCTURE
     1 ATP         1 GROUP 0 A     ****
@<TRIPOS>MOLECULE
[[[5-(6-amino-1,8-dihydropurine-6,8-diylium-7-id-9-yl)-3,4-dihydroxy-tetrahydrofuran-2-yl]methoxy-oxido-phosphoryl]oxy-hydroxy-phosphoryl] phosphate
   45    47     1     0     0
SMALL
USER_CHARGES

@<TRIPOS>ATOM
      1 PG          6.2832   -4.6628   -4.3321 P.3       1 ATP        -1.1921
      2 O1G         5.2697   -5.6756   -4.8549 O.co2     1 ATP         0.3195
      3 O2G         6.8056   -4.9655   -2.9315 O.co2     1 ATP         0.3195
      4 O3G         7.3669   -4.2824   -5.3356 O.co2     1 ATP         0.3195
      5 PB          4.5764   -2.4010   -5.2092 P.3       1 ATP        -0.9715
      6 O1B         5.3926   -1.8514   -6.3415 O.2       1 ATP         0.2707
      7 O2B         3.3828   -3.3987   -5.6499 O.3       1 ATP         0.0326
      8 O3B         5.4076   -3.2800   -4.1355 O.3       1 ATP         0.4672
      9 PA          4.4330   -0.0741   -3.4017 P.3       1 ATP        -1.1062
     10 O1A         5.0460    0.9437   -4.3388 O.co2     1 ATP         0.3195
     11 O2A         5.2274   -0.6609   -2.2554 O.co2     1 ATP         0.3195
     12 O3A         3.8289   -1.2993   -4.2944 O.3       1 ATP         0.4672
     13 O5'         3.0213    0.5153   -2.8245 O.3       1 ATP         0.1618
     14 C5'         2.2816   -0.2918   -1.9206 C.3       1 ATP         0.1504
     15 C4'         2.7248    0.0226   -0.4980 C.3       1 ATP         0.1111
     16 O4'         2.4697    1.4219   -0.2462 O.3       1 ATP        -0.1436
     17 C3'         1.9404   -0.7419    0.5596 C.3       1 ATP         0.1111
     18 O3'         2.7418   -0.8086    1.7389 O.3       1 ATP        -0.2728
     19 C2'         0.7477    0.1630    0.7858 C.3       1 ATP         0.1111
     20 O2'         0.1373   -0.0577    2.0407 O.3       1 ATP        -0.2728
     21 C1'         1.3733    1.5427    0.6747 C.3       1 ATP         0.2693
     22 N9          0.4520    2.5240    0.1767 N.pl3     1 ATP        -0.3222
     23 C8          0.1798    2.8712   -1.2933 C.ar      1 ATP         0.1640
     24 N7         -0.7494    3.8400   -1.3610 N.2       1 ATP        -0.1640
     25 C5         -1.0173    4.0603   -0.0358 C.ar      1 ATP         0.0820
     26 C6         -2.0105    5.0717    0.4241 C.ar      1 ATP         0.1640
     27 N6         -2.6723    5.7982   -0.4628 N.pl3     1 ATP        -0.4916
     28 N1         -2.1445    5.1522    1.7502 N.pl3     1 ATP        -0.4390
     29 C2         -1.3755    4.3143    2.6426 C.ar      1 ATP         0.5691
     30 N3         -0.5075    3.4292    2.2616 N.ar      1 ATP        -0.4283
     31 C4         -0.3667    3.3425    0.9070 C.ar      1 ATP         0.2226
     32 HOB2        3.6072   -4.2197   -6.1375 H         1 ATP         0.2010
     33 H5'1        1.2163   -0.0770   -2.0471 H         1 ATP        -0.0393
     34 H5'2        2.4655   -1.3443   -2.1563 H         1 ATP        -0.0393
     35 H4'         3.8040   -0.1399   -0.4044 H         1 ATP        -0.0393
     36 H3'         1.6768   -1.7637    0.2732 H         1 ATP        -0.0393
     37 HO3'        2.2231   -1.2979    2.3952 H         1 ATP         0.2010
     38 H2'         0.0002   -0.0084   -0.0014 H         1 ATP        -0.0393
     39 HO2'       -0.6132    0.5577    2.1063 H         1 ATP         0.2010
     40 H1'         1.7718    1.9211    1.6015 H         1 ATP        -0.0393
     41 H8          0.6089    2.4651   -2.2147 H         1 ATP         0.0000
     42 HN61       -2.5055    5.6680   -1.4503 H         1 ATP         0.2048
     43 HN62       -3.3462    6.4841   -0.1542 H         1 ATP         0.2048
     44 H2         -1.5932    4.4937    3.7066 H         1 ATP        -0.1292
     45 H45        -2.8098    5.8270    2.1160 H         1 ATP         0.2048
@<TRIPOS>BOND
     1    1    2 2
     2    1    3 1
     3    1    4 1
     4    1    8 1
     5    5    6 2
     6    5    7 1
     7    5    8 1
     8    5   12 1
     9    7   32 1
    10    9   10 2
    11    9   11 1
    12    9   12 1
    13    9   13 1
    14   13   14 1
    15   14   15 1
    16   14   33 1
    17   14   34 1
    18   15   16 1
    19   15   17 1
    20   15   35 1
    21   16   21 1
    22   17   18 1
    23   17   19 1
    24   17   36 1
    25   18   37 1
    26   19   20 1
    27   19   21 1
    28   19   38 1
    29   20   39 1
    30   21   22 1
    31   21   40 1
    32   22   23 ar
    33   22   31 ar
    34   23   24 ar
    35   23   41 1
    36   24   25 ar
    37   25   26 ar
    38   25   31 ar
    39   26   27 1
    40   26   28 ar
    41   27   42 1
    42   27   43 1
    43   28   29 ar
    44   28   45 1
    45   29   30 ar
    46   29   44 1
    47   30   31 ar
@<TRIPOS>SUBSTRUCTURE
     1 ATP         1 GROUP 0 A     ****
@<TRIPOS>MOLECULE
[[[5-(6-amino-1,8-dihydropurine-6,8-diylium-7-id-9-yl)-3,4-dihydroxy-tetrahydrofuran-2-yl]methoxy-oxido-phosphoryl]oxy-hydroxy-phosphoryl] phosphate
   45    47     1     0     0
SMALL
USER_CHARGES

@<TRIPOS>ATOM
      1 PG          2.5117   -0.9298   -7.4889 P.3       1 ATP        -1.1921
      2 O1G         2.7771   -2.2203   -8.2573 O.co2     1 ATP         0.3195
      3 O2G         2.3192    0.2975   -8.3737 O.co2     1 ATP         0.3195
      4 O3G         1.4821   -1.0636   -6.3717 O.co2     1 ATP         0.3195
      5 PB          4.7320   -1.5126   -5.6104 P.3       1 ATP        -0.9715
      6 O1B         5.1588   -2.8695   -6.0870 O.2       1 ATP         0.2707
      7 O2B         5.9404   -0.5334   -5.1685 O.3       1 ATP         0.0326
      8 O3B         3.9289   -0.6297   -6.7021 O.3       1 ATP         0.4672
      9 PA          3.9759   -2.0799   -2.8160 P.3       1 ATP        -1.1062
     10 O1A         5.0561   -1.2582   -2.1469 O.co2     1 ATP         0.3195
     11 O2A         4.0697   -3.5886   -2.8849 O.co2     1 ATP         0.3195
     12 O3A         3.7515   -1.5051   -4.3266 O.3       1 ATP         0.4672
     13 O5'         2.5245   -1.6648   -2.1878 O.3       1 ATP         0.1618
     14 C5'         2.2816   -0.2918   -1.9206 C.3       1 ATP         0.1504
     15 C4'         2.7248    0.0226   -0.4980 C.3       1 ATP         0.1111
     16 O4'         2.4697    1.4219   -0.2462 O.3       1 ATP        -0.1436
     17 C3'         1.9404   -0.7419    0.5596 C.3       1 ATP         0.1111
     18 O3'         2.7418   -0.8086    1.7389 O.3       1 ATP        -0.2728
     19 C2'         0.7477    0.1630    0.7858 C.3       1 ATP         0.1111
     20 O2'         0.1373   -0.0577    2.0407 O.3       1 ATP        -0.2728
     21 C1'         1.3733    1.5427    0.6747 C.3       1 ATP         0.2693
     22 N9          0.4520    2.5240    0.1767 N.pl3     1 ATP        -0.3222
     23 C8          0.1798    2.8712   -1.2933 C.ar      1 ATP         0.1640
     24 N7         -0.7494    3.8400   -1.3610 N.2       1 ATP        -0.1640
     25 C5         -1.0173    4.0603   -0.0358 C.ar      1 ATP         0.0820
     26 C6         -2.0105    5.0717    0.4241 C.ar      1 ATP         0.1640
     27 N6         -2.6723    5.7982   -0.4628 N.pl3     1 ATP        -0.4916
     28 N1         -2.1445    5.1522    1.7502 N.pl3     1 ATP        -0.4390
     29 C2         -1.3755    4.3143    2.6426 C.ar      1 ATP         0.5691
     30 N3         -0.5075    3.4292    2.2616 N.ar      1 ATP        -0.4283
     31 C4         -0.3667    3.3425    0.9070 C.ar      1 ATP         0.2226
     32 HOB2        6.5337   -0.8124   -4.4389 H         1 ATP         0.2010
     33 H5'1        2.8432    0.3119   -2.6398 H         1 ATP        -0.0393
     34 H5'2        1.2128   -0.0927   -2.0428 H         1 ATP        -0.0393
     35 H4'         3.8040   -0.1399   -0.4044 H         1 ATP        -0.0393
     36 H3'         1.6768   -1.7637    0.2732 H         1 ATP        -0.0393
     37 HO3'        2.2231   -1.2979    2.3952 H         1 ATP         0.2010
     38 H2'         0.0002   -0.0084   -0.0014 H         1 ATP        -0.0393
     39 HO2'       -0.1554   -0.9852    2.0577 H         1 ATP         0.2010
     40 H1'         1.7718    1.9211    1.6015 H         1 ATP        -0.0393
     41 H8          0.6089    2.4651   -2.2147 H         1 ATP         0.0000
     42 HN61       -2.5055    5.6680   -1.4503 H         1 ATP         0.2048
     43 HN62       -3.3462    6.4841   -0.1542 H         1 ATP         0.2048
     44 H2         -1.5932    4.4937    3.7066 H         1 ATP        -0.1292
     45 H45        -2.8098    5.8270    2.1160 H         1 ATP         0.2048
@<TRIPOS>BOND
     1    1    2 2
     2    1    3 1
     3    1    4 1
     4    1    8 1
     5    5    6 2
     6    5    7 1
     7    5    8 1
     8    5   12 1
     9    7   32 1
    10    9   10 2
    11    9   11 1
    12    9   12 1
    13    9   13 1
    14   13   14 1
    15   14   15 1
    16   14   33 1
    17   14   34 1
    18   15   16 1
    19   15   17 1
    20   15   35 1
    21   16   21 1
    22   17   18 1
    23   17   19 1
    24   17   36 1
    25   18   37 1
    26   19   20 1
    27   19   21 1
    28   19   38 1
    29   20   39 1
    30   21   22 1
    31   21   40 1
    32   22   23 ar
    33   22   31 ar
    34   23   24 ar
    35   23   41 1
    36   24   25 ar
    37   25   26 ar
    38   25   31 ar
    39   26   27 1
    40   26   28 ar
    41   27   42 1
    42   27   43 1
    43   28   29 ar
    44   28   45 1
    45   29   30 ar
    46   29   44 1
    47   30   31 ar
@<TRIPOS>SUBSTRUCTURE
     1 ATP         1 GROUP 0 A     ****
@<TRIPOS>MOLECULE
[[[5-(6-amino-1,8-dihydropurine-6,8-diylium-7-id-9-yl)-3,4-dihydroxy-tetrahydrofuran-2-yl]methoxy-oxido-phosphoryl]oxy-hydroxy-phosphoryl] phosphate
   45    47     1     0     0
SMALL
USER_CHARGES

@<TRIPOS>ATOM
      1 PG          0.1343    0.4235   -5.9727 P.3       1 ATP        -1.1921
      2 O1G        -1.0052    0.3944   -4.9594 O.co2     1 ATP         0.3195
      3 O2G        -0.2860    0.8493   -7.3757 O.co2     1 ATP         0.3195
      4 O3G         1.4065    1.0974   -5.4691 O.co2     1 ATP         0.3195
      5 PB          1.0968   -2.2322   -5.0679 P.3       1 ATP        -0.9715
      6 O1B         0.1635   -2.4981   -3.9239 O.2       1 ATP         0.2707
      7 O2B         1.4473   -3.5227   -5.9766 O.3       1 ATP         0.0326
      8 O3B         0.5563   -1.1599   -6.1516 O.3       1 ATP         0.4672
      9 PA          3.5344   -2.0410   -3.4175 P.3       1 ATP        -1.1062
     10 O1A         4.6992   -1.0751   -3.4122 O.co2     1 ATP         0.3195
     11 O2A         3.7584   -3.5374   -3.4310 O.co2     1 ATP         0.3195
     12 O3A         2.5483   -1.6533   -4.6586 O.3       1 ATP         0.4672
     13 O5'         2.5245   -1.6648   -2.1878 O.3       1 ATP         0.1618
     14 C5'         2.2816   -0.2918   -1.9206 C.3       1 ATP         0.1504
     15 C4'         2.7248    0.0226   -0.4980 C.3       1 ATP         0.1111
     16 O4'         2.4697    1.4219   -0.2462 O.3       1 ATP        -0.1436
     17 C3'         1.9404   -0.7419    0.5596 C.3       1 ATP         0.1111
     18 O3'         2.7418   -0.8086    1.7389 O.3       1 ATP        -0.2728
     19 C2'         0.7477    0.1630    0.7858 C.3       1 ATP         0.1111
     20 O2'         0.1373   -0.0577    2.0407 O.3       1 ATP        -0.2728
     21 C1'         1.3733    1.5427    0.6747 C.3       1 ATP         0.2693
     22 N9          0.4520    2.5240    0.1767 N.pl3     1 ATP        -0.3222
     23 C8         -0.3054    2.4845   -1.1576 C.ar      1 ATP         0.1640
     24 N7         -1.0755    3.5806   -1.2691 N.2       1 ATP        -0.1640
     25 C5         -0.8043    4.2306   -0.0942 C.ar      1 ATP         0.0820
     26 C6         -1.4324    5.5335    0.2646 C.ar      1 ATP         0.1640
     27 N6         -2.2885    6.1054   -0.5675 N.pl3     1 ATP        -0.4916
     28 N1         -1.0537    6.0229    1.4478 N.pl3     1 ATP        -0.4390
     29 C2         -0.1096    5.3242    2.2908 C.ar      1 ATP         0.5691
     30 N3          0.4468    4.1904    1.9960 N.ar      1 ATP        -0.4283
     31 C4          0.0631    3.6855    0.7877 C.ar      1 ATP         0.2226
     32 HOB2        1.8797   -4.2958   -5.5552 H         1 ATP         0.2010
     33 H5'1        2.8432    0.3119   -2.6398 H         1 ATP        -0.0393
     34 H5'2        1.2128   -0.0927   -2.0428 H         1 ATP        -0.0393
     35 H4'         3.8040   -0.1399   -0.4044 H         1 ATP        -0.0393
     36 H3'         1.6768   -1.7637    0.2732 H         1 ATP        -0.0393
     37 HO3'        2.2231   -1.2979    2.3952 H         1 ATP         0.2010
     38 H2'         0.0002   -0.0084   -0.0014 H         1 ATP        -0.0393
     39 HO2'       -0.6132    0.5577    2.1063 H         1 ATP         0.2010
     40 H1'         1.7718    1.9211    1.6015 H         1 ATP        -0.0393
     41 H8         -0.2991    1.7413   -1.9611 H         1 ATP         0.0000
     42 HN61       -2.5167    5.6603   -1.4447 H         1 ATP         0.2048
     43 HN62       -2.7159    6.9882   -0.3270 H         1 ATP         0.2048
     44 H2          0.1059    5.8491    3.2340 H         1 ATP        -0.1292
     45 H45        -1.4532    6.9099    1.7401 H         1 ATP         0.2048
@<TRIPOS>BOND
     1    1    2 2
     2    1    3 1
     3    1    4 1
     4    1    8 1
     5    5    6 2
     6    5    7 1
     7    5    8 1
     8    5   12 1
     9    7   32 1
    10    9   10 2
    11    9   11 1
    12    9   12 1
    13    9   13 1
    14   13   14 1
    15   14   15 1
    16   14   33 1
    17   14   34 1
    18   15   16 1
    19   15   17 1
    20   15   35 1
    21   16   21 1
    22   17   18 1
    23   17   19 1
    24   17   36 1
    25   18   37 1
    26   19   20 1
    27   19   21 1
    28   19   38 1
    29   20   39 1
    30   21   22 1
    31   21   40 1
    32   22   23 ar
    33   22   31 ar
    34   23   24 ar
    35   23   41 1
    36   24   25 ar
    37   25   26 ar
    38   25   31 ar
    39   26   27 1
    40   26   28 ar
    41   27   42 1
    42   27   43 1
    43   28   29 ar
    44   28   45 1
    45   29   30 ar
    46   29   44 1
    47   30   31 ar
@<TRIPOS>SUBSTRUCTURE
     1 ATP         1 GROUP 0 A     ****
@<TRIPOS>MOLECULE
[[[5-(6-amino-1,8-dihydropurine-6,8-diylium-7-id-9-yl)-3,4-dihydroxy-tetrahydrofuran-2-yl]methoxy-oxido-phosphoryl]oxy-hydroxy-phosphoryl] phosphate
   45    47     1     0     0
SMALL
USER_CHARGES

@<TRIPOS>ATOM
      1 PG          4.2216   -2.6825   -8.3390 P.3       1 ATP        -1.1921
      2 O1G         4.6548   -4.0769   -7.8982 O.co2     1 ATP         0.3195
      3 O2G         5.3670   -1.7885   -8.8029 O.co2     1 ATP         0.3195
      4 O3G         3.0022   -2.6631   -9.2548 O.co2     1 ATP         0.3195
      5 PB          2.5108   -2.3805   -5.9349 P.3       1 ATP        -0.9715
      6 O1B         1.1438   -2.4317   -6.5506 O.2       1 ATP         0.2707
      7 O2B         3.0338   -3.7802   -5.3173 O.3       1 ATP         0.0326
      8 O3B         3.6990   -1.9642   -6.9504 O.3       1 ATP         0.4672
      9 PA          3.9819   -0.9895   -3.7893 P.3       1 ATP        -1.1062
     10 O1A         5.0198   -0.3187   -4.6624 O.co2     1 ATP         0.3195
     11 O2A         4.3257   -2.2072   -2.9595 O.co2     1 ATP         0.3195
     12 O3A         2.6815   -1.3406   -4.7106 O.3       1 ATP         0.4672
     13 O5'         3.2903    0.1346   -2.8241 O.3       1 ATP         0.1618
     14 C5'         2.2816   -0.2918   -1.9206 C.3       1 ATP         0.1504
     15 C4'         2.7248    0.0226   -0.4980 C.3       1 ATP         0.1111
     16 O4'         2.4697    1.4219   -0.2462 O.3       1 ATP        -0.1436
     17 C3'         1.9404   -0.7419    0.5596 C.3       1 ATP         0.1111
     18 O3'         2.7418   -0.8086    1.7389 O.3       1 ATP        -0.2728
     19 C2'         0.7477    0.1630    0.7858 C.3       1 ATP         0.1111
     20 O2'         0.1373   -0.0577    2.0407 O.3       1 ATP        -0.2728
     21 C1'         1.3733    1.5427    0.6747 C.3       1 ATP         0.2693
     22 N9          0.4520    2.5240    0.1767 N.pl3     1 ATP        -0.3222
     23 C8          0.1798    2.8712   -1.2933 C.ar      1 ATP         0.1640
     24 N7         -0.7494    3.8400   -1.3610 N.2       1 ATP        -0.1640
     25 C5         -1.0173    4.0603   -0.0358 C.ar      1 ATP         0.0820
     26 C6         -2.0105    5.0717    0.4241 C.ar      1 ATP         0.1640
     27 N6         -2.6723    5.7982   -0.4628 N.pl3     1 ATP        -0.4916
     28 N1         -2.1445    5.1522    1.7502 N.pl3     1 ATP        -0.4390
     29 C2         -1.3755    4.3143    2.6426 C.ar      1 ATP         0.5691
     30 N3         -0.5075    3.4292    2.2616 N.ar      1 ATP        -0.4283
     31 C4         -0.3667    3.3425    0.9070 C.ar      1 ATP         0.2226
     32 HOB2        2.5179   -4.2031   -4.5980 H         1 ATP         0.2010
     33 H5'1        1.3514    0.2330   -2.1577 H         1 ATP        -0.0393
     34 H5'2        2.1280   -1.3678   -2.0460 H         1 ATP        -0.0393
     35 H4'         3.8040   -0.1399   -0.4044 H         1 ATP        -0.0393
     36 H3'         1.6768   -1.7637    0.2732 H         1 ATP        -0.0393
     37 HO3'        3.5553   -1.2733    1.4913 H         1 ATP         0.2010
     38 H2'         0.0002   -0.0084   -0.0014 H         1 ATP        -0.0393
     39 HO2'       -0.6132    0.5577    2.1063 H         1 ATP         0.2010
     40 H1'         1.7718    1.9211    1.6015 H         1 ATP        -0.0393
     41 H8          0.6089    2.4651   -2.2147 H         1 ATP         0.0000
     42 HN61       -2.5055    5.6680   -1.4503 H         1 ATP         0.2048
     43 HN62       -3.3462    6.4841   -0.1542 H         1 ATP         0.2048
     44 H2         -1.5932    4.4937    3.7066 H         1 ATP        -0.1292
     45 H45        -2.8098    5.8270    2.1160 H         1 ATP         0.2048
@<TRIPOS>BOND
     1    1    2 2
     2    1    3 1
     3    1    4 1
     4    1    8 1
     5    5    6 2
     6    5    7 1
     7    5    8 1
     8    5   12 1
     9    7   32 1
    10    9   10 2
    11    9   11 1
    12    9   12 1
    13    9   13 1
    14   13   14 1
    15   14   15 1
    16   14   33 1
    17   14   34 1
    18   15   16 1
    19   15   17 1
    20   15   35 1
    21   16   21 1
    22   17   18 1
    23   17   19 1
    24   17   36 1
    25   18   37 1
    26   19   20 1
    27   19   21 1
    28   19   38 1
    29   20   39 1
    30   21   22 1
    31   21   40 1
    32   22   23 ar
    33   22   31 ar
    34   23   24 ar
    35   23   41 1
    36   24   25 ar
    37   25   26 ar
    38   25   31 ar
    39   26   27 1
    40   26   28 ar
    41   27   42 1
    42   27   43 1
    43   28   29 ar
    44   28   45 1
    45   29   30 ar
    46   29   44 1
    47   30   31 ar
@<TRIPOS>SUBSTRUCTURE
     1 ATP         1 GROUP 0 A     ****
@<TRIPOS>MOLECULE
[[[5-(6-amino-1,8-dihydropurine-6,8-diylium-7-id-9-yl)-3,4-dihydroxy-tetrahydrofuran-2-yl]methoxy-oxido-phosphoryl]oxy-hydroxy-phosphoryl] phosphate
   45    47     1     0     0
SMALL
USER_CHARGES

@<TRIPOS>ATOM
      1 PG          3.1080    2.3547   -6.0310 P.3       1 ATP        -1.1921
      2 O1G         1.8726    2.3321   -6.9252 O.co2     1 ATP         0.3195
      3 O2G         4.1100    3.4519   -6.3751 O.co2     1 ATP         0.3195
      4 O3G         2.8083    2.2258   -4.5411 O.co2     1 ATP         0.3195
      5 PB          3.4343   -0.5817   -6.2929 P.3       1 ATP        -0.9715
      6 O1B         2.2181   -0.9321   -7.0983 O.2       1 ATP         0.2707
      7 O2B         4.7722   -1.4000   -6.6862 O.3       1 ATP         0.0326
      8 O3B         3.9047    0.9616   -6.4077 O.3       1 ATP         0.4672
      9 PA          2.5993   -2.0261   -3.8600 P.3       1 ATP        -1.1062
     10 O1A         3.3825   -3.2974   -4.1048 O.co2     1 ATP         0.3195
     11 O2A         1.1056   -1.9693   -4.0954 O.co2     1 ATP         0.3195
     12 O3A         3.3027   -0.8168   -4.7001 O.3       1 ATP         0.4672
     13 O5'         2.9216   -1.4836   -2.3516 O.3       1 ATP         0.1618
     14 C5'         2.2816   -0.2918   -1.9206 C.3       1 ATP         0.1504
     15 C4'         2.7248    0.0226   -0.4980 C.3       1 ATP         0.1111
     16 O4'         2.4697    1.4219   -0.2462 O.3       1 ATP        -0.1436
     17 C3'         1.9404   -0.7419    0.5596 C.3       1 ATP         0.1111
     18 O3'         2.7418   -0.8086    1.7389 O.3       1 ATP        -0.2728
     19 C2'         0.7477    0.1630    0.7858 C.3       1 ATP         0.1111
     20 O2'         0.1373   -0.0577    2.0407 O.3       1 ATP        -0.2728
     21 C1'         1.3733    1.5427    0.6747 C.3       1 ATP         0.2693
     22 N9          0.4520    2.5240    0.1767 N.pl3     1 ATP        -0.3222
     23 C8         -0.3054    2.4845   -1.1576 C.ar      1 ATP         0.1640
     24 N7         -1.0755    3.5806   -1.2691 N.2       1 ATP        -0.1640
     25 C5         -0.8043    4.2306   -0.0942 C.ar      1 ATP         0.0820
     26 C6         -1.4324    5.5335    0.2646 C.ar      1 ATP         0.1640
     27 N6         -2.2885    6.1054   -0.5675 N.pl3     1 ATP        -0.4916
     28 N1         -1.0537    6.0229    1.4478 N.pl3     1 ATP        -0.4390
     29 C2         -0.1096    5.3242    2.2908 C.ar      1 ATP         0.5691
     30 N3          0.4468    4.1904    1.9960 N.ar      1 ATP        -0.4283
     31 C4          0.0631    3.6855    0.7877 C.ar      1 ATP         0.2226
     32 HOB2        4.7694   -2.3779   -6.6093 H         1 ATP         0.2010
     33 H5'1        2.5589    0.5217   -2.5976 H         1 ATP        -0.0393
     34 H5'2        1.1982   -0.4388   -1.9617 H         1 ATP        -0.0393
     35 H4'         3.8040   -0.1399   -0.4044 H         1 ATP        -0.0393
     36 H3'         1.6768   -1.7637    0.2732 H         1 ATP        -0.0393
     37 HO3'        2.2231   -1.2979    2.3952 H         1 ATP         0.2010
     38 H2'         0.0002   -0.0084   -0.0014 H         1 ATP        -0.0393
     39 HO2'       -0.1554   -0.9852    2.0577 H         1 ATP         0.2010
     40 H1'         1.7718    1.9211    1.6015 H         1 ATP        -0.0393
     41 H8         -0.2991    1.7413   -1.9611 H         1 ATP         0.0000
     42 HN61       -2.5167    5.6603   -1.4447 H         1 ATP         0.2048
     43 HN62       -2.7159    6.9882   -0.3270 H         1 ATP         0.2048
     44 H2          0.1059    5.8491    3.2340 H         1 ATP        -0.1292
     45 H45        -1.4532    6.9099    1.7401 H         1 ATP         0.2048
@<TRIPOS>BOND
     1    1    2 2
     2    1    3 1
     3    1    4 1
     4    1    8 1
     5    5    6 2
     6    5    7 1
     7    5    8 1
     8    5   12 1
     9    7   32 1
    10    9   10 2
    11    9   11 1
    12    9   12 1
    13    9   13 1
    14   13   14 1
    15   14   15 1
    16   14   33 1
    17   14   34 1
    18   15   16 1
    19   15   17 1
    20   15   35 1
    21   16   21 1
    22   17   18 1
    23   17   19 1
    24   17   36 1
    25   18   37 1
    26   19   20 1
    27   19   21 1
    28   19   38 1
    29   20   39 1
    30   21   22 1
    31   21   40 1
    32   22   23 ar
    33   22   31 ar
    34   23   24 ar
    35   23   41 1
    36   24   25 ar
    37   25   26 ar
    38   25   31 ar
    39   26   27 1
    40   26   28 ar
    41   27   42 1
    42   27   43 1
    43   28   29 ar
    44   28   45 1
    45   29   30 ar
    46   29   44 1
    47   30   31 ar
@<TRIPOS>SUBSTRUCTURE
     1 ATP         1 GROUP 0 A     ****
@<TRIPOS>MOLECULE
[[[5-(6-amino-1,8-dihydropurine-6,8-diylium-7-id-9-yl)-3,4-dihydroxy-tetrahydrofuran-2-yl]methoxy-oxido-phosphoryl]oxy-hydroxy-phosphoryl] phosphate
   45    47     1     0     0
SMALL
USER_CHARGES

@<TRIPOS>ATOM
      1 PG          7.2688   -4.2327   -2.8231 P.3       1 ATP        -1.1921
      2 O1G         8.6485   -3.7645   -2.3720 O.co2     1 ATP         0.3195
      3 O2G         7.2927   -5.4147   -3.7867 O.co2     1 ATP         0.3195
      4 O3G         6.2501   -4.3650   -1.6958 O.co2     1 ATP         0.3195
      5 PB          6.4220   -1.4408   -3.3580 P.3       1 ATP        -0.9715
      6 O1B         7.4526   -0.8175   -2.4636 O.2       1 ATP         0.2707
      7 O2B         6.2536   -0.7328   -4.8018 O.3       1 ATP         0.0326
      8 O3B         6.7001   -2.9875   -3.7413 O.3       1 ATP         0.4672
      9 PA          3.5344   -2.0410   -3.4175 P.3       1 ATP        -1.1062
     10 O1A         3.6462   -3.5464   -3.5211 O.co2     1 ATP         0.3195
     11 O2A         3.1788   -1.1977   -4.6226 O.co2     1 ATP         0.3195
     12 O3A         4.9172   -1.4640   -2.7711 O.3       1 ATP         0.4672
     13 O5'         2.5245   -1.6648   -2.1878 O.3       1 ATP         0.1618
     14 C5'         2.2816   -0.2918   -1.9206 C.3       1 ATP         0.1504
     15 C4'         2.7248    0.0226   -0.4980 C.3       1 ATP         0.1111
     16 O4'         2.4697    1.4219   -0.2462 O.3       1 ATP        -0.1436
     17 C3'         1.9404   -0.7419    0.5596 C.3       1 ATP         0.1111
     18 O3'         2.7418   -0.8086    1.7389 O.3       1 ATP        -0.2728
     19 C2'         0.7477    0.1630    0.7858 C.3       1 ATP         0.1111
     20 O2'         0.1373   -0.0577    2.0407 O.3       1 ATP        -0.2728
     21 C1'         1.3733    1.5427    0.6747 C.3       1 ATP         0.2693
     22 N9          0.4520    2.5240    0.1767 N.pl3     1 ATP        -0.3222
     23 C8          0.1798    2.8712   -1.2933 C.ar      1 ATP         0.1640
     24 N7         -0.7494    3.8400   -1.3610 N.2       1 ATP        -0.1640
     25 C5         -1.0173    4.0603   -0.0358 C.ar      1 ATP         0.0820
     26 C6         -2.0105    5.0717    0.4241 C.ar      1 ATP         0.1640
     27 N6         -2.6723    5.7982   -0.4628 N.pl3     1 ATP        -0.4916
     28 N1         -2.1445    5.1522    1.7502 N.pl3     1 ATP        -0.4390
     29 C2         -1.3755    4.3143    2.6426 C.ar      1 ATP         0.5691
     30 N3         -0.5075    3.4292    2.2616 N.ar      1 ATP        -0.4283
     31 C4         -0.3667    3.3425    0.9070 C.ar      1 ATP         0.2226
     32 HOB2        5.9902    0.2114   -4.8387 H         1 ATP         0.2010
     33 H5'1        2.8432    0.3119   -2.6398 H         1 ATP        -0.0393
     34 H5'2        1.2128   -0.0927   -2.0428 H         1 ATP        -0.0393
     35 H4'         3.8040   -0.1399   -0.4044 H         1 ATP        -0.0393
     36 H3'         1.6768   -1.7637    0.2732 H         1 ATP        -0.0393
     37 HO3'        3.5553   -1.2733    1.4913 H         1 ATP         0.2010
     38 H2'         0.0002   -0.0084   -0.0014 H         1 ATP        -0.0393
     39 HO2'       -0.1554   -0.9852    2.0577 H         1 ATP         0.2010
     40 H1'         1.7718    1.9211    1.6015 H         1 ATP        -0.0393
     41 H8          0.6089    2.4651   -2.2147 H         1 ATP         0.0000
     42 HN61       -2.5055    5.6680   -1.4503 H         1 ATP         0.2048
     43 HN62       -3.3462    6.4841   -0.1542 H         1 ATP         0.2048
     44 H2         -1.5932    4.4937    3.7066 H         1 ATP        -0.1292
     45 H45        -2.8098    5.8270    2.1160 H         1 ATP         0.2048
@<TRIPOS>BOND
     1    1    2 2
     2    1    3 1
     3    1    4 1
     4    1    8 1
     5    5    6 2
     6    5    7 1
     7    5    8 1
     8    5   12 1
     9    7   32 1
    10    9   10 2
    11    9   11 1
    12    9   12 1
    13    9   13 1
    14   13   14 1
    15   14   15 1
    16   14   33 1
    17   14   34 1
    18   15   16 1
    19   15   17 1
    20   15   35 1
    21   16   21 1
    22   17   18 1
    23   17   19 1
    24   17   36 1
    25   18   37 1
    26   19   20 1
    27   19   21 1
    28   19   38 1
    29   20   39 1
    30   21   22 1
    31   21   40 1
    32   22   23 ar
    33   22   31 ar
    34   23   24 ar
    35   23   41 1
    36   24   25 ar
    37   25   26 ar
    38   25   31 ar
    39   26   27 1
    40   26   28 ar
    41   27   42 1
    42   27   43 1
    43   28   29 ar
    44   28   45 1
    45   29   30 ar
    46   29   44 1
    47   30   31 ar
@<TRIPOS>SUBSTRUCTURE
     1 ATP         1 GROUP 0 A     ****
@<TRIPOS>MOLECULE
[[[5-(6-amino-1,8-dihydropurine-6,8-diylium-7-id-9-yl)-3,4-dihydroxy-tetrahydrofuran-2-yl]methoxy-oxido-phosphoryl]oxy-hydroxy-phosphoryl] phosphate
   45    47     1     0     0
SMALL
USER_CHARGES

@<TRIPOS>ATOM
      1 PG         -0.4691   -1.7783   -6.1370 P.3       1 ATP        -1.1921
      2 O1G        -0.2649   -3.1002   -5.4041 O.co2     1 ATP         0.3195
      3 O2G        -1.2354   -1.9021   -7.4499 O.co2     1 ATP         0.3195
      4 O3G        -0.9346   -0.6310   -5.2465 O.co2     1 ATP         0.3195
      5 PB          2.3737   -1.0361   -5.7300 P.3       1 ATP        -0.9715
      6 O1B         2.8496   -2.1841   -4.8897 O.2       1 ATP         0.2707
      7 O2B         3.4314   -0.5162   -6.8368 O.3       1 ATP         0.0326
      8 O3B         1.0485   -1.3385   -6.6069 O.3       1 ATP         0.4672
      9 PA          2.8924    1.2553   -3.9461 P.3       1 ATP        -1.1062
     10 O1A         1.9883    2.2894   -3.3114 O.co2     1 ATP         0.3195
     11 O2A         4.1399    1.6630   -4.6993 O.co2     1 ATP         0.3195
     12 O3A         1.9880    0.3054   -4.9170 O.3       1 ATP         0.4672
     13 O5'         3.2903    0.1346   -2.8241 O.3       1 ATP         0.1618
     14 C5'         2.2816   -0.2918   -1.9206 C.3       1 ATP         0.1504
     15 C4'         2.7248    0.0226   -0.4980 C.3       1 ATP         0.1111
     16 O4'         2.4697    1.4219   -0.2462 O.3       1 ATP        -0.1436
     17 C3'         1.9404   -0.7419    0.5596 C.3       1 ATP         0.1111
     18 O3'         2.7418   -0.8086    1.7389 O.3       1 ATP        -0.2728
     19 C2'         0.7477    0.1630    0.7858 C.3       1 ATP         0.1111
     20 O2'         0.1373   -0.0577    2.0407 O.3       1 ATP        -0.2728
     21 C1'         1.3733    1.5427    0.6747 C.3       1 ATP         0.2693
     22 N9          0.4520    2.5240    0.1767 N.pl3     1 ATP        -0.3222
     23 C8         -0.3054    2.4845   -1.1576 C.ar      1 ATP         0.1640
     24 N7         -1.0755    3.5806   -1.2691 N.2       1 ATP        -0.1640
     25 C5         -0.8043    4.2306   -0.0942 C.ar      1 ATP         0.0820
     26 C6         -1.4324    5.5335    0.2646 C.ar      1 ATP         0.1640
     27 N6         -2.2885    6.1054   -0.5675 N.pl3     1 ATP        -0.4916
     28 N1         -1.0537    6.0229    1.4478 N.pl3     1 ATP        -0.4390
     29 C2         -0.1096    5.3242    2.2908 C.ar      1 ATP         0.5691
     30 N3          0.4468    4.1904    1.9960 N.ar      1 ATP        -0.4283
     31 C4          0.0631    3.6855    0.7877 C.ar      1 ATP         0.2226
     32 HOB2        3.7405   -1.1408   -7.5272 H         1 ATP         0.2010
     33 H5'1        1.3514    0.2330   -2.1577 H         1 ATP        -0.0393
     34 H5'2        2.1280   -1.3678   -2.0460 H         1 ATP        -0.0393
     35 H4'         3.8040   -0.1399   -0.4044 H         1 ATP        -0.0393
     36 H3'         1.6768   -1.7637    0.2732 H         1 ATP        -0.0393
     37 HO3'        2.2231   -1.2979    2.3952 H         1 ATP         0.2010
     38 H2'         0.0002   -0.0084   -0.0014 H         1 ATP        -0.0393
     39 HO2'       -0.1554   -0.9852    2.0577 H         1 ATP         0.2010
     40 H1'         1.7718    1.9211    1.6015 H         1 ATP        -0.0393
     41 H8         -0.2991    1.7413   -1.9611 H         1 ATP         0.0000
     42 HN61       -2.5167    5.6603   -1.4447 H         1 ATP         0.2048
     43 HN62       -2.7159    6.9882   -0.3270 H         1 ATP         0.2048
     44 H2          0.1059    5.8491    3.2340 H         1 ATP        -0.1292
     45 H45        -1.4532    6.9099    1.7401 H         1 ATP         0.2048
@<TRIPOS>BOND
     1    1    2 2
     2    1    3 1
     3    1    4 1
     4    1    8 1
     5    5    6 2
     6    5    7 1
     7    5    8 1
     8    5   12 1
     9    7   32 1
    10    9   10 2
    11    9   11 1
    12    9   12 1
    13    9   13 1
    14   13   14 1
    15   14   15 1
    16   14   33 1
    17   14   34 1
    18   15   16 1
    19   15   17 1
    20   15   35 1
    21   16   21 1
    22   17   18 1
    23   17   19 1
    24   17   36 1
    25   18   37 1
    26   19   20 1
    27   19   21 1
    28   19   38 1
    29   20   39 1
    30   21   22 1
    31   21   40 1
    32   22   23 ar
    33   22   31 ar
    34   23   24 ar
    35   23   41 1
    36   24   25 ar
    37   25   26 ar
    38   25   31 ar
    39   26   27 1
    40   26   28 ar
    41   27   42 1
    42   27   43 1
    43   28   29 ar
    44   28   45 1
    45   29   30 ar
    46   29   44 1
    47   30   31 ar
@<TRIPOS>SUBSTRUCTURE
     1 ATP         1 GROUP 0 A     ****
@<TRIPOS>MOLECULE
[[[5-(6-amino-1,8-dihydropurine-6,8-diylium-7-id-9-yl)-3,4-dihydroxy-tetrahydrofuran-2-yl]methoxy-oxido-phosphoryl]oxy-hydroxy-phosphoryl] phosphate
   45    47     1     0     0
SMALL
USER_CHARGES

@<TRIPOS>ATOM
      1 PG          4.6553   -4.9449   -1.8353 P.3       1 ATP        -1.1921
      2 O1G         5.9981   -5.3191   -2.4542 O.co2     1 ATP         0.3195
      3 O2G         3.9715   -6.0844   -1.0868 O.co2     1 ATP         0.3195
      4 O3G         4.6564   -3.6162   -1.0866 O.co2     1 ATP         0.3195
      5 PB          3.7944   -3.6139   -4.3424 P.3       1 ATP        -0.9715
      6 O1B         5.0371   -3.7417   -5.1731 O.2       1 ATP         0.2707
      7 O2B         2.4093   -3.8208   -5.1503 O.3       1 ATP         0.0326
      8 O3B         3.6727   -4.6802   -3.1322 O.3       1 ATP         0.4672
      9 PA          3.4597   -0.6852   -4.2287 P.3       1 ATP        -1.1062
     10 O1A         2.1648   -0.6027   -5.0072 O.co2     1 ATP         0.3195
     11 O2A         4.7802   -0.3073   -4.8636 O.co2     1 ATP         0.3195
     12 O3A         3.5941   -2.1887   -3.6087 O.3       1 ATP         0.4672
     13 O5'         3.2903    0.1346   -2.8241 O.3       1 ATP         0.1618
     14 C5'         2.2816   -0.2918   -1.9206 C.3       1 ATP         0.1504
     15 C4'         2.7248    0.0226   -0.4980 C.3       1 ATP         0.1111
     16 O4'         2.4697    1.4219   -0.2462 O.3       1 ATP        -0.1436
     17 C3'         1.9404   -0.7419    0.5596 C.3       1 ATP         0.1111
     18 O3'         2.7418   -0.8086    1.7389 O.3       1 ATP        -0.2728
     19 C2'         0.7477    0.1630    0.7858 C.3       1 ATP         0.1111
     20 O2'         0.1373   -0.0577    2.0407 O.3       1 ATP        -0.2728
     21 C1'         1.3733    1.5427    0.6747 C.3       1 ATP         0.2693
     22 N9          0.4520    2.5240    0.1767 N.pl3     1 ATP        -0.3222
     23 C8          0.1798    2.8712   -1.2933 C.ar      1 ATP         0.1640
     24 N7         -0.7494    3.8400   -1.3610 N.2       1 ATP        -0.1640
     25 C5         -1.0173    4.0603   -0.0358 C.ar      1 ATP         0.0820
     26 C6         -2.0105    5.0717    0.4241 C.ar      1 ATP         0.1640
     27 N6         -2.6723    5.7982   -0.4628 N.pl3     1 ATP        -0.4916
     28 N1         -2.1445    5.1522    1.7502 N.pl3     1 ATP        -0.4390
     29 C2         -1.3755    4.3143    2.6426 C.ar      1 ATP         0.5691
     30 N3         -0.5075    3.4292    2.2616 N.ar      1 ATP        -0.4283
     31 C4         -0.3667    3.3425    0.9070 C.ar      1 ATP         0.2226
     32 HOB2        2.2012   -3.2187   -5.8961 H         1 ATP         0.2010
     33 H5'1        1.3514    0.2330   -2.1577 H         1 ATP        -0.0393
     34 H5'2        2.1280   -1.3678   -2.0460 H         1 ATP        -0.0393
     35 H4'         3.8040   -0.1399   -0.4044 H         1 ATP        -0.0393
     36 H3'         1.6768   -1.7637    0.2732 H         1 ATP        -0.0393
     37 HO3'        3.5553   -1.2733    1.4913 H         1 ATP         0.2010
     38 H2'         0.0002   -0.0084   -0.0014 H         1 ATP        -0.0393
     39 HO2'        0.8091    0.1203    2.7213 H         1 ATP         0.2010
     40 H1'         1.7718    1.9211    1.6015 H         1 ATP        -0.0393
     41 H8          0.6089    2.4651   -2.2147 H         1 ATP         0.0000
     42 HN61       -2.5055    5.6680   -1.4503 H         1 ATP         0.2048
     43 HN62       -3.3462    6.4841   -0.1542 H         1 ATP         0.2048
     44 H2         -1.5932    4.4937    3.7066 H         1 ATP        -0.1292
     45 H45        -2.8098    5.8270    2.1160 H         1 ATP         0.2048
@<TRIPOS>BOND
     1    1    2 2
     2    1    3 1
     3    1    4 1
     4    1    8 1
     5    5    6 2
     6    5    7 1
     7    5    8 1
     8    5   12 1
     9    7   32 1
    10    9   10 2
    11    9   11 1
    12    9   12 1
    13    9   13 1
    14   13   14 1
    15   14   15 1
    16   14   33 1
    17   14   34 1
    18   15   16 1
    19   15   17 1
    20   15   35 1
    21   16   21 1
    22   17   18 1
    23   17   19 1
    24   17   36 1
    25   18   37 1
    26   19   20 1
    27   19   21 1
    28   19   38 1
    29   20   39 1
    30   21   22 1
    31   21   40 1
    32   22   23 ar
    33   22   31 ar
    34   23   24 ar
    35   23   41 1
    36   24   25 ar
    37   25   26 ar
    38   25   31 ar
    39   26   27 1
    40   26   28 ar
    41   27   42 1
    42   27   43 1
    43   28   29 ar
    44   28   45 1
    45   29   30 ar
    46   29   44 1
    47   30   31 ar
@<TRIPOS>SUBSTRUCTURE
     1 ATP         1 GROUP 0 A     ****
@<TRIPOS>MOLECULE
[[[5-(6-amino-1,8-dihydropurine-6,8-diylium-7-id-9-yl)-3,4-dihydroxy-tetrahydrofuran-2-yl]methoxy-oxido-phosphoryl]oxy-hydroxy-phosphoryl] phosphate
   45    47     1     0     0
SMALL
USER_CHARGES

@<TRIPOS>ATOM
      1 PG          6.9423   -3.7465   -6.1894 P.3       1 ATP        -1.1921
      2 O1G         7.6298   -4.6698   -5.1889 O.co2     1 ATP         0.3195
      3 O2G         7.8528   -2.6755   -6.7812 O.co2     1 ATP         0.3195
      4 O3G         6.0741   -4.4667   -7.2159 O.co2     1 ATP         0.3195
      5 PB          4.6252   -3.3913   -4.3721 P.3       1 ATP        -0.9715
      6 O1B         3.5602   -4.1373   -5.1203 O.2       1 ATP         0.2707
      7 O2B         5.3477   -4.2316   -3.1947 O.3       1 ATP         0.0326
      8 O3B         5.8686   -2.8905   -5.2774 O.3       1 ATP         0.4672
      9 PA          3.4597   -0.6852   -4.2287 P.3       1 ATP        -1.1062
     10 O1A         2.0882   -1.0306   -4.7667 O.co2     1 ATP         0.3195
     11 O2A         4.4837    0.0205   -5.0906 O.co2     1 ATP         0.3195
     12 O3A         4.1355   -2.0436   -3.6281 O.3       1 ATP         0.4672
     13 O5'         3.2903    0.1346   -2.8241 O.3       1 ATP         0.1618
     14 C5'         2.2816   -0.2918   -1.9206 C.3       1 ATP         0.1504
     15 C4'         2.7248    0.0226   -0.4980 C.3       1 ATP         0.1111
     16 O4'         2.4697    1.4219   -0.2462 O.3       1 ATP        -0.1436
     17 C3'         1.9404   -0.7419    0.5596 C.3       1 ATP         0.1111
     18 O3'         2.7418   -0.8086    1.7389 O.3       1 ATP        -0.2728
     19 C2'         0.7477    0.1630    0.7858 C.3       1 ATP         0.1111
     20 O2'         0.1373   -0.0577    2.0407 O.3       1 ATP        -0.2728
     21 C1'         1.3733    1.5427    0.6747 C.3       1 ATP         0.2693
     22 N9          0.4520    2.5240    0.1767 N.pl3     1 ATP        -0.3222
     23 C8          0.5793    3.3338   -1.1209 C.ar      1 ATP         0.1640
     24 N7         -0.4807    4.1508   -1.2458 N.2       1 ATP        -0.1640
     25 C5         -1.1921    3.8572   -0.1126 C.ar      1 ATP         0.0820
     26 C6         -2.4855    4.5203    0.2163 C.ar      1 ATP         0.1640
     27 N6         -2.9873    5.4319   -0.6020 N.pl3     1 ATP        -0.4916
     28 N1         -3.0414    4.1119    1.3596 N.pl3     1 ATP        -0.4390
     29 C2         -2.4169    3.1071    2.1904 C.ar      1 ATP         0.5691
     30 N3         -1.2928    2.5191    1.9210 N.ar      1 ATP        -0.4283
     31 C4         -0.7202    2.9326    0.7534 C.ar      1 ATP         0.2226
     32 HOB2        4.8028   -4.5760   -2.4553 H         1 ATP         0.2010
     33 H5'1        1.3514    0.2330   -2.1577 H         1 ATP        -0.0393
     34 H5'2        2.1280   -1.3678   -2.0460 H         1 ATP        -0.0393
     35 H4'         3.8040   -0.1399   -0.4044 H         1 ATP        -0.0393
     36 H3'         1.6768   -1.7637    0.2732 H         1 ATP        -0.0393
     37 HO3'        3.5553   -1.2733    1.4913 H         1 ATP         0.2010
     38 H2'         0.0002   -0.0084   -0.0014 H         1 ATP        -0.0393
     39 HO2'       -0.1554   -0.9852    2.0577 H         1 ATP         0.2010
     40 H1'         1.7718    1.9211    1.6015 H         1 ATP        -0.0393
     41 H8          1.3565    3.3309   -1.8916 H         1 ATP         0.0000
     42 HN61       -2.4952    5.6785   -1.4487 H         1 ATP         0.2048
     43 HN62       -3.8637    5.8828   -0.3819 H         1 ATP         0.2048
     44 H2         -2.9911    2.8734    3.1000 H         1 ATP        -0.1292
     45 H45        -3.9253    4.5332    1.6302 H         1 ATP         0.2048
@<TRIPOS>BOND
     1    1    2 2
     2    1    3 1
     3    1    4 1
     4    1    8 1
     5    5    6 2
     6    5    7 1
     7    5    8 1
     8    5   12 1
     9    7   32 1
    10    9   10 2
    11    9   11 1
    12    9   12 1
    13    9   13 1
    14   13   14 1
    15   14   15 1
    16   14   33 1
    17   14   34 1
    18   15   16 1
    19   15   17 1
    20   15   35 1
    21   16   21 1
    22   17   18 1
    23   17   19 1
    24   17   36 1
    25   18   37 1
    26   19   20 1
    27   19   21 1
    28   19   38 1
    29   20   39 1
    30   21   22 1
    31   21   40 1
    32   22   23 ar
    33   22   31 ar
    34   23   24 ar
    35   23   41 1
    36   24   25 ar
    37   25   26 ar
    38   25   31 ar
    39   26   27 1
    40   26   28 ar
    41   27   42 1
    42   27   43 1
    43   28   29 ar
    44   28   45 1
    45   29   30 ar
    46   29   44 1
    47   30   31 ar
@<TRIPOS>SUBSTRUCTURE
     1 ATP         1 GROUP 0 A     ****
@<TRIPOS>MOLECULE
[[[5-(6-amino-1,8-dihydropurine-6,8-diylium-7-id-9-yl)-3,4-dihydroxy-tetrahydrofuran-2-yl]methoxy-oxido-phosphoryl]oxy-hydroxy-phosphoryl] phosphate
   45    47     1     0     0
SMALL
USER_CHARGES

@<TRIPOS>ATOM
      1 PG          1.9008   -5.7658    6.3208 P.3       1 ATP        -1.1921
      2 O1G         2.9595   -4.9449    5.5917 O.co2     1 ATP         0.3195
      3 O2G         2.4086   -6.4703    7.5746 O.co2     1 ATP         0.3195
      4 O3G         0.5656   -5.0512    6.5019 O.co2     1 ATP         0.3195
      5 PB          0.9885   -6.9780    3.7721 P.3       1 ATP        -0.9715
      6 O1B         1.8421   -6.2388    2.7843 O.2       1 ATP         0.2707
      7 O2B         0.7655   -8.5452    3.4429 O.3       1 ATP         0.0326
      8 O3B         1.5633   -7.0019    5.2838 O.3       1 ATP         0.4672
      9 PA         -1.7237   -6.2523    2.8671 P.3       1 ATP        -1.1062
     10 O1A        -2.8657   -5.5136    3.5305 O.co2     1 ATP         0.3195
     11 O2A        -1.9433   -7.5882    2.1912 O.co2     1 ATP         0.3195
     12 O3A        -0.5140   -6.4122    3.9505 O.3       1 ATP         0.4672
     13 O5'        -0.9724   -5.2440    1.8220 O.3       1 ATP         0.1618
     14 C5'        -0.7840   -3.8935    2.2172 C.3       1 ATP         0.1504
     15 C4'        -0.0724   -3.1466    1.1027 C.3       1 ATP         0.1111
     16 O4'        -0.8674   -3.1929   -0.0945 O.3       1 ATP        -0.1436
     17 C3'         0.1338   -1.6715    1.4027 C.3       1 ATP         0.1111
     18 O3'         1.2893   -1.4445    2.1808 O.3       1 ATP        -0.2728
     19 C2'         0.2158   -1.0724    0.0128 C.3       1 ATP         0.1111
     20 O2'         1.5141   -1.2448   -0.5513 O.3       1 ATP        -0.2728
     21 C1'        -0.7897   -1.9176   -0.7583 C.3       1 ATP         0.2693
     22 N9         -2.1040   -1.3333   -0.7704 N.pl3     1 ATP        -0.3222
     23 C8         -3.2124   -1.5345    0.2719 C.ar      1 ATP         0.1640
     24 N7         -4.2964   -0.8234   -0.0828 N.2       1 ATP        -0.1640
     25 C5         -3.8754   -0.2386   -1.2478 C.ar      1 ATP         0.0820
     26 C6         -4.7432    0.6719   -2.0470 C.ar      1 ATP         0.1640
     27 N6         -5.9725    0.9415   -1.6366 N.pl3     1 ATP        -0.4916
     28 N1         -4.1703    1.1517   -3.1536 N.pl3     1 ATP        -0.4390
     29 C2         -2.8174    0.7994   -3.5215 C.ar      1 ATP         0.5691
     30 N3         -2.0475    0.0097   -2.8393 N.ar      1 ATP        -0.4283
     31 C4         -2.6278   -0.4836   -1.7071 C.ar      1 ATP         0.2226
     32 HOB2        0.3361   -8.7953    2.5971 H         1 ATP         0.2010
     33 H5'1       -1.7618   -3.4448    2.4164 H         1 ATP        -0.0393
     34 H5'2       -0.1874   -3.8744    3.1341 H         1 ATP        -0.0393
     35 H4'         0.8871   -3.6466    0.8809 H         1 ATP        -0.0393
     36 H3'        -0.7370   -1.2334    1.9869 H         1 ATP        -0.0393
     37 HO3'        1.3407   -0.4871    2.3218 H         1 ATP         0.2010
     38 H2'        -0.0343   -0.0280    0.0196 H         1 ATP        -0.0393
     39 HO2'        2.1443   -0.7955    0.0378 H         1 ATP         0.2010
     40 H1'        -0.5175   -2.1046   -1.7826 H         1 ATP        -0.0393
     41 H8         -3.2310   -2.1319    1.1889 H         1 ATP         0.0000
     42 HN61       -6.3230    0.5316   -0.7829 H         1 ATP         0.2048
     43 HN62       -6.5628    1.5584   -2.1760 H         1 ATP         0.2048
     44 H2         -2.4822    1.2710   -4.4579 H         1 ATP        -0.1292
     45 H45        -4.7200    1.7780   -3.7346 H         1 ATP         0.2048
@<TRIPOS>BOND
     1    1    2 2
     2    1    3 1
     3    1    4 1
     4    1    8 1
     5    5    6 2
     6    5    7 1
     7    5    8 1
     8    5   12 1
     9    7   32 1
    10    9   10 2
    11    9   11 1
    12    9   12 1
    13    9   13 1
    14   13   14 1
    15   14   15 1
    16   14   33 1
    17   14   34 1
    18   15   16 1
    19   15   17 1
    20   15   35 1
    21   16   21 1
    22   17   18 1
    23   17   19 1
    24   17   36 1
    25   18   37 1
    26   19   20 1
    27   19   21 1
    28   19   38 1
    29   20   39 1
    30   21   22 1
    31   21   40 1
    32   22   23 ar
    33   22   31 ar
    34   23   24 ar
    35   23   41 1
    36   24   25 ar
    37   25   26 ar
    38   25   31 ar
    39   26   27 1
    40   26   28 ar
    41   27   42 1
    42   27   43 1
    43   28   29 ar
    44   28   45 1
    45   29   30 ar
    46   29   44 1
    47   30   31 ar
@<TRIPOS>SUBSTRUCTURE
     1 ATP         1 GROUP 0 A     ****
@<TRIPOS>MOLECULE
[[[5-(6-amino-1,8-dihydropurine-6,8-diylium-7-id-9-yl)-3,4-dihydroxy-tetrahydrofuran-2-yl]methoxy-oxido-phosphoryl]oxy-hydroxy-phosphoryl] phosphate
   45    47     1     0     0
SMALL
USER_CHARGES

@<TRIPOS>ATOM
      1 PG          2.0793   -0.9872   -8.8726 P.3       1 ATP        -1.1921
      2 O1G         2.0316   -2.5103   -8.9377 O.co2     1 ATP         0.3195
      3 O2G         3.3670   -0.3773   -9.4165 O.co2     1 ATP         0.3195
      4 O3G         0.8075   -0.2972   -9.3550 O.co2     1 ATP         0.3195
      5 PB          1.0928   -1.0086   -6.0754 P.3       1 ATP        -0.9715
      6 O1B        -0.2829   -0.4378   -6.2549 O.2       1 ATP         0.2707
      7 O2B         1.1580   -2.6226   -6.0049 O.3       1 ATP         0.0326
      8 O3B         2.1362   -0.6535   -7.2593 O.3       1 ATP         0.4672
      9 PA          2.3065    0.9470   -4.2302 P.3       1 ATP        -1.1062
     10 O1A         1.0524    1.7363   -3.9238 O.co2     1 ATP         0.3195
     11 O2A         3.3598    1.4862   -5.1733 O.co2     1 ATP         0.3195
     12 O3A         1.8688   -0.5407   -4.7381 O.3       1 ATP         0.4672
     13 O5'         3.0213    0.5153   -2.8245 O.3       1 ATP         0.1618
     14 C5'         2.2816   -0.2918   -1.9206 C.3       1 ATP         0.1504
     15 C4'         2.7248    0.0226   -0.4980 C.3       1 ATP         0.1111
     16 O4'         2.4697    1.4219   -0.2462 O.3       1 ATP        -0.1436
     17 C3'         1.9404   -0.7419    0.5596 C.3       1 ATP         0.1111
     18 O3'         2.7418   -0.8086    1.7389 O.3       1 ATP        -0.2728
     19 C2'         0.7477    0.1630    0.7858 C.3       1 ATP         0.1111
     20 O2'         0.1373   -0.0577    2.0407 O.3       1 ATP        -0.2728
     21 C1'         1.3733    1.5427    0.6747 C.3       1 ATP         0.2693
     22 N9          0.4520    2.5240    0.1767 N.pl3     1 ATP        -0.3222
     23 C8         -1.0660    2.5608    0.3999 C.ar      1 ATP         0.1640
     24 N7         -1.5852    3.6333   -0.2221 N.2       1 ATP        -0.1640
     25 C5         -0.4682    4.1996   -0.7771 C.ar      1 ATP         0.0820
     26 C6         -0.5216    5.4476   -1.5899 C.ar      1 ATP         0.1640
     27 N6         -1.6813    6.0510   -1.7982 N.pl3     1 ATP        -0.4916
     28 N1          0.6621    5.8575   -2.0523 N.pl3     1 ATP        -0.4390
     29 C2          1.8795    5.1301   -1.7717 C.ar      1 ATP         0.5691
     30 N3          1.9458    4.0434   -1.0670 N.ar      1 ATP        -0.4283
     31 C4          0.7388    3.6199   -0.5917 C.ar      1 ATP         0.2226
     32 HOB2        0.8352   -3.1438   -6.7707 H         1 ATP         0.2010
     33 H5'1        1.2163   -0.0770   -2.0471 H         1 ATP        -0.0393
     34 H5'2        2.4655   -1.3443   -2.1563 H         1 ATP        -0.0393
     35 H4'         3.8040   -0.1399   -0.4044 H         1 ATP        -0.0393
     36 H3'         1.6768   -1.7637    0.2732 H         1 ATP        -0.0393
     37 HO3'        2.2231   -1.2979    2.3952 H         1 ATP         0.2010
     38 H2'         0.0002   -0.0084   -0.0014 H         1 ATP        -0.0393
     39 HO2'       -0.1554   -0.9852    2.0577 H         1 ATP         0.2010
     40 H1'         1.7718    1.9211    1.6015 H         1 ATP        -0.0393
     41 H8         -1.7235    1.8833    0.9537 H         1 ATP         0.0000
     42 HN61       -2.5296    5.6672   -1.4072 H         1 ATP         0.2048
     43 HN62       -1.7205    6.8969   -2.3483 H         1 ATP         0.2048
     44 H2          2.7750    5.5878   -2.2190 H         1 ATP        -0.1292
     45 H45         0.6808    6.7046   -2.6128 H         1 ATP         0.2048
@<TRIPOS>BOND
     1    1    2 2
     2    1    3 1
     3    1    4 1
     4    1    8 1
     5    5    6 2
     6    5    7 1
     7    5    8 1
     8    5   12 1
     9    7   32 1
    10    9   10 2
    11    9   11 1
    12    9   12 1
    13    9   13 1
    14   13   14 1
    15   14   15 1
    16   14   33 1
    17   14   34 1
    18   15   16 1
    19   15   17 1
    20   15   35 1
    21   16   21 1
    22   17   18 1
    23   17   19 1
    24   17   36 1
    25   18   37 1
    26   19   20 1
    27   19   21 1
    28   19   38 1
    29   20   39 1
    30   21   22 1
    31   21   40 1
    32   22   23 ar
    33   22   31 ar
    34   23   24 ar
    35   23   41 1
    36   24   25 ar
    37   25   26 ar
    38   25   31 ar
    39   26   27 1
    40   26   28 ar
    41   27   42 1
    42   27   43 1
    43   28   29 ar
    44   28   45 1
    45   29   30 ar
    46   29   44 1
    47   30   31 ar
@<TRIPOS>SUBSTRUCTURE
     1 ATP         1 GROUP 0 A     ****
@<TRIPOS>MOLECULE
[[[5-(6-amino-1,8-dihydropurine-6,8-diylium-7-id-9-yl)-3,4-dihydroxy-tetrahydrofuran-2-yl]methoxy-oxido-phosphoryl]oxy-hydroxy-phosphoryl] phosphate
   45    47     1     0     0
SMALL
USER_CHARGES

@<TRIPOS>ATOM
      1 PG          1.9277   -3.8353   -5.7431 P.3       1 ATP        -1.1921
      2 O1G         2.6323   -3.8225   -7.0958 O.co2     1 ATP         0.3195
      3 O2G         1.0490   -5.0592   -5.5063 O.co2     1 ATP         0.3195
      4 O3G         2.8237   -3.4707   -4.5640 O.co2     1 ATP         0.3195
      5 PB          1.0928   -1.0086   -6.0754 P.3       1 ATP        -0.9715
      6 O1B         1.7708   -0.6621   -7.3680 O.2       1 ATP         0.2707
      7 O2B        -0.3869   -0.3831   -5.8920 O.3       1 ATP         0.0326
      8 O3B         0.8516   -2.5900   -5.8365 O.3       1 ATP         0.4672
      9 PA          2.3065    0.9470   -4.2302 P.3       1 ATP        -1.1062
     10 O1A         1.0524    1.7363   -3.9238 O.co2     1 ATP         0.3195
     11 O2A         3.3598    1.4862   -5.1733 O.co2     1 ATP         0.3195
     12 O3A         1.8688   -0.5407   -4.7381 O.3       1 ATP         0.4672
     13 O5'         3.0213    0.5153   -2.8245 O.3       1 ATP         0.1618
     14 C5'         2.2816   -0.2918   -1.9206 C.3       1 ATP         0.1504
     15 C4'         2.7248    0.0226   -0.4980 C.3       1 ATP         0.1111
     16 O4'         2.4697    1.4219   -0.2462 O.3       1 ATP        -0.1436
     17 C3'         1.9404   -0.7419    0.5596 C.3       1 ATP         0.1111
     18 O3'         2.7418   -0.8086    1.7389 O.3       1 ATP        -0.2728
     19 C2'         0.7477    0.1630    0.7858 C.3       1 ATP         0.1111
     20 O2'         0.1373   -0.0577    2.0407 O.3       1 ATP        -0.2728
     21 C1'         1.3733    1.5427    0.6747 C.3       1 ATP         0.2693
     22 N9          0.4520    2.5240    0.1767 N.pl3     1 ATP        -0.3222
     23 C8         -0.3054    2.4845   -1.1576 C.ar      1 ATP         0.1640
     24 N7         -1.0755    3.5806   -1.2691 N.2       1 ATP        -0.1640
     25 C5         -0.8043    4.2306   -0.0942 C.ar      1 ATP         0.0820
     26 C6         -1.4324    5.5335    0.2646 C.ar      1 ATP         0.1640
     27 N6         -2.2885    6.1054   -0.5675 N.pl3     1 ATP        -0.4916
     28 N1         -1.0537    6.0229    1.4478 N.pl3     1 ATP        -0.4390
     29 C2         -0.1096    5.3242    2.2908 C.ar      1 ATP         0.5691
     30 N3          0.4468    4.1904    1.9960 N.ar      1 ATP        -0.4283
     31 C4          0.0631    3.6855    0.7877 C.ar      1 ATP         0.2226
     32 HOB2       -1.0843   -0.6179   -6.5405 H         1 ATP         0.2010
     33 H5'1        1.2163   -0.0770   -2.0471 H         1 ATP        -0.0393
     34 H5'2        2.4655   -1.3443   -2.1563 H         1 ATP        -0.0393
     35 H4'         3.8040   -0.1399   -0.4044 H         1 ATP        -0.0393
     36 H3'         1.6768   -1.7637    0.2732 H         1 ATP        -0.0393
     37 HO3'        2.2231   -1.2979    2.3952 H         1 ATP         0.2010
     38 H2'         0.0002   -0.0084   -0.0014 H         1 ATP        -0.0393
     39 HO2'       -0.6132    0.5577    2.1063 H         1 ATP         0.2010
     40 H1'         1.7718    1.9211    1.6015 H         1 ATP        -0.0393
     41 H8         -0.2991    1.7413   -1.9611 H         1 ATP         0.0000
     42 HN61       -2.5167    5.6603   -1.4447 H         1 ATP         0.2048
     43 HN62       -2.7159    6.9882   -0.3270 H         1 ATP         0.2048
     44 H2          0.1059    5.8491    3.2340 H         1 ATP        -0.1292
     45 H45        -1.4532    6.9099    1.7401 H         1 ATP         0.2048
@<TRIPOS>BOND
     1    1    2 2
     2    1    3 1
     3    1    4 1
     4    1    8 1
     5    5    6 2
     6    5    7 1
     7    5    8 1
     8    5   12 1
     9    7   32 1
    10    9   10 2
    11    9   11 1
    12    9   12 1
    13    9   13 1
    14   13   14 1
    15   14   15 1
    16   14   33 1
    17   14   34 1
    18   15   16 1
    19   15   17 1
    20   15   35 1
    21   16   21 1
    22   17   18 1
    23   17   19 1
    24   17   36 1
    25   18   37 1
    26   19   20 1
    27   19   21 1
    28   19   38 1
    29   20   39 1
    30   21   22 1
    31   21   40 1
    32   22   23 ar
    33   22   31 ar
    34   23   24 ar
    35   23   41 1
    36   24   25 ar
    37   25   26 ar
    38   25   31 ar
    39   26   27 1
    40   26   28 ar
    41   27   42 1
    42   27   43 1
    43   28   29 ar
    44   28   45 1
    45   29   30 ar
    46   29   44 1
    47   30   31 ar
@<TRIPOS>SUBSTRUCTURE
     1 ATP         1 GROUP 0 A     ****
@<TRIPOS>MOLECULE
[[[5-(6-amino-1,8-dihydropurine-6,8-diylium-7-id-9-yl)-3,4-dihydroxy-tetrahydrofuran-2-yl]methoxy-oxido-phosphoryl]oxy-hydroxy-phosphoryl] phosphate
   45    47     1     0     0
SMALL
USER_CHARGES

@<TRIPOS>ATOM
      1 PG          5.6759   -2.4131   -6.9402 P.3       1 ATP        -1.1921
      2 O1G         6.2915   -1.3829   -7.8815 O.co2     1 ATP         0.3195
      3 O2G         5.6083   -3.8244   -7.5145 O.co2     1 ATP         0.3195
      4 O3G         6.1944   -2.3447   -5.5075 O.co2     1 ATP         0.3195
      5 PB          3.4343   -0.5817   -6.2929 P.3       1 ATP        -0.9715
      6 O1B         4.1612    0.6651   -6.7020 O.2       1 ATP         0.2707
      7 O2B         1.9084   -0.6852   -6.8174 O.3       1 ATP         0.0326
      8 O3B         4.0955   -1.9595   -6.8230 O.3       1 ATP         0.4672
      9 PA          2.5993   -2.0261   -3.8600 P.3       1 ATP        -1.1062
     10 O1A         3.3825   -3.2974   -4.1048 O.co2     1 ATP         0.3195
     11 O2A         1.1056   -1.9693   -4.0954 O.co2     1 ATP         0.3195
     12 O3A         3.3027   -0.8168   -4.7001 O.3       1 ATP         0.4672
     13 O5'         2.9216   -1.4836   -2.3516 O.3       1 ATP         0.1618
     14 C5'         2.2816   -0.2918   -1.9206 C.3       1 ATP         0.1504
     15 C4'         2.7248    0.0226   -0.4980 C.3       1 ATP         0.1111
     16 O4'         2.4697    1.4219   -0.2462 O.3       1 ATP        -0.1436
     17 C3'         1.9404   -0.7419    0.5596 C.3       1 ATP         0.1111
     18 O3'         2.7418   -0.8086    1.7389 O.3       1 ATP        -0.2728
     19 C2'         0.7477    0.1630    0.7858 C.3       1 ATP         0.1111
     20 O2'         0.1373   -0.0577    2.0407 O.3       1 ATP        -0.2728
     21 C1'         1.3733    1.5427    0.6747 C.3       1 ATP         0.2693
     22 N9          0.4520    2.5240    0.1767 N.pl3     1 ATP        -0.3222
     23 C8         -0.3054    2.4845   -1.1576 C.ar      1 ATP         0.1640
     24 N7         -1.0755    3.5806   -1.2691 N.2       1 ATP        -0.1640
     25 C5         -0.8043    4.2306   -0.0942 C.ar      1 ATP         0.0820
     26 C6         -1.4324    5.5335    0.2646 C.ar      1 ATP         0.1640
     27 N6         -2.2885    6.1054   -0.5675 N.pl3     1 ATP        -0.4916
     28 N1         -1.0537    6.0229    1.4478 N.pl3     1 ATP        -0.4390
     29 C2         -0.1096    5.3242    2.2908 C.ar      1 ATP         0.5691
     30 N3          0.4468    4.1904    1.9960 N.ar      1 ATP        -0.4283
     31 C4          0.0631    3.6855    0.7877 C.ar      1 ATP         0.2226
     32 HOB2        1.2665    0.0056   -6.5470 H         1 ATP         0.2010
     33 H5'1        2.5589    0.5217   -2.5976 H         1 ATP        -0.0393
     34 H5'2        1.1982   -0.4388   -1.9617 H         1 ATP        -0.0393
     35 H4'         3.8040   -0.1399   -0.4044 H         1 ATP        -0.0393
     36 H3'         1.6768   -1.7637    0.2732 H         1 ATP        -0.0393
     37 HO3'        2.2231   -1.2979    2.3952 H         1 ATP         0.2010
     38 H2'         0.0002   -0.0084   -0.0014 H         1 ATP        -0.0393
     39 HO2'       -0.6132    0.5577    2.1063 H         1 ATP         0.2010
     40 H1'         1.7718    1.9211    1.6015 H         1 ATP        -0.0393
     41 H8         -0.2991    1.7413   -1.9611 H         1 ATP         0.0000
     42 HN61       -2.5167    5.6603   -1.4447 H         1 ATP         0.2048
     43 HN62       -2.7159    6.9882   -0.3270 H         1 ATP         0.2048
     44 H2          0.1059    5.8491    3.2340 H         1 ATP        -0.1292
     45 H45        -1.4532    6.9099    1.7401 H         1 ATP         0.2048
@<TRIPOS>BOND
     1    1    2 2
     2    1    3 1
     3    1    4 1
     4    1    8 1
     5    5    6 2
     6    5    7 1
     7    5    8 1
     8    5   12 1
     9    7   32 1
    10    9   10 2
    11    9   11 1
    12    9   12 1
    13    9   13 1
    14   13   14 1
    15   14   15 1
    16   14   33 1
    17   14   34 1
    18   15   16 1
    19   15   17 1
    20   15   35 1
    21   16   21 1
    22   17   18 1
    23   17   19 1
    24   17   36 1
    25   18   37 1
    26   19   20 1
    27   19   21 1
    28   19   38 1
    29   20   39 1
    30   21   22 1
    31   21   40 1
    32   22   23 ar
    33   22   31 ar
    34   23   24 ar
    35   23   41 1
    36   24   25 ar
    37   25   26 ar
    38   25   31 ar
    39   26   27 1
    40   26   28 ar
    41   27   42 1
    42   27   43 1
    43   28   29 ar
    44   28   45 1
    45   29   30 ar
    46   29   44 1
    47   30   31 ar
@<TRIPOS>SUBSTRUCTURE
     1 ATP         1 GROUP 0 A     ****
@<TRIPOS>MOLECULE
[[[5-(6-amino-1,8-dihydropurine-6,8-diylium-7-id-9-yl)-3,4-dihydroxy-tetrahydrofuran-2-yl]methoxy-oxido-phosphoryl]oxy-hydroxy-phosphoryl] phosphate
   45    47     1     0     0
SMALL
USER_CHARGES

@<TRIPOS>ATOM
      1 PG          6.8480   -4.8115   -2.1051 P.3       1 ATP        -1.1921
      2 O1G         8.0409   -4.4697   -2.9920 O.co2     1 ATP         0.3195
      3 O2G         6.3243   -6.2333   -2.2806 O.co2     1 ATP         0.3195
      4 O3G         6.9997   -4.3755   -0.6515 O.co2     1 ATP         0.3195
      5 PB          5.5095   -2.2592   -2.8063 P.3       1 ATP        -0.9715
      6 O1B         5.6030   -1.5219   -1.5032 O.2       1 ATP         0.2707
      7 O2B         6.6564   -1.8882   -3.8839 O.3       1 ATP         0.0326
      8 O3B         5.6283   -3.8679   -2.6876 O.3       1 ATP         0.4672
      9 PA          3.4597   -0.6852   -4.2287 P.3       1 ATP        -1.1062
     10 O1A         2.0882   -1.0306   -4.7667 O.co2     1 ATP         0.3195
     11 O2A         4.4837    0.0205   -5.0906 O.co2     1 ATP         0.3195
     12 O3A         4.1355   -2.0436   -3.6281 O.3       1 ATP         0.4672
     13 O5'         3.2903    0.1346   -2.8241 O.3       1 ATP         0.1618
     14 C5'         2.2816   -0.2918   -1.9206 C.3       1 ATP         0.1504
     15 C4'         2.7248    0.0226   -0.4980 C.3       1 ATP         0.1111
     16 O4'         2.4697    1.4219   -0.2462 O.3       1 ATP        -0.1436
     17 C3'         1.9404   -0.7419    0.5596 C.3       1 ATP         0.1111
     18 O3'         2.7418   -0.8086    1.7389 O.3       1 ATP        -0.2728
     19 C2'         0.7477    0.1630    0.7858 C.3       1 ATP         0.1111
     20 O2'         0.1373   -0.0577    2.0407 O.3       1 ATP        -0.2728
     21 C1'         1.3733    1.5427    0.6747 C.3       1 ATP         0.2693
     22 N9          0.4520    2.5240    0.1767 N.pl3     1 ATP        -0.3222
     23 C8          0.5793    3.3338   -1.1209 C.ar      1 ATP         0.1640
     24 N7         -0.4807    4.1508   -1.2458 N.2       1 ATP        -0.1640
     25 C5         -1.1921    3.8572   -0.1126 C.ar      1 ATP         0.0820
     26 C6         -2.4855    4.5203    0.2163 C.ar      1 ATP         0.1640
     27 N6         -2.9873    5.4319   -0.6020 N.pl3     1 ATP        -0.4916
     28 N1         -3.0414    4.1119    1.3596 N.pl3     1 ATP        -0.4390
     29 C2         -2.4169    3.1071    2.1904 C.ar      1 ATP         0.5691
     30 N3         -1.2928    2.5191    1.9210 N.ar      1 ATP        -0.4283
     31 C4         -0.7202    2.9326    0.7534 C.ar      1 ATP         0.2226
     32 HOB2        6.7316   -0.9613   -4.1958 H         1 ATP         0.2010
     33 H5'1        1.3514    0.2330   -2.1577 H         1 ATP        -0.0393
     34 H5'2        2.1280   -1.3678   -2.0460 H         1 ATP        -0.0393
     35 H4'         3.8040   -0.1399   -0.4044 H         1 ATP        -0.0393
     36 H3'         1.6768   -1.7637    0.2732 H         1 ATP        -0.0393
     37 HO3'        2.2231   -1.2979    2.3952 H         1 ATP         0.2010
     38 H2'         0.0002   -0.0084   -0.0014 H         1 ATP        -0.0393
     39 HO2'       -0.1554   -0.9852    2.0577 H         1 ATP         0.2010
     40 H1'         1.7718    1.9211    1.6015 H         1 ATP        -0.0393
     41 H8          1.3565    3.3309   -1.8916 H         1 ATP         0.0000
     42 HN61       -2.4952    5.6785   -1.4487 H         1 ATP         0.2048
     43 HN62       -3.8637    5.8828   -0.3819 H         1 ATP         0.2048
     44 H2         -2.9911    2.8734    3.1000 H         1 ATP        -0.1292
     45 H45        -3.9253    4.5332    1.6302 H         1 ATP         0.2048
@<TRIPOS>BOND
     1    1    2 2
     2    1    3 1
     3    1    4 1
     4    1    8 1
     5    5    6 2
     6    5    7 1
     7    5    8 1
     8    5   12 1
     9    7   32 1
    10    9   10 2
    11    9   11 1
    12    9   12 1
    13    9   13 1
    14   13   14 1
    15   14   15 1
    16   14   33 1
    17   14   34 1
    18   15   16 1
    19   15   17 1
    20   15   35 1
    21   16   21 1
    22   17   18 1
    23   17   19 1
    24   17   36 1
    25   18   37 1
    26   19   20 1
    27   19   21 1
    28   19   38 1
    29   20   39 1
    30   21   22 1
    31   21   40 1
    32   22   23 ar
    33   22   31 ar
    34   23   24 ar
    35   23   41 1
    36   24   25 ar
    37   25   26 ar
    38   25   31 ar
    39   26   27 1
    40   26   28 ar
    41   27   42 1
    42   27   43 1
    43   28   29 ar
    44   28   45 1
    45   29   30 ar
    46   29   44 1
    47   30   31 ar
@<TRIPOS>SUBSTRUCTURE
     1 ATP         1 GROUP 0 A     ****
@<TRIPOS>MOLECULE
[[[5-(6-amino-1,8-dihydropurine-6,8-diylium-7-id-9-yl)-3,4-dihydroxy-tetrahydrofuran-2-yl]methoxy-oxido-phosphoryl]oxy-hydroxy-phosphoryl] phosphate
   45    47     1     0     0
SMALL
USER_CHARGES

@<TRIPOS>ATOM
      1 PG         -0.6786    2.8786   -6.8160 P.3       1 ATP        -1.1921
      2 O1G         0.2843    3.4973   -7.8241 O.co2     1 ATP         0.3195
      3 O2G        -1.2692    3.8734   -5.8222 O.co2     1 ATP         0.3195
      4 O3G        -1.6987    1.9227   -7.4258 O.co2     1 ATP         0.3195
      5 PB          1.2029    0.6475   -6.2867 P.3       1 ATP        -0.9715
      6 O1B         0.4652   -0.5004   -6.9102 O.2       1 ATP         0.2707
      7 O2B         2.3434    1.3130   -7.2198 O.3       1 ATP         0.0326
      8 O3B         0.2782    1.9122   -5.8844 O.3       1 ATP         0.4672
      9 PA          2.8924    1.2553   -3.9461 P.3       1 ATP        -1.1062
     10 O1A         1.9883    2.2894   -3.3114 O.co2     1 ATP         0.3195
     11 O2A         4.1399    1.6630   -4.6993 O.co2     1 ATP         0.3195
     12 O3A         1.9880    0.3054   -4.9170 O.3       1 ATP         0.4672
     13 O5'         3.2903    0.1346   -2.8241 O.3       1 ATP         0.1618
     14 C5'         2.2816   -0.2918   -1.9206 C.3       1 ATP         0.1504
     15 C4'         2.7248    0.0226   -0.4980 C.3       1 ATP         0.1111
     16 O4'         2.4697    1.4219   -0.2462 O.3       1 ATP        -0.1436
     17 C3'         1.9404   -0.7419    0.5596 C.3       1 ATP         0.1111
     18 O3'         2.7418   -0.8086    1.7389 O.3       1 ATP        -0.2728
     19 C2'         0.7477    0.1630    0.7858 C.3       1 ATP         0.1111
     20 O2'         0.1373   -0.0577    2.0407 O.3       1 ATP        -0.2728
     21 C1'         1.3733    1.5427    0.6747 C.3       1 ATP         0.2693
     22 N9          0.4520    2.5240    0.1767 N.pl3     1 ATP        -0.3222
     23 C8         -0.3054    2.4845   -1.1576 C.ar      1 ATP         0.1640
     24 N7         -1.0755    3.5806   -1.2691 N.2       1 ATP        -0.1640
     25 C5         -0.8043    4.2306   -0.0942 C.ar      1 ATP         0.0820
     26 C6         -1.4324    5.5335    0.2646 C.ar      1 ATP         0.1640
     27 N6         -2.2885    6.1054   -0.5675 N.pl3     1 ATP        -0.4916
     28 N1         -1.0537    6.0229    1.4478 N.pl3     1 ATP        -0.4390
     29 C2         -0.1096    5.3242    2.2908 C.ar      1 ATP         0.5691
     30 N3          0.4468    4.1904    1.9960 N.ar      1 ATP        -0.4283
     31 C4          0.0631    3.6855    0.7877 C.ar      1 ATP         0.2226
     32 HOB2        2.0832    1.7012   -8.0822 H         1 ATP         0.2010
     33 H5'1        1.3514    0.2330   -2.1577 H         1 ATP        -0.0393
     34 H5'2        2.1280   -1.3678   -2.0460 H         1 ATP        -0.0393
     35 H4'         3.8040   -0.1399   -0.4044 H         1 ATP        -0.0393
     36 H3'         1.6768   -1.7637    0.2732 H         1 ATP        -0.0393
     37 HO3'        2.2231   -1.2979    2.3952 H         1 ATP         0.2010
     38 H2'         0.0002   -0.0084   -0.0014 H         1 ATP        -0.0393
     39 HO2'       -0.1554   -0.9852    2.0577 H         1 ATP         0.2010
     40 H1'         1.7718    1.9211    1.6015 H         1 ATP        -0.0393
     41 H8         -0.2991    1.7413   -1.9611 H         1 ATP         0.0000
     42 HN61       -2.5167    5.6603   -1.4447 H         1 ATP         0.2048
     43 HN62       -2.7159    6.9882   -0.3270 H         1 ATP         0.2048
     44 H2          0.1059    5.8491    3.2340 H         1 ATP        -0.1292
     45 H45        -1.4532    6.9099    1.7401 H         1 ATP         0.2048
@<TRIPOS>BOND
     1    1    2 2
     2    1    3 1
     3    1    4 1
     4    1    8 1
     5    5    6 2
     6    5    7 1
     7    5    8 1
     8    5   12 1
     9    7   32 1
    10    9   10 2
    11    9   11 1
    12    9   12 1
    13    9   13 1
    14   13   14 1
    15   14   15 1
    16   14   33 1
    17   14   34 1
    18   15   16 1
    19   15   17 1
    20   15   35 1
    21   16   21 1
    22   17   18 1
    23   17   19 1
    24   17   36 1
    25   18   37 1
    26   19   20 1
    27   19   21 1
    28   19   38 1
    29   20   39 1
    30   21   22 1
    31   21   40 1
    32   22   23 ar
    33   22   31 ar
    34   23   24 ar
    35   23   41 1
    36   24   25 ar
    37   25   26 ar
    38   25   31 ar
    39   26   27 1
    40   26   28 ar
    41   27   42 1
    42   27   43 1
    43   28   29 ar
    44   28   45 1
    45   29   30 ar
    46   29   44 1
    47   30   31 ar
@<TRIPOS>SUBSTRUCTURE
     1 ATP         1 GROUP 0 A     ****
@<TRIPOS>MOLECULE
[[[5-(6-amino-1,8-dihydropurine-6,8-diylium-7-id-9-yl)-3,4-dihydroxy-tetrahydrofuran-2-yl]methoxy-oxido-phosphoryl]oxy-hydroxy-phosphoryl] phosphate
   45    47     1     0     0
SMALL
USER_CHARGES

@<TRIPOS>ATOM
      1 PG         -0.9731   -4.9367   -6.2225 P.3       1 ATP        -1.1921
      2 O1G        -2.3354   -4.9062   -5.5374 O.co2     1 ATP         0.3195
      3 O2G        -0.2263   -6.2581   -6.0726 O.co2     1 ATP         0.3195
      4 O3G        -0.9692   -4.3730   -7.6397 O.co2     1 ATP         0.3195
      5 PB         -0.2687   -2.2875   -5.0896 P.3       1 ATP        -0.9715
      6 O1B        -0.2892   -1.4358   -6.3243 O.2       1 ATP         0.2707
      7 O2B        -1.6225   -2.2420   -4.2068 O.3       1 ATP         0.0326
      8 O3B        -0.0621   -3.8693   -5.3576 O.3       1 ATP         0.4672
      9 PA          1.2481   -2.6085   -2.5799 P.3       1 ATP        -1.1062
     10 O1A         1.7344   -4.0210   -2.8206 O.co2     1 ATP         0.3195
     11 O2A         0.1125   -2.3243   -1.6211 O.co2     1 ATP         0.3195
     12 O3A         0.8903   -1.9331   -4.0217 O.3       1 ATP         0.4672
     13 O5'         2.5245   -1.6648   -2.1878 O.3       1 ATP         0.1618
     14 C5'         2.2816   -0.2918   -1.9206 C.3       1 ATP         0.1504
     15 C4'         2.7248    0.0226   -0.4980 C.3       1 ATP         0.1111
     16 O4'         2.4697    1.4219   -0.2462 O.3       1 ATP        -0.1436
     17 C3'         1.9404   -0.7419    0.5596 C.3       1 ATP         0.1111
     18 O3'         2.7418   -0.8086    1.7389 O.3       1 ATP        -0.2728
     19 C2'         0.7477    0.1630    0.7858 C.3       1 ATP         0.1111
     20 O2'         0.1373   -0.0577    2.0407 O.3       1 ATP        -0.2728
     21 C1'         1.3733    1.5427    0.6747 C.3       1 ATP         0.2693
     22 N9          0.4520    2.5240    0.1767 N.pl3     1 ATP        -0.3222
     23 C8          0.1798    2.8712   -1.2933 C.ar      1 ATP         0.1640
     24 N7         -0.7494    3.8400   -1.3610 N.2       1 ATP        -0.1640
     25 C5         -1.0173    4.0603   -0.0358 C.ar      1 ATP         0.0820
     26 C6         -2.0105    5.0717    0.4241 C.ar      1 ATP         0.1640
     27 N6         -2.6723    5.7982   -0.4628 N.pl3     1 ATP        -0.4916
     28 N1         -2.1445    5.1522    1.7502 N.pl3     1 ATP        -0.4390
     29 C2         -1.3755    4.3143    2.6426 C.ar      1 ATP         0.5691
     30 N3         -0.5075    3.4292    2.2616 N.ar      1 ATP        -0.4283
     31 C4         -0.3667    3.3425    0.9070 C.ar      1 ATP         0.2226
     32 HOB2       -1.9198   -1.3826   -3.8391 H         1 ATP         0.2010
     33 H5'1        2.8432    0.3119   -2.6398 H         1 ATP        -0.0393
     34 H5'2        1.2128   -0.0927   -2.0428 H         1 ATP        -0.0393
     35 H4'         3.8040   -0.1399   -0.4044 H         1 ATP        -0.0393
     36 H3'         1.6768   -1.7637    0.2732 H         1 ATP        -0.0393
     37 HO3'        2.2231   -1.2979    2.3952 H         1 ATP         0.2010
     38 H2'         0.0002   -0.0084   -0.0014 H         1 ATP        -0.0393
     39 HO2'       -0.6132    0.5577    2.1063 H         1 ATP         0.2010
     40 H1'         1.7718    1.9211    1.6015 H         1 ATP        -0.0393
     41 H8          0.6089    2.4651   -2.2147 H         1 ATP         0.0000
     42 HN61       -2.5055    5.6680   -1.4503 H         1 ATP         0.2048
     43 HN62       -3.3462    6.4841   -0.1542 H         1 ATP         0.2048
     44 H2         -1.5932    4.4937    3.7066 H         1 ATP        -0.1292
     45 H45        -2.8098    5.8270    2.1160 H         1 ATP         0.2048
@<TRIPOS>BOND
     1    1    2 2
     2    1    3 1
     3    1    4 1
     4    1    8 1
     5    5    6 2
     6    5    7 1
     7    5    8 1
     8    5   12 1
     9    7   32 1
    10    9   10 2
    11    9   11 1
    12    9   12 1
    13    9   13 1
    14   13   14 1
    15   14   15 1
    16   14   33 1
    17   14   34 1
    18   15   16 1
    19   15   17 1
    20   15   35 1
    21   16   21 1
    22   17   18 1
    23   17   19 1
    24   17   36 1
    25   18   37 1
    26   19   20 1
    27   19   21 1
    28   19   38 1
    29   20   39 1
    30   21   22 1
    31   21   40 1
    32   22   23 ar
    33   22   31 ar
    34   23   24 ar
    35   23   41 1
    36   24   25 ar
    37   25   26 ar
    38   25   31 ar
    39   26   27 1
    40   26   28 ar
    41   27   42 1
    42   27   43 1
    43   28   29 ar
    44   28   45 1
    45   29   30 ar
    46   29   44 1
    47   30   31 ar
@<TRIPOS>SUBSTRUCTURE
     1 ATP         1 GROUP 0 A     ****
@<TRIPOS>MOLECULE
[[[5-(6-amino-1,8-dihydropurine-6,8-diylium-7-id-9-yl)-3,4-dihydroxy-tetrahydrofuran-2-yl]methoxy-oxido-phosphoryl]oxy-hydroxy-phosphoryl] phosphate
   45    47     1     0     0
SMALL
USER_CHARGES

@<TRIPOS>ATOM
      1 PG          1.2093    3.6346   -6.8855 P.3       1 ATP        -1.1921
      2 O1G        -0.2033    4.1736   -7.0865 O.co2     1 ATP         0.3195
      3 O2G         2.1131    3.7766   -8.1059 O.co2     1 ATP         0.3195
      4 O3G         1.8611    4.0534   -5.5719 O.co2     1 ATP         0.3195
      5 PB          0.1582    1.1489   -5.6549 P.3       1 ATP        -0.9715
      6 O1B        -1.1687    1.7394   -5.2792 O.2       1 ATP         0.2707
      7 O2B         0.0854   -0.3182   -6.3306 O.3       1 ATP         0.0326
      8 O3B         1.0025    2.0060   -6.7360 O.3       1 ATP         0.4672
      9 PA          2.7180    0.3539   -4.4230 P.3       1 ATP        -1.1062
     10 O1A         3.6120    1.3016   -5.1928 O.co2     1 ATP         0.3195
     11 O2A         2.6578   -1.1184   -4.7669 O.co2     1 ATP         0.3195
     12 O3A         1.1997    0.9517   -4.4359 O.3       1 ATP         0.4672
     13 O5'         3.0213    0.5153   -2.8245 O.3       1 ATP         0.1618
     14 C5'         2.2816   -0.2918   -1.9206 C.3       1 ATP         0.1504
     15 C4'         2.7248    0.0226   -0.4980 C.3       1 ATP         0.1111
     16 O4'         2.4697    1.4219   -0.2462 O.3       1 ATP        -0.1436
     17 C3'         1.9404   -0.7419    0.5596 C.3       1 ATP         0.1111
     18 O3'         2.7418   -0.8086    1.7389 O.3       1 ATP        -0.2728
     19 C2'         0.7477    0.1630    0.7858 C.3       1 ATP         0.1111
     20 O2'         0.1373   -0.0577    2.0407 O.3       1 ATP        -0.2728
     21 C1'         1.3733    1.5427    0.6747 C.3       1 ATP         0.2693
     22 N9          0.4520    2.5240    0.1767 N.pl3     1 ATP        -0.3222
     23 C8         -1.0247    2.3053   -0.1800 C.ar      1 ATP         0.1640
     24 N7         -1.5580    3.4612   -0.6116 N.2       1 ATP        -0.1640
     25 C5         -0.4873    4.3110   -0.5222 C.ar      1 ATP         0.0820
     26 C6         -0.5728    5.7505   -0.8981 C.ar      1 ATP         0.1640
     27 N6         -1.7163    6.2514   -1.3385 N.pl3     1 ATP        -0.4916
     28 N1          0.5667    6.4301   -0.7475 N.pl3     1 ATP        -0.4390
     29 C2          1.7697    5.7952   -0.2579 C.ar      1 ATP         0.5691
     30 N3          1.8633    4.5450    0.0742 N.ar      1 ATP        -0.4283
     31 C4          0.7014    3.8457   -0.0776 C.ar      1 ATP         0.2226
     32 HOB2       -0.3125   -1.0556   -5.8206 H         1 ATP         0.2010
     33 H5'1        1.2163   -0.0770   -2.0471 H         1 ATP        -0.0393
     34 H5'2        2.4655   -1.3443   -2.1563 H         1 ATP        -0.0393
     35 H4'         3.8040   -0.1399   -0.4044 H         1 ATP        -0.0393
     36 H3'         1.6768   -1.7637    0.2732 H         1 ATP        -0.0393
     37 HO3'        2.2231   -1.2979    2.3952 H         1 ATP         0.2010
     38 H2'         0.0002   -0.0084   -0.0014 H         1 ATP        -0.0393
     39 HO2'       -0.1554   -0.9852    2.0577 H         1 ATP         0.2010
     40 H1'         1.7718    1.9211    1.6015 H         1 ATP        -0.0393
     41 H8         -1.6458    1.4054   -0.1318 H         1 ATP         0.0000
     42 HN61       -2.5307    5.6598   -1.4199 H         1 ATP         0.2048
     43 HN62       -1.7773    7.2266   -1.5938 H         1 ATP         0.2048
     44 H2          2.6279    6.4808   -0.1872 H         1 ATP        -0.1292
     45 H45         0.5621    7.4166   -0.9900 H         1 ATP         0.2048
@<TRIPOS>BOND
     1    1    2 2
     2    1    3 1
     3    1    4 1
     4    1    8 1
     5    5    6 2
     6    5    7 1
     7    5    8 1
     8    5   12 1
     9    7   32 1
    10    9   10 2
    11    9   11 1
    12    9   12 1
    13    9   13 1
    14   13   14 1
    15   14   15 1
    16   14   33 1
    17   14   34 1
    18   15   16 1
    19   15   17 1
    20   15   35 1
    21   16   21 1
    22   17   18 1
    23   17   19 1
    24   17   36 1
    25   18   37 1
    26   19   20 1
    27   19   21 1
    28   19   38 1
    29   20   39 1
    30   21   22 1
    31   21   40 1
    32   22   23 ar
    33   22   31 ar
    34   23   24 ar
    35   23   41 1
    36   24   25 ar
    37   25   26 ar
    38   25   31 ar
    39   26   27 1
    40   26   28 ar
    41   27   42 1
    42   27   43 1
    43   28   29 ar
    44   28   45 1
    45   29   30 ar
    46   29   44 1
    47   30   31 ar
@<TRIPOS>SUBSTRUCTURE
     1 ATP         1 GROUP 0 A     ****
@<TRIPOS>MOLECULE
[[[5-(6-amino-1,8-dihydropurine-6,8-diylium-7-id-9-yl)-3,4-dihydroxy-tetrahydrofuran-2-yl]methoxy-oxido-phosphoryl]oxy-hydroxy-phosphoryl] phosphate
   45    47     1     0     0
SMALL
USER_CHARGES

@<TRIPOS>ATOM
      1 PG         -6.0929   -3.4345    3.3805 P.3       1 ATP        -1.1921
      2 O1G        -6.5773   -3.5601    4.8213 O.co2     1 ATP         0.3195
      3 O2G        -7.1872   -3.0740    2.3811 O.co2     1 ATP         0.3195
      4 O3G        -4.8069   -2.6308    3.2173 O.co2     1 ATP         0.3195
      5 PB         -4.5666   -5.9681    3.6017 P.3       1 ATP        -0.9715
      6 O1B        -4.4882   -5.9437    5.0997 O.2       1 ATP         0.2707
      7 O2B        -4.9575   -7.4008    2.9622 O.3       1 ATP         0.0326
      8 O3B        -5.6680   -4.9713    2.9619 O.3       1 ATP         0.4672
      9 PA         -1.7237   -6.2523    2.8671 P.3       1 ATP        -1.1062
     10 O1A        -1.8157   -7.6285    2.2448 O.co2     1 ATP         0.3195
     11 O2A        -1.1386   -6.0554    4.2486 O.co2     1 ATP         0.3195
     12 O3A        -3.2051   -5.5689    2.8294 O.3       1 ATP         0.4672
     13 O5'        -0.9724   -5.2440    1.8220 O.3       1 ATP         0.1618
     14 C5'        -0.7840   -3.8935    2.2172 C.3       1 ATP         0.1504
     15 C4'        -0.0724   -3.1466    1.1027 C.3       1 ATP         0.1111
     16 O4'        -0.8674   -3.1929   -0.0945 O.3       1 ATP        -0.1436
     17 C3'         0.1338   -1.6715    1.4027 C.3       1 ATP         0.1111
     18 O3'         1.2893   -1.4445    2.1808 O.3       1 ATP        -0.2728
     19 C2'         0.2158   -1.0724    0.0128 C.3       1 ATP         0.1111
     20 O2'         1.5141   -1.2448   -0.5513 O.3       1 ATP        -0.2728
     21 C1'        -0.7897   -1.9176   -0.7583 C.3       1 ATP         0.2693
     22 N9         -2.1040   -1.3333   -0.7704 N.pl3     1 ATP        -0.3222
     23 C8         -3.2124   -1.5345    0.2719 C.ar      1 ATP         0.1640
     24 N7         -4.2964   -0.8234   -0.0828 N.2       1 ATP        -0.1640
     25 C5         -3.8754   -0.2386   -1.2478 C.ar      1 ATP         0.0820
     26 C6         -4.7432    0.6719   -2.0470 C.ar      1 ATP         0.1640
     27 N6         -5.9725    0.9415   -1.6366 N.pl3     1 ATP        -0.4916
     28 N1         -4.1703    1.1517   -3.1536 N.pl3     1 ATP        -0.4390
     29 C2         -2.8174    0.7994   -3.5215 C.ar      1 ATP         0.5691
     30 N3         -2.0475    0.0097   -2.8393 N.ar      1 ATP        -0.4283
     31 C4         -2.6278   -0.4836   -1.7071 C.ar      1 ATP         0.2226
     32 HOB2       -4.3751   -8.1711    3.1339 H         1 ATP         0.2010
     33 H5'1       -1.7618   -3.4448    2.4164 H         1 ATP        -0.0393
     34 H5'2       -0.1874   -3.8744    3.1341 H         1 ATP        -0.0393
     35 H4'         0.8871   -3.6466    0.8809 H         1 ATP        -0.0393
     36 H3'        -0.7370   -1.2334    1.9869 H         1 ATP        -0.0393
     37 HO3'        1.3407   -0.4871    2.3218 H         1 ATP         0.2010
     38 H2'        -0.0343   -0.0280    0.0196 H         1 ATP        -0.0393
     39 HO2'        2.1443   -0.7955    0.0378 H         1 ATP         0.2010
     40 H1'        -0.5175   -2.1046   -1.7826 H         1 ATP        -0.0393
     41 H8         -3.2310   -2.1319    1.1889 H         1 ATP         0.0000
     42 HN61       -6.3230    0.5316   -0.7829 H         1 ATP         0.2048
     43 HN62       -6.5628    1.5584   -2.1760 H         1 ATP         0.2048
     44 H2         -2.4822    1.2710   -4.4579 H         1 ATP        -0.1292
     45 H45        -4.7200    1.7780   -3.7346 H         1 ATP         0.2048
@<TRIPOS>BOND
     1    1    2 2
     2    1    3 1
     3    1    4 1
     4    1    8 1
     5    5    6 2
     6    5    7 1
     7    5    8 1
     8    5   12 1
     9    7   32 1
    10    9   10 2
    11    9   11 1
    12    9   12 1
    13    9   13 1
    14   13   14 1
    15   14   15 1
    16   14   33 1
    17   14   34 1
    18   15   16 1
    19   15   17 1
    20   15   35 1
    21   16   21 1
    22   17   18 1
    23   17   19 1
    24   17   36 1
    25   18   37 1
    26   19   20 1
    27   19   21 1
    28   19   38 1
    29   20   39 1
    30   21   22 1
    31   21   40 1
    32   22   23 ar
    33   22   31 ar
    34   23   24 ar
    35   23   41 1
    36   24   25 ar
    37   25   26 ar
    38   25   31 ar
    39   26   27 1
    40   26   28 ar
    41   27   42 1
    42   27   43 1
    43   28   29 ar
    44   28   45 1
    45   29   30 ar
    46   29   44 1
    47   30   31 ar
@<TRIPOS>SUBSTRUCTURE
     1 ATP         1 GROUP 0 A     ****
@<TRIPOS>MOLECULE
[[[5-(6-amino-1,8-dihydropurine-6,8-diylium-7-id-9-yl)-3,4-dihydroxy-tetrahydrofuran-2-yl]methoxy-oxido-phosphoryl]oxy-hydroxy-phosphoryl] phosphate
   45    47     1     0     0
SMALL
USER_CHARGES

@<TRIPOS>ATOM
      1 PG          0.8817   -3.2258   -6.1309 P.3       1 ATP        -1.1921
      2 O1G         1.4795   -4.5731   -6.5228 O.co2     1 ATP         0.3195
      3 O2G        -0.3087   -2.7974   -6.9828 O.co2     1 ATP         0.3195
      4 O3G         0.6763   -3.0415   -4.6309 O.co2     1 ATP         0.3195
      5 PB          3.5769   -1.9959   -5.9860 P.3       1 ATP        -0.9715
      6 O1B         4.3049   -3.2957   -5.8093 O.2       1 ATP         0.2707
      7 O2B         4.2436   -0.9800   -7.0526 O.3       1 ATP         0.0326
      8 O3B         2.0557   -2.1352   -6.5178 O.3       1 ATP         0.4672
      9 PA          2.7180    0.3539   -4.4230 P.3       1 ATP        -1.1062
     10 O1A         1.2273    0.1956   -4.6287 O.co2     1 ATP         0.3195
     11 O2A         3.5063    1.3990   -5.1820 O.co2     1 ATP         0.3195
     12 O3A         3.4276   -1.0977   -4.6517 O.3       1 ATP         0.4672
     13 O5'         3.0213    0.5153   -2.8245 O.3       1 ATP         0.1618
     14 C5'         2.2816   -0.2918   -1.9206 C.3       1 ATP         0.1504
     15 C4'         2.7248    0.0226   -0.4980 C.3       1 ATP         0.1111
     16 O4'         2.4697    1.4219   -0.2462 O.3       1 ATP        -0.1436
     17 C3'         1.9404   -0.7419    0.5596 C.3       1 ATP         0.1111
     18 O3'         2.7418   -0.8086    1.7389 O.3       1 ATP        -0.2728
     19 C2'         0.7477    0.1630    0.7858 C.3       1 ATP         0.1111
     20 O2'         0.1373   -0.0577    2.0407 O.3       1 ATP        -0.2728
     21 C1'         1.3733    1.5427    0.6747 C.3       1 ATP         0.2693
     22 N9          0.4520    2.5240    0.1767 N.pl3     1 ATP        -0.3222
     23 C8         -1.0660    2.5608    0.3999 C.ar      1 ATP         0.1640
     24 N7         -1.5852    3.6333   -0.2221 N.2       1 ATP        -0.1640
     25 C5         -0.4682    4.1996   -0.7771 C.ar      1 ATP         0.0820
     26 C6         -0.5216    5.4476   -1.5899 C.ar      1 ATP         0.1640
     27 N6         -1.6813    6.0510   -1.7982 N.pl3     1 ATP        -0.4916
     28 N1          0.6621    5.8575   -2.0523 N.pl3     1 ATP        -0.4390
     29 C2          1.8795    5.1301   -1.7717 C.ar      1 ATP         0.5691
     30 N3          1.9458    4.0434   -1.0670 N.ar      1 ATP        -0.4283
     31 C4          0.7388    3.6199   -0.5917 C.ar      1 ATP         0.2226
     32 HOB2        5.1594   -0.6646   -6.8981 H         1 ATP         0.2010
     33 H5'1        1.2163   -0.0770   -2.0471 H         1 ATP        -0.0393
     34 H5'2        2.4655   -1.3443   -2.1563 H         1 ATP        -0.0393
     35 H4'         3.8040   -0.1399   -0.4044 H         1 ATP        -0.0393
     36 H3'         1.6768   -1.7637    0.2732 H         1 ATP        -0.0393
     37 HO3'        2.2231   -1.2979    2.3952 H         1 ATP         0.2010
     38 H2'         0.0002   -0.0084   -0.0014 H         1 ATP        -0.0393
     39 HO2'       -0.1554   -0.9852    2.0577 H         1 ATP         0.2010
     40 H1'         1.7718    1.9211    1.6015 H         1 ATP        -0.0393
     41 H8         -1.7235    1.8833    0.9537 H         1 ATP         0.0000
     42 HN61       -2.5296    5.6672   -1.4072 H         1 ATP         0.2048
     43 HN62       -1.7205    6.8969   -2.3483 H         1 ATP         0.2048
     44 H2          2.7750    5.5878   -2.2190 H         1 ATP        -0.1292
     45 H45         0.6808    6.7046   -2.6128 H         1 ATP         0.2048
@<TRIPOS>BOND
     1    1    2 2
     2    1    3 1
     3    1    4 1
     4    1    8 1
     5    5    6 2
     6    5    7 1
     7    5    8 1
     8    5   12 1
     9    7   32 1
    10    9   10 2
    11    9   11 1
    12    9   12 1
    13    9   13 1
    14   13   14 1
    15   14   15 1
    16   14   33 1
    17   14   34 1
    18   15   16 1
    19   15   17 1
    20   15   35 1
    21   16   21 1
    22   17   18 1
    23   17   19 1
    24   17   36 1
    25   18   37 1
    26   19   20 1
    27   19   21 1
    28   19   38 1
    29   20   39 1
    30   21   22 1
    31   21   40 1
    32   22   23 ar
    33   22   31 ar
    34   23   24 ar
    35   23   41 1
    36   24   25 ar
    37   25   26 ar
    38   25   31 ar
    39   26   27 1
    40   26   28 ar
    41   27   42 1
    42   27   43 1
    43   28   29 ar
    44   28   45 1
    45   29   30 ar
    46   29   44 1
    47   30   31 ar
@<TRIPOS>SUBSTRUCTURE
     1 ATP         1 GROUP 0 A     ****
@<TRIPOS>MOLECULE
[[[5-(6-amino-1,8-dihydropurine-6,8-diylium-7-id-9-yl)-3,4-dihydroxy-tetrahydrofuran-2-yl]methoxy-oxido-phosphoryl]oxy-hydroxy-phosphoryl] phosphate
   45    47     1     0     0
SMALL
USER_CHARGES

@<TRIPOS>ATOM
      1 PG         -5.1745   -5.7260    6.4948 P.3       1 ATP        -1.1921
      2 O1G        -6.2525   -4.6836    6.2164 O.co2     1 ATP         0.3195
      3 O2G        -4.2274   -5.3590    7.6326 O.co2     1 ATP         0.3195
      4 O3G        -5.6864   -7.1619    6.5452 O.co2     1 ATP         0.3195
      5 PB         -4.5666   -5.9681    3.6017 P.3       1 ATP        -0.9715
      6 O1B        -5.0893   -7.3449    3.3157 O.2       1 ATP         0.2707
      7 O2B        -5.5788   -4.7632    3.2304 O.3       1 ATP         0.0326
      8 O3B        -4.2155   -5.6829    5.1547 O.3       1 ATP         0.4672
      9 PA         -1.7237   -6.2523    2.8671 P.3       1 ATP        -1.1062
     10 O1A        -1.8157   -7.6285    2.2448 O.co2     1 ATP         0.3195
     11 O2A        -1.1386   -6.0554    4.2486 O.co2     1 ATP         0.3195
     12 O3A        -3.2051   -5.5689    2.8294 O.3       1 ATP         0.4672
     13 O5'        -0.9724   -5.2440    1.8220 O.3       1 ATP         0.1618
     14 C5'        -0.7840   -3.8935    2.2172 C.3       1 ATP         0.1504
     15 C4'        -0.0724   -3.1466    1.1027 C.3       1 ATP         0.1111
     16 O4'        -0.8674   -3.1929   -0.0945 O.3       1 ATP        -0.1436
     17 C3'         0.1338   -1.6715    1.4027 C.3       1 ATP         0.1111
     18 O3'         1.2893   -1.4445    2.1808 O.3       1 ATP        -0.2728
     19 C2'         0.2158   -1.0724    0.0128 C.3       1 ATP         0.1111
     20 O2'         1.5141   -1.2448   -0.5513 O.3       1 ATP        -0.2728
     21 C1'        -0.7897   -1.9176   -0.7583 C.3       1 ATP         0.2693
     22 N9         -2.1040   -1.3333   -0.7704 N.pl3     1 ATP        -0.3222
     23 C8         -3.2124   -1.5345    0.2719 C.ar      1 ATP         0.1640
     24 N7         -4.2964   -0.8234   -0.0828 N.2       1 ATP        -0.1640
     25 C5         -3.8754   -0.2386   -1.2478 C.ar      1 ATP         0.0820
     26 C6         -4.7432    0.6719   -2.0470 C.ar      1 ATP         0.1640
     27 N6         -5.9725    0.9415   -1.6366 N.pl3     1 ATP        -0.4916
     28 N1         -4.1703    1.1517   -3.1536 N.pl3     1 ATP        -0.4390
     29 C2         -2.8174    0.7994   -3.5215 C.ar      1 ATP         0.5691
     30 N3         -2.0475    0.0097   -2.8393 N.ar      1 ATP        -0.4283
     31 C4         -2.6278   -0.4836   -1.7071 C.ar      1 ATP         0.2226
     32 HOB2       -5.8761   -4.6636    2.3010 H         1 ATP         0.2010
     33 H5'1       -1.7618   -3.4448    2.4164 H         1 ATP        -0.0393
     34 H5'2       -0.1874   -3.8744    3.1341 H         1 ATP        -0.0393
     35 H4'         0.8871   -3.6466    0.8809 H         1 ATP        -0.0393
     36 H3'        -0.7370   -1.2334    1.9869 H         1 ATP        -0.0393
     37 HO3'        1.3407   -0.4871    2.3218 H         1 ATP         0.2010
     38 H2'        -0.0343   -0.0280    0.0196 H         1 ATP        -0.0393
     39 HO2'        2.1443   -0.7955    0.0378 H         1 ATP         0.2010
     40 H1'        -0.5175   -2.1046   -1.7826 H         1 ATP        -0.0393
     41 H8         -3.2310   -2.1319    1.1889 H         1 ATP         0.0000
     42 HN61       -6.3230    0.5316   -0.7829 H         1 ATP         0.2048
     43 HN62       -6.5628    1.5584   -2.1760 H         1 ATP         0.2048
     44 H2         -2.4822    1.2710   -4.4579 H         1 ATP        -0.1292
     45 H45        -4.7200    1.7780   -3.7346 H         1 ATP         0.2048
@<TRIPOS>BOND
     1    1    2 2
     2    1    3 1
     3    1    4 1
     4    1    8 1
     5    5    6 2
     6    5    7 1
     7    5    8 1
     8    5   12 1
     9    7   32 1
    10    9   10 2
    11    9   11 1
    12    9   12 1
    13    9   13 1
    14   13   14 1
    15   14   15 1
    16   14   33 1
    17   14   34 1
    18   15   16 1
    19   15   17 1
    20   15   35 1
    21   16   21 1
    22   17   18 1
    23   17   19 1
    24   17   36 1
    25   18   37 1
    26   19   20 1
    27   19   21 1
    28   19   38 1
    29   20   39 1
    30   21   22 1
    31   21   40 1
    32   22   23 ar
    33   22   31 ar
    34   23   24 ar
    35   23   41 1
    36   24   25 ar
    37   25   26 ar
    38   25   31 ar
    39   26   27 1
    40   26   28 ar
    41   27   42 1
    42   27   43 1
    43   28   29 ar
    44   28   45 1
    45   29   30 ar
    46   29   44 1
    47   30   31 ar
@<TRIPOS>SUBSTRUCTURE
     1 ATP         1 GROUP 0 A     ****
@<TRIPOS>MOLECULE
[[[5-(6-amino-1,8-dihydropurine-6,8-diylium-7-id-9-yl)-3,4-dihydroxy-tetrahydrofuran-2-yl]methoxy-oxido-phosphoryl]oxy-hydroxy-phosphoryl] phosphate
   45    47     1     0     0
SMALL
USER_CHARGES

@<TRIPOS>ATOM
      1 PG          3.2535   -5.7427    2.3086 P.3       1 ATP        -1.1921
      2 O1G         4.0346   -5.5558    3.6052 O.co2     1 ATP         0.3195
      3 O2G         3.2378   -4.5145    1.4045 O.co2     1 ATP         0.3195
      4 O3G         3.5457   -7.0512    1.5816 O.co2     1 ATP         0.3195
      5 PB          0.9885   -6.9780    3.7721 P.3       1 ATP        -0.9715
      6 O1B         1.0901   -8.4000    3.3050 O.2       1 ATP         0.2707
      7 O2B         1.6772   -6.6794    5.2042 O.3       1 ATP         0.0326
      8 O3B         1.6867   -5.8909    2.7988 O.3       1 ATP         0.4672
      9 PA         -1.7237   -6.2523    2.8671 P.3       1 ATP        -1.1062
     10 O1A        -2.8657   -5.5136    3.5305 O.co2     1 ATP         0.3195
     11 O2A        -1.9433   -7.5882    2.1912 O.co2     1 ATP         0.3195
     12 O3A        -0.5140   -6.4122    3.9505 O.3       1 ATP         0.4672
     13 O5'        -0.9724   -5.2440    1.8220 O.3       1 ATP         0.1618
     14 C5'        -0.7840   -3.8935    2.2172 C.3       1 ATP         0.1504
     15 C4'        -0.0724   -3.1466    1.1027 C.3       1 ATP         0.1111
     16 O4'        -0.8674   -3.1929   -0.0945 O.3       1 ATP        -0.1436
     17 C3'         0.1338   -1.6715    1.4027 C.3       1 ATP         0.1111
     18 O3'         1.2893   -1.4445    2.1808 O.3       1 ATP        -0.2728
     19 C2'         0.2158   -1.0724    0.0128 C.3       1 ATP         0.1111
     20 O2'         1.5141   -1.2448   -0.5513 O.3       1 ATP        -0.2728
     21 C1'        -0.7897   -1.9176   -0.7583 C.3       1 ATP         0.2693
     22 N9         -2.1040   -1.3333   -0.7704 N.pl3     1 ATP        -0.3222
     23 C8         -3.2124   -1.5345    0.2719 C.ar      1 ATP         0.1640
     24 N7         -4.2964   -0.8234   -0.0828 N.2       1 ATP        -0.1640
     25 C5         -3.8754   -0.2386   -1.2478 C.ar      1 ATP         0.0820
     26 C6         -4.7432    0.6719   -2.0470 C.ar      1 ATP         0.1640
     27 N6         -5.9725    0.9415   -1.6366 N.pl3     1 ATP        -0.4916
     28 N1         -4.1703    1.1517   -3.1536 N.pl3     1 ATP        -0.4390
     29 C2         -2.8174    0.7994   -3.5215 C.ar      1 ATP         0.5691
     30 N3         -2.0475    0.0097   -2.8393 N.ar      1 ATP        -0.4283
     31 C4         -2.6278   -0.4836   -1.7071 C.ar      1 ATP         0.2226
     32 HOB2        1.3546   -7.1619    5.9949 H         1 ATP         0.2010
     33 H5'1       -1.7618   -3.4448    2.4164 H         1 ATP        -0.0393
     34 H5'2       -0.1874   -3.8744    3.1341 H         1 ATP        -0.0393
     35 H4'         0.8871   -3.6466    0.8809 H         1 ATP        -0.0393
     36 H3'        -0.7370   -1.2334    1.9869 H         1 ATP        -0.0393
     37 HO3'        1.1625   -1.9325    3.0084 H         1 ATP         0.2010
     38 H2'        -0.0343   -0.0280    0.0196 H         1 ATP        -0.0393
     39 HO2'        2.1443   -0.7955    0.0378 H         1 ATP         0.2010
     40 H1'        -0.5175   -2.1046   -1.7826 H         1 ATP        -0.0393
     41 H8         -3.2310   -2.1319    1.1889 H         1 ATP         0.0000
     42 HN61       -6.3230    0.5316   -0.7829 H         1 ATP         0.2048
     43 HN62       -6.5628    1.5584   -2.1760 H         1 ATP         0.2048
     44 H2         -2.4822    1.2710   -4.4579 H         1 ATP        -0.1292
     45 H45        -4.7200    1.7780   -3.7346 H         1 ATP         0.2048
@<TRIPOS>BOND
     1    1    2 2
     2    1    3 1
     3    1    4 1
     4    1    8 1
     5    5    6 2
     6    5    7 1
     7    5    8 1
     8    5   12 1
     9    7   32 1
    10    9   10 2
    11    9   11 1
    12    9   12 1
    13    9   13 1
    14   13   14 1
    15   14   15 1
    16   14   33 1
    17   14   34 1
    18   15   16 1
    19   15   17 1
    20   15   35 1
    21   16   21 1
    22   17   18 1
    23   17   19 1
    24   17   36 1
    25   18   37 1
    26   19   20 1
    27   19   21 1
    28   19   38 1
    29   20   39 1
    30   21   22 1
    31   21   40 1
    32   22   23 ar
    33   22   31 ar
    34   23   24 ar
    35   23   41 1
    36   24   25 ar
    37   25   26 ar
    38   25   31 ar
    39   26   27 1
    40   26   28 ar
    41   27   42 1
    42   27   43 1
    43   28   29 ar
    44   28   45 1
    45   29   30 ar
    46   29   44 1
    47   30   31 ar
@<TRIPOS>SUBSTRUCTURE
     1 ATP         1 GROUP 0 A     ****
@<TRIPOS>MOLECULE
[[[5-(6-amino-1,8-dihydropurine-6,8-diylium-7-id-9-yl)-3,4-dihydroxy-tetrahydrofuran-2-yl]methoxy-oxido-phosphoryl]oxy-hydroxy-phosphoryl] phosphate
   45    47     1     0     0
SMALL
USER_CHARGES

@<TRIPOS>ATOM
      1 PG          3.1868    0.5685   -7.0191 P.3       1 ATP        -1.1921
      2 O1G         1.7397    1.0259   -6.8680 O.co2     1 ATP         0.3195
      3 O2G         3.7335    0.6790   -8.4387 O.co2     1 ATP         0.3195
      4 O3G         4.1291    1.0974   -5.9428 O.co2     1 ATP         0.3195
      5 PB          2.6468   -1.8851   -5.4423 P.3       1 ATP        -0.9715
      6 O1B         1.2198   -1.6560   -5.0400 O.2       1 ATP         0.2707
      7 O2B         3.0099   -3.4125   -5.8286 O.3       1 ATP         0.0326
      8 O3B         3.1276   -1.0560   -6.7453 O.3       1 ATP         0.4672
      9 PA          3.9759   -2.0799   -2.8160 P.3       1 ATP        -1.1062
     10 O1A         5.0561   -1.2582   -2.1469 O.co2     1 ATP         0.3195
     11 O2A         4.0697   -3.5886   -2.8849 O.co2     1 ATP         0.3195
     12 O3A         3.7515   -1.5051   -4.3266 O.3       1 ATP         0.4672
     13 O5'         2.5245   -1.6648   -2.1878 O.3       1 ATP         0.1618
     14 C5'         2.2816   -0.2918   -1.9206 C.3       1 ATP         0.1504
     15 C4'         2.7248    0.0226   -0.4980 C.3       1 ATP         0.1111
     16 O4'         2.4697    1.4219   -0.2462 O.3       1 ATP        -0.1436
     17 C3'         1.9404   -0.7419    0.5596 C.3       1 ATP         0.1111
     18 O3'         2.7418   -0.8086    1.7389 O.3       1 ATP        -0.2728
     19 C2'         0.7477    0.1630    0.7858 C.3       1 ATP         0.1111
     20 O2'         0.1373   -0.0577    2.0407 O.3       1 ATP        -0.2728
     21 C1'         1.3733    1.5427    0.6747 C.3       1 ATP         0.2693
     22 N9          0.4520    2.5240    0.1767 N.pl3     1 ATP        -0.3222
     23 C8          0.1798    2.8712   -1.2933 C.ar      1 ATP         0.1640
     24 N7         -0.7494    3.8400   -1.3610 N.2       1 ATP        -0.1640
     25 C5         -1.0173    4.0603   -0.0358 C.ar      1 ATP         0.0820
     26 C6         -2.0105    5.0717    0.4241 C.ar      1 ATP         0.1640
     27 N6         -2.6723    5.7982   -0.4628 N.pl3     1 ATP        -0.4916
     28 N1         -2.1445    5.1522    1.7502 N.pl3     1 ATP        -0.4390
     29 C2         -1.3755    4.3143    2.6426 C.ar      1 ATP         0.5691
     30 N3         -0.5075    3.4292    2.2616 N.ar      1 ATP        -0.4283
     31 C4         -0.3667    3.3425    0.9070 C.ar      1 ATP         0.2226
     32 HOB2        2.5328   -3.8397   -6.5716 H         1 ATP         0.2010
     33 H5'1        2.8432    0.3119   -2.6398 H         1 ATP        -0.0393
     34 H5'2        1.2128   -0.0927   -2.0428 H         1 ATP        -0.0393
     35 H4'         3.8040   -0.1399   -0.4044 H         1 ATP        -0.0393
     36 H3'         1.6768   -1.7637    0.2732 H         1 ATP        -0.0393
     37 HO3'        3.5553   -1.2733    1.4913 H         1 ATP         0.2010
     38 H2'         0.0002   -0.0084   -0.0014 H         1 ATP        -0.0393
     39 HO2'        0.8091    0.1203    2.7213 H         1 ATP         0.2010
     40 H1'         1.7718    1.9211    1.6015 H         1 ATP        -0.0393
     41 H8          0.6089    2.4651   -2.2147 H         1 ATP         0.0000
     42 HN61       -2.5055    5.6680   -1.4503 H         1 ATP         0.2048
     43 HN62       -3.3462    6.4841   -0.1542 H         1 ATP         0.2048
     44 H2         -1.5932    4.4937    3.7066 H         1 ATP        -0.1292
     45 H45        -2.8098    5.8270    2.1160 H         1 ATP         0.2048
@<TRIPOS>BOND
     1    1    2 2
     2    1    3 1
     3    1    4 1
     4    1    8 1
     5    5    6 2
     6    5    7 1
     7    5    8 1
     8    5   12 1
     9    7   32 1
    10    9   10 2
    11    9   11 1
    12    9   12 1
    13    9   13 1
    14   13   14 1
    15   14   15 1
    16   14   33 1
    17   14   34 1
    18   15   16 1
    19   15   17 1
    20   15   35 1
    21   16   21 1
    22   17   18 1
    23   17   19 1
    24   17   36 1
    25   18   37 1
    26   19   20 1
    27   19   21 1
    28   19   38 1
    29   20   39 1
    30   21   22 1
    31   21   40 1
    32   22   23 ar
    33   22   31 ar
    34   23   24 ar
    35   23   41 1
    36   24   25 ar
    37   25   26 ar
    38   25   31 ar
    39   26   27 1
    40   26   28 ar
    41   27   42 1
    42   27   43 1
    43   28   29 ar
    44   28   45 1
    45   29   30 ar
    46   29   44 1
    47   30   31 ar
@<TRIPOS>SUBSTRUCTURE
     1 ATP         1 GROUP 0 A     ****
@<TRIPOS>MOLECULE
[[[5-(6-amino-1,8-dihydropurine-6,8-diylium-7-id-9-yl)-3,4-dihydroxy-tetrahydrofuran-2-yl]methoxy-oxido-phosphoryl]oxy-hydroxy-phosphoryl] phosphate
   45    47     1     0     0
SMALL
USER_CHARGES

@<TRIPOS>ATOM
      1 PG          2.5219   -7.0871    5.4323 P.3       1 ATP        -1.1921
      2 O1G         2.6476   -8.6068    5.3994 O.co2     1 ATP         0.3195
      3 O2G         3.3904   -6.4096    6.4873 O.co2     1 ATP         0.3195
      4 O3G         2.5707   -6.4223    4.0605 O.co2     1 ATP         0.3195
      5 PB         -0.4370   -7.2622    5.3220 P.3       1 ATP        -0.9715
      6 O1B        -0.6288   -8.7427    5.1738 O.2       1 ATP         0.2707
      7 O2B        -1.5107   -6.5279    6.2823 O.3       1 ATP         0.0326
      8 O3B         0.9827   -6.8206    5.9589 O.3       1 ATP         0.4672
      9 PA         -1.7237   -6.2523    2.8671 P.3       1 ATP        -1.1062
     10 O1A        -2.8657   -5.5136    3.5305 O.co2     1 ATP         0.3195
     11 O2A        -1.9433   -7.5882    2.1912 O.co2     1 ATP         0.3195
     12 O3A        -0.5140   -6.4122    3.9505 O.3       1 ATP         0.4672
     13 O5'        -0.9724   -5.2440    1.8220 O.3       1 ATP         0.1618
     14 C5'        -0.7840   -3.8935    2.2172 C.3       1 ATP         0.1504
     15 C4'        -0.0724   -3.1466    1.1027 C.3       1 ATP         0.1111
     16 O4'        -0.8674   -3.1929   -0.0945 O.3       1 ATP        -0.1436
     17 C3'         0.1338   -1.6715    1.4027 C.3       1 ATP         0.1111
     18 O3'         1.2893   -1.4445    2.1808 O.3       1 ATP        -0.2728
     19 C2'         0.2158   -1.0724    0.0128 C.3       1 ATP         0.1111
     20 O2'         1.5141   -1.2448   -0.5513 O.3       1 ATP        -0.2728
     21 C1'        -0.7897   -1.9176   -0.7583 C.3       1 ATP         0.2693
     22 N9         -2.1040   -1.3333   -0.7704 N.pl3     1 ATP        -0.3222
     23 C8         -3.2124   -1.5345    0.2719 C.ar      1 ATP         0.1640
     24 N7         -4.2964   -0.8234   -0.0828 N.2       1 ATP        -0.1640
     25 C5         -3.8754   -0.2386   -1.2478 C.ar      1 ATP         0.0820
     26 C6         -4.7432    0.6719   -2.0470 C.ar      1 ATP         0.1640
     27 N6         -5.9725    0.9415   -1.6366 N.pl3     1 ATP        -0.4916
     28 N1         -4.1703    1.1517   -3.1536 N.pl3     1 ATP        -0.4390
     29 C2         -2.8174    0.7994   -3.5215 C.ar      1 ATP         0.5691
     30 N3         -2.0475    0.0097   -2.8393 N.ar      1 ATP        -0.4283
     31 C4         -2.6278   -0.4836   -1.7071 C.ar      1 ATP         0.2226
     32 HOB2       -1.5746   -6.8054    7.2210 H         1 ATP         0.2010
     33 H5'1       -1.7618   -3.4448    2.4164 H         1 ATP        -0.0393
     34 H5'2       -0.1874   -3.8744    3.1341 H         1 ATP        -0.0393
     35 H4'         0.8871   -3.6466    0.8809 H         1 ATP        -0.0393
     36 H3'        -0.7370   -1.2334    1.9869 H         1 ATP        -0.0393
     37 HO3'        1.3407   -0.4871    2.3218 H         1 ATP         0.2010
     38 H2'        -0.0343   -0.0280    0.0196 H         1 ATP        -0.0393
     39 HO2'        2.1443   -0.7955    0.0378 H         1 ATP         0.2010
     40 H1'        -0.5175   -2.1046   -1.7826 H         1 ATP        -0.0393
     41 H8         -3.2310   -2.1319    1.1889 H         1 ATP         0.0000
     42 HN61       -6.3230    0.5316   -0.7829 H         1 ATP         0.2048
     43 HN62       -6.5628    1.5584   -2.1760 H         1 ATP         0.2048
     44 H2         -2.4822    1.2710   -4.4579 H         1 ATP        -0.1292
     45 H45        -4.7200    1.7780   -3.7346 H         1 ATP         0.2048
@<TRIPOS>BOND
     1    1    2 2
     2    1    3 1
     3    1    4 1
     4    1    8 1
     5    5    6 2
     6    5    7 1
     7    5    8 1
     8    5   12 1
     9    7   32 1
    10    9   10 2
    11    9   11 1
    12    9   12 1
    13    9   13 1
    14   13   14 1
    15   14   15 1
    16   14   33 1
    17   14   34 1
    18   15   16 1
    19   15   17 1
    20   15   35 1
    21   16   21 1
    22   17   18 1
    23   17   19 1
    24   17   36 1
    25   18   37 1
    26   19   20 1
    27   19   21 1
    28   19   38 1
    29   20   39 1
    30   21   22 1
    31   21   40 1
    32   22   23 ar
    33   22   31 ar
    34   23   24 ar
    35   23   41 1
    36   24   25 ar
    37   25   26 ar
    38   25   31 ar
    39   26   27 1
    40   26   28 ar
    41   27   42 1
    42   27   43 1
    43   28   29 ar
    44   28   45 1
    45   29   30 ar
    46   29   44 1
    47   30   31 ar
@<TRIPOS>SUBSTRUCTURE
     1 ATP         1 GROUP 0 A     ****
@<TRIPOS>MOLECULE
[[[5-(6-amino-1,8-dihydropurine-6,8-diylium-7-id-9-yl)-3,4-dihydroxy-tetrahydrofuran-2-yl]methoxy-oxido-phosphoryl]oxy-hydroxy-phosphoryl] phosphate
   45    47     1     0     0
SMALL
USER_CHARGES

@<TRIPOS>ATOM
      1 PG          3.9501   -5.2571   -2.8459 P.3       1 ATP        -1.1921
      2 O1G         4.8373   -6.0902   -1.9266 O.co2     1 ATP         0.3195
      3 O2G         3.4181   -6.0149   -4.0580 O.co2     1 ATP         0.3195
      4 O3G         2.9005   -4.4222   -2.1197 O.co2     1 ATP         0.3195
      5 PB          5.8840   -3.0089   -2.7862 P.3       1 ATP        -0.9715
      6 O1B         6.5445   -3.4378   -1.5094 O.2       1 ATP         0.2707
      7 O2B         6.8991   -2.5646   -3.9637 O.3       1 ATP         0.0326
      8 O3B         4.9764   -4.1435   -3.4971 O.3       1 ATP         0.4672
      9 PA          3.9819   -0.9895   -3.7893 P.3       1 ATP        -1.1062
     10 O1A         2.9148   -1.9458   -4.2758 O.co2     1 ATP         0.3195
     11 O2A         4.9152   -0.2989   -4.7596 O.co2     1 ATP         0.3195
     12 O3A         4.8797   -1.7501   -2.6587 O.3       1 ATP         0.4672
     13 O5'         3.2903    0.1346   -2.8241 O.3       1 ATP         0.1618
     14 C5'         2.2816   -0.2918   -1.9206 C.3       1 ATP         0.1504
     15 C4'         2.7248    0.0226   -0.4980 C.3       1 ATP         0.1111
     16 O4'         2.4697    1.4219   -0.2462 O.3       1 ATP        -0.1436
     17 C3'         1.9404   -0.7419    0.5596 C.3       1 ATP         0.1111
     18 O3'         2.7418   -0.8086    1.7389 O.3       1 ATP        -0.2728
     19 C2'         0.7477    0.1630    0.7858 C.3       1 ATP         0.1111
     20 O2'         0.1373   -0.0577    2.0407 O.3       1 ATP        -0.2728
     21 C1'         1.3733    1.5427    0.6747 C.3       1 ATP         0.2693
     22 N9          0.4520    2.5240    0.1767 N.pl3     1 ATP        -0.3222
     23 C8         -0.3054    2.4845   -1.1576 C.ar      1 ATP         0.1640
     24 N7         -1.0755    3.5806   -1.2691 N.2       1 ATP        -0.1640
     25 C5         -0.8043    4.2306   -0.0942 C.ar      1 ATP         0.0820
     26 C6         -1.4324    5.5335    0.2646 C.ar      1 ATP         0.1640
     27 N6         -2.2885    6.1054   -0.5675 N.pl3     1 ATP        -0.4916
     28 N1         -1.0537    6.0229    1.4478 N.pl3     1 ATP        -0.4390
     29 C2         -0.1096    5.3242    2.2908 C.ar      1 ATP         0.5691
     30 N3          0.4468    4.1904    1.9960 N.ar      1 ATP        -0.4283
     31 C4          0.0631    3.6855    0.7877 C.ar      1 ATP         0.2226
     32 HOB2        7.5517   -3.2163   -4.2977 H         1 ATP         0.2010
     33 H5'1        1.3514    0.2330   -2.1577 H         1 ATP        -0.0393
     34 H5'2        2.1280   -1.3678   -2.0460 H         1 ATP        -0.0393
     35 H4'         3.8040   -0.1399   -0.4044 H         1 ATP        -0.0393
     36 H3'         1.6768   -1.7637    0.2732 H         1 ATP        -0.0393
     37 HO3'        2.2231   -1.2979    2.3952 H         1 ATP         0.2010
     38 H2'         0.0002   -0.0084   -0.0014 H         1 ATP        -0.0393
     39 HO2'       -0.1554   -0.9852    2.0577 H         1 ATP         0.2010
     40 H1'         1.7718    1.9211    1.6015 H         1 ATP        -0.0393
     41 H8         -0.2991    1.7413   -1.9611 H         1 ATP         0.0000
     42 HN61       -2.5167    5.6603   -1.4447 H         1 ATP         0.2048
     43 HN62       -2.7159    6.9882   -0.3270 H         1 ATP         0.2048
     44 H2          0.1059    5.8491    3.2340 H         1 ATP        -0.1292
     45 H45        -1.4532    6.9099    1.7401 H         1 ATP         0.2048
@<TRIPOS>BOND
     1    1    2 2
     2    1    3 1
     3    1    4 1
     4    1    8 1
     5    5    6 2
     6    5    7 1
     7    5    8 1
     8    5   12 1
     9    7   32 1
    10    9   10 2
    11    9   11 1
    12    9   12 1
    13    9   13 1
    14   13   14 1
    15   14   15 1
    16   14   33 1
    17   14   34 1
    18   15   16 1
    19   15   17 1
    20   15   35 1
    21   16   21 1
    22   17   18 1
    23   17   19 1
    24   17   36 1
    25   18   37 1
    26   19   20 1
    27   19   21 1
    28   19   38 1
    29   20   39 1
    30   21   22 1
    31   21   40 1
    32   22   23 ar
    33   22   31 ar
    34   23   24 ar
    35   23   41 1
    36   24   25 ar
    37   25   26 ar
    38   25   31 ar
    39   26   27 1
    40   26   28 ar
    41   27   42 1
    42   27   43 1
    43   28   29 ar
    44   28   45 1
    45   29   30 ar
    46   29   44 1
    47   30   31 ar
@<TRIPOS>SUBSTRUCTURE
     1 ATP         1 GROUP 0 A     ****
@<TRIPOS>MOLECULE
[[[5-(6-amino-1,8-dihydropurine-6,8-diylium-7-id-9-yl)-3,4-dihydroxy-tetrahydrofuran-2-yl]methoxy-oxido-phosphoryl]oxy-hydroxy-phosphoryl] phosphate
   45    47     1     0     0
SMALL
USER_CHARGES

@<TRIPOS>ATOM
      1 PG          4.0851   -3.7629   -7.7132 P.3       1 ATP        -1.1921
      2 O1G         3.9864   -5.1798   -7.1574 O.co2     1 ATP         0.3195
      3 O2G         5.5029   -3.3266   -8.0678 O.co2     1 ATP         0.3195
      4 O3G         3.0437   -3.4308   -8.7769 O.co2     1 ATP         0.3195
      5 PB          2.3251   -2.7248   -5.5632 P.3       1 ATP        -0.9715
      6 O1B         1.0903   -2.3865   -6.3452 O.2       1 ATP         0.2707
      7 O2B         2.2904   -4.1605   -4.8205 O.3       1 ATP         0.0326
      8 O3B         3.6843   -2.7997   -6.4369 O.3       1 ATP         0.4672
      9 PA          3.0383   -0.0994   -4.4226 P.3       1 ATP        -1.1062
     10 O1A         1.7882    0.6446   -4.8390 O.co2     1 ATP         0.3195
     11 O2A         4.3454    0.0918   -5.1606 O.co2     1 ATP         0.3195
     12 O3A         2.6980   -1.6947   -4.3761 O.3       1 ATP         0.4672
     13 O5'         3.2903    0.1346   -2.8241 O.3       1 ATP         0.1618
     14 C5'         2.2816   -0.2918   -1.9206 C.3       1 ATP         0.1504
     15 C4'         2.7248    0.0226   -0.4980 C.3       1 ATP         0.1111
     16 O4'         2.4697    1.4219   -0.2462 O.3       1 ATP        -0.1436
     17 C3'         1.9404   -0.7419    0.5596 C.3       1 ATP         0.1111
     18 O3'         2.7418   -0.8086    1.7389 O.3       1 ATP        -0.2728
     19 C2'         0.7477    0.1630    0.7858 C.3       1 ATP         0.1111
     20 O2'         0.1373   -0.0577    2.0407 O.3       1 ATP        -0.2728
     21 C1'         1.3733    1.5427    0.6747 C.3       1 ATP         0.2693
     22 N9          0.4520    2.5240    0.1767 N.pl3     1 ATP        -0.3222
     23 C8          0.5793    3.3338   -1.1209 C.ar      1 ATP         0.1640
     24 N7         -0.4807    4.1508   -1.2458 N.2       1 ATP        -0.1640
     25 C5         -1.1921    3.8572   -0.1126 C.ar      1 ATP         0.0820
     26 C6         -2.4855    4.5203    0.2163 C.ar      1 ATP         0.1640
     27 N6         -2.9873    5.4319   -0.6020 N.pl3     1 ATP        -0.4916
     28 N1         -3.0414    4.1119    1.3596 N.pl3     1 ATP        -0.4390
     29 C2         -2.4169    3.1071    2.1904 C.ar      1 ATP         0.5691
     30 N3         -1.2928    2.5191    1.9210 N.ar      1 ATP        -0.4283
     31 C4         -0.7202    2.9326    0.7534 C.ar      1 ATP         0.2226
     32 HOB2        2.1809   -4.9714   -5.3616 H         1 ATP         0.2010
     33 H5'1        1.3514    0.2330   -2.1577 H         1 ATP        -0.0393
     34 H5'2        2.1280   -1.3678   -2.0460 H         1 ATP        -0.0393
     35 H4'         3.8040   -0.1399   -0.4044 H         1 ATP        -0.0393
     36 H3'         1.6768   -1.7637    0.2732 H         1 ATP        -0.0393
     37 HO3'        2.2231   -1.2979    2.3952 H         1 ATP         0.2010
     38 H2'         0.0002   -0.0084   -0.0014 H         1 ATP        -0.0393
     39 HO2'        0.8091    0.1203    2.7213 H         1 ATP         0.2010
     40 H1'         1.7718    1.9211    1.6015 H         1 ATP        -0.0393
     41 H8          1.3565    3.3309   -1.8916 H         1 ATP         0.0000
     42 HN61       -2.4952    5.6785   -1.4487 H         1 ATP         0.2048
     43 HN62       -3.8637    5.8828   -0.3819 H         1 ATP         0.2048
     44 H2         -2.9911    2.8734    3.1000 H         1 ATP        -0.1292
     45 H45        -3.9253    4.5332    1.6302 H         1 ATP         0.2048
@<TRIPOS>BOND
     1    1    2 2
     2    1    3 1
     3    1    4 1
     4    1    8 1
     5    5    6 2
     6    5    7 1
     7    5    8 1
     8    5   12 1
     9    7   32 1
    10    9   10 2
    11    9   11 1
    12    9   12 1
    13    9   13 1
    14   13   14 1
    15   14   15 1
    16   14   33 1
    17   14   34 1
    18   15   16 1
    19   15   17 1
    20   15   35 1
    21   16   21 1
    22   17   18 1
    23   17   19 1
    24   17   36 1
    25   18   37 1
    26   19   20 1
    27   19   21 1
    28   19   38 1
    29   20   39 1
    30   21   22 1
    31   21   40 1
    32   22   23 ar
    33   22   31 ar
    34   23   24 ar
    35   23   41 1
    36   24   25 ar
    37   25   26 ar
    38   25   31 ar
    39   26   27 1
    40   26   28 ar
    41   27   42 1
    42   27   43 1
    43   28   29 ar
    44   28   45 1
    45   29   30 ar
    46   29   44 1
    47   30   31 ar
@<TRIPOS>SUBSTRUCTURE
     1 ATP         1 GROUP 0 A     ****
@<TRIPOS>MOLECULE
[[[5-(6-amino-1,8-dihydropurine-6,8-diylium-7-id-9-yl)-3,4-dihydroxy-tetrahydrofuran-2-yl]methoxy-oxido-phosphoryl]oxy-hydroxy-phosphoryl] phosphate
   45    47     1     0     0
SMALL
USER_CHARGES

@<TRIPOS>ATOM
      1 PG          2.1742   -3.9342   -4.7953 P.3       1 ATP        -1.1921
      2 O1G         3.2060   -4.3324   -3.7450 O.co2     1 ATP         0.3195
      3 O2G         1.7974   -5.0546   -5.7592 O.co2     1 ATP         0.3195
      4 O3G         0.9838   -3.1562   -4.2441 O.co2     1 ATP         0.3195
      5 PB          3.6383   -1.4215   -5.3785 P.3       1 ATP        -0.9715
      6 O1B         4.7335   -1.4866   -4.3554 O.2       1 ATP         0.2707
      7 O2B         4.0863   -0.8465   -6.8218 O.3       1 ATP         0.0326
      8 O3B         2.9661   -2.8458   -5.7469 O.3       1 ATP         0.4672
      9 PA          2.3065    0.9470   -4.2302 P.3       1 ATP        -1.1062
     10 O1A         0.8552    1.2820   -3.9631 O.co2     1 ATP         0.3195
     11 O2A         3.2099    1.9122   -4.9662 O.co2     1 ATP         0.3195
     12 O3A         2.3723   -0.5000   -4.9816 O.3       1 ATP         0.4672
     13 O5'         3.0213    0.5153   -2.8245 O.3       1 ATP         0.1618
     14 C5'         2.2816   -0.2918   -1.9206 C.3       1 ATP         0.1504
     15 C4'         2.7248    0.0226   -0.4980 C.3       1 ATP         0.1111
     16 O4'         2.4697    1.4219   -0.2462 O.3       1 ATP        -0.1436
     17 C3'         1.9404   -0.7419    0.5596 C.3       1 ATP         0.1111
     18 O3'         2.7418   -0.8086    1.7389 O.3       1 ATP        -0.2728
     19 C2'         0.7477    0.1630    0.7858 C.3       1 ATP         0.1111
     20 O2'         0.1373   -0.0577    2.0407 O.3       1 ATP        -0.2728
     21 C1'         1.3733    1.5427    0.6747 C.3       1 ATP         0.2693
     22 N9          0.4520    2.5240    0.1767 N.pl3     1 ATP        -0.3222
     23 C8          0.5793    3.3338   -1.1209 C.ar      1 ATP         0.1640
     24 N7         -0.4807    4.1508   -1.2458 N.2       1 ATP        -0.1640
     25 C5         -1.1921    3.8572   -0.1126 C.ar      1 ATP         0.0820
     26 C6         -2.4855    4.5203    0.2163 C.ar      1 ATP         0.1640
     27 N6         -2.9873    5.4319   -0.6020 N.pl3     1 ATP        -0.4916
     28 N1         -3.0414    4.1119    1.3596 N.pl3     1 ATP        -0.4390
     29 C2         -2.4169    3.1071    2.1904 C.ar      1 ATP         0.5691
     30 N3         -1.2928    2.5191    1.9210 N.ar      1 ATP        -0.4283
     31 C4         -0.7202    2.9326    0.7534 C.ar      1 ATP         0.2226
     32 HOB2        3.4153   -0.7790   -7.5341 H         1 ATP         0.2010
     33 H5'1        1.2163   -0.0770   -2.0471 H         1 ATP        -0.0393
     34 H5'2        2.4655   -1.3443   -2.1563 H         1 ATP        -0.0393
     35 H4'         3.8040   -0.1399   -0.4044 H         1 ATP        -0.0393
     36 H3'         1.6768   -1.7637    0.2732 H         1 ATP        -0.0393
     37 HO3'        3.5553   -1.2733    1.4913 H         1 ATP         0.2010
     38 H2'         0.0002   -0.0084   -0.0014 H         1 ATP        -0.0393
     39 HO2'       -0.1554   -0.9852    2.0577 H         1 ATP         0.2010
     40 H1'         1.7718    1.9211    1.6015 H         1 ATP        -0.0393
     41 H8          1.3565    3.3309   -1.8916 H         1 ATP         0.0000
     42 HN61       -2.4952    5.6785   -1.4487 H         1 ATP         0.2048
     43 HN62       -3.8637    5.8828   -0.3819 H         1 ATP         0.2048
     44 H2         -2.9911    2.8734    3.1000 H         1 ATP        -0.1292
     45 H45        -3.9253    4.5332    1.6302 H         1 ATP         0.2048
@<TRIPOS>BOND
     1    1    2 2
     2    1    3 1
     3    1    4 1
     4    1    8 1
     5    5    6 2
     6    5    7 1
     7    5    8 1
     8    5   12 1
     9    7   32 1
    10    9   10 2
    11    9   11 1
    12    9   12 1
    13    9   13 1
    14   13   14 1
    15   14   15 1
    16   14   33 1
    17   14   34 1
    18   15   16 1
    19   15   17 1
    20   15   35 1
    21   16   21 1
    22   17   18 1
    23   17   19 1
    24   17   36 1
    25   18   37 1
    26   19   20 1
    27   19   21 1
    28   19   38 1
    29   20   39 1
    30   21   22 1
    31   21   40 1
    32   22   23 ar
    33   22   31 ar
    34   23   24 ar
    35   23   41 1
    36   24   25 ar
    37   25   26 ar
    38   25   31 ar
    39   26   27 1
    40   26   28 ar
    41   27   42 1
    42   27   43 1
    43   28   29 ar
    44   28   45 1
    45   29   30 ar
    46   29   44 1
    47   30   31 ar
@<TRIPOS>SUBSTRUCTURE
     1 ATP         1 GROUP 0 A     ****
@<TRIPOS>MOLECULE
[[[5-(6-amino-1,8-dihydropurine-6,8-diylium-7-id-9-yl)-3,4-dihydroxy-tetrahydrofuran-2-yl]methoxy-oxido-phosphoryl]oxy-hydroxy-phosphoryl] phosphate
   45    47     1     0     0
SMALL
USER_CHARGES

@<TRIPOS>ATOM
      1 PG          0.1541   -5.9775   -5.7970 P.3       1 ATP        -1.1921
      2 O1G        -1.0844   -6.4157   -5.0221 O.co2     1 ATP         0.3195
      3 O2G         1.3053   -6.9770   -5.7547 O.co2     1 ATP         0.3195
      4 O3G        -0.1383   -5.4180   -7.1854 O.co2     1 ATP         0.3195
      5 PB          0.0272   -3.2669   -4.5992 P.3       1 ATP        -0.9715
      6 O1B        -0.3694   -2.4475   -5.7917 O.2       1 ATP         0.2707
      7 O2B        -1.1930   -3.6919   -3.6272 O.3       1 ATP         0.0326
      8 O3B         0.7243   -4.6840   -4.9490 O.3       1 ATP         0.4672
      9 PA          2.5993   -2.0261   -3.8600 P.3       1 ATP        -1.1062
     10 O1A         2.5293   -0.8457   -4.8042 O.co2     1 ATP         0.3195
     11 O2A         3.4881   -3.2141   -4.1567 O.co2     1 ATP         0.3195
     12 O3A         1.0823   -2.5666   -3.5964 O.3       1 ATP         0.4672
     13 O5'         2.9216   -1.4836   -2.3516 O.3       1 ATP         0.1618
     14 C5'         2.2816   -0.2918   -1.9206 C.3       1 ATP         0.1504
     15 C4'         2.7248    0.0226   -0.4980 C.3       1 ATP         0.1111
     16 O4'         2.4697    1.4219   -0.2462 O.3       1 ATP        -0.1436
     17 C3'         1.9404   -0.7419    0.5596 C.3       1 ATP         0.1111
     18 O3'         2.7418   -0.8086    1.7389 O.3       1 ATP        -0.2728
     19 C2'         0.7477    0.1630    0.7858 C.3       1 ATP         0.1111
     20 O2'         0.1373   -0.0577    2.0407 O.3       1 ATP        -0.2728
     21 C1'         1.3733    1.5427    0.6747 C.3       1 ATP         0.2693
     22 N9          0.4520    2.5240    0.1767 N.pl3     1 ATP        -0.3222
     23 C8         -0.3054    2.4845   -1.1576 C.ar      1 ATP         0.1640
     24 N7         -1.0755    3.5806   -1.2691 N.2       1 ATP        -0.1640
     25 C5         -0.8043    4.2306   -0.0942 C.ar      1 ATP         0.0820
     26 C6         -1.4324    5.5335    0.2646 C.ar      1 ATP         0.1640
     27 N6         -2.2885    6.1054   -0.5675 N.pl3     1 ATP        -0.4916
     28 N1         -1.0537    6.0229    1.4478 N.pl3     1 ATP        -0.4390
     29 C2         -0.1096    5.3242    2.2908 C.ar      1 ATP         0.5691
     30 N3          0.4468    4.1904    1.9960 N.ar      1 ATP        -0.4283
     31 C4          0.0631    3.6855    0.7877 C.ar      1 ATP         0.2226
     32 HOB2       -0.9985   -4.2288   -2.8296 H         1 ATP         0.2010
     33 H5'1        2.5589    0.5217   -2.5976 H         1 ATP        -0.0393
     34 H5'2        1.1982   -0.4388   -1.9617 H         1 ATP        -0.0393
     35 H4'         3.8040   -0.1399   -0.4044 H         1 ATP        -0.0393
     36 H3'         1.6768   -1.7637    0.2732 H         1 ATP        -0.0393
     37 HO3'        2.2231   -1.2979    2.3952 H         1 ATP         0.2010
     38 H2'         0.0002   -0.0084   -0.0014 H         1 ATP        -0.0393
     39 HO2'       -0.1554   -0.9852    2.0577 H         1 ATP         0.2010
     40 H1'         1.7718    1.9211    1.6015 H         1 ATP        -0.0393
     41 H8         -0.2991    1.7413   -1.9611 H         1 ATP         0.0000
     42 HN61       -2.5167    5.6603   -1.4447 H         1 ATP         0.2048
     43 HN62       -2.7159    6.9882   -0.3270 H         1 ATP         0.2048
     44 H2          0.1059    5.8491    3.2340 H         1 ATP        -0.1292
     45 H45        -1.4532    6.9099    1.7401 H         1 ATP         0.2048
@<TRIPOS>BOND
     1    1    2 2
     2    1    3 1
     3    1    4 1
     4    1    8 1
     5    5    6 2
     6    5    7 1
     7    5    8 1
     8    5   12 1
     9    7   32 1
    10    9   10 2
    11    9   11 1
    12    9   12 1
    13    9   13 1
    14   13   14 1
    15   14   15 1
    16   14   33 1
    17   14   34 1
    18   15   16 1
    19   15   17 1
    20   15   35 1
    21   16   21 1
    22   17   18 1
    23   17   19 1
    24   17   36 1
    25   18   37 1
    26   19   20 1
    27   19   21 1
    28   19   38 1
    29   20   39 1
    30   21   22 1
    31   21   40 1
    32   22   23 ar
    33   22   31 ar
    34   23   24 ar
    35   23   41 1
    36   24   25 ar
    37   25   26 ar
    38   25   31 ar
    39   26   27 1
    40   26   28 ar
    41   27   42 1
    42   27   43 1
    43   28   29 ar
    44   28   45 1
    45   29   30 ar
    46   29   44 1
    47   30   31 ar
@<TRIPOS>SUBSTRUCTURE
     1 ATP         1 GROUP 0 A     ****
@<TRIPOS>MOLECULE
[[[5-(6-amino-1,8-dihydropurine-6,8-diylium-7-id-9-yl)-3,4-dihydroxy-tetrahydrofuran-2-yl]methoxy-oxido-phosphoryl]oxy-hydroxy-phosphoryl] phosphate
   45    47     1     0     0
SMALL
USER_CHARGES

@<TRIPOS>ATOM
      1 PG         -5.7763   -7.3826    0.1022 P.3       1 ATP        -1.1921
      2 O1G        -7.0929   -6.8135    0.6207 O.co2     1 ATP         0.3195
      3 O2G        -5.6727   -8.9017    0.1908 O.co2     1 ATP         0.3195
      4 O3G        -5.3222   -6.8012   -1.2326 O.co2     1 ATP         0.3195
      5 PB         -4.2275   -5.3434    1.5992 P.3       1 ATP        -0.9715
      6 O1B        -3.7049   -4.5006    0.4736 O.2       1 ATP         0.2707
      7 O2B        -5.5608   -4.7746    2.3155 O.3       1 ATP         0.0326
      8 O3B        -4.6518   -6.8476    1.1824 O.3       1 ATP         0.4672
      9 PA         -1.7237   -6.2523    2.8671 P.3       1 ATP        -1.1062
     10 O1A        -1.8157   -7.6285    2.2448 O.co2     1 ATP         0.3195
     11 O2A        -1.1386   -6.0554    4.2486 O.co2     1 ATP         0.3195
     12 O3A        -3.2051   -5.5689    2.8294 O.3       1 ATP         0.4672
     13 O5'        -0.9724   -5.2440    1.8220 O.3       1 ATP         0.1618
     14 C5'        -0.7840   -3.8935    2.2172 C.3       1 ATP         0.1504
     15 C4'        -0.0724   -3.1466    1.1027 C.3       1 ATP         0.1111
     16 O4'        -0.8674   -3.1929   -0.0945 O.3       1 ATP        -0.1436
     17 C3'         0.1338   -1.6715    1.4027 C.3       1 ATP         0.1111
     18 O3'         1.2893   -1.4445    2.1808 O.3       1 ATP        -0.2728
     19 C2'         0.2158   -1.0724    0.0128 C.3       1 ATP         0.1111
     20 O2'         1.5141   -1.2448   -0.5513 O.3       1 ATP        -0.2728
     21 C1'        -0.7897   -1.9176   -0.7583 C.3       1 ATP         0.2693
     22 N9         -2.1040   -1.3333   -0.7704 N.pl3     1 ATP        -0.3222
     23 C8         -3.2124   -1.5345    0.2719 C.ar      1 ATP         0.1640
     24 N7         -4.2964   -0.8234   -0.0828 N.2       1 ATP        -0.1640
     25 C5         -3.8754   -0.2386   -1.2478 C.ar      1 ATP         0.0820
     26 C6         -4.7432    0.6719   -2.0470 C.ar      1 ATP         0.1640
     27 N6         -5.9725    0.9415   -1.6366 N.pl3     1 ATP        -0.4916
     28 N1         -4.1703    1.1517   -3.1536 N.pl3     1 ATP        -0.4390
     29 C2         -2.8174    0.7994   -3.5215 C.ar      1 ATP         0.5691
     30 N3         -2.0475    0.0097   -2.8393 N.ar      1 ATP        -0.4283
     31 C4         -2.6278   -0.4836   -1.7071 C.ar      1 ATP         0.2226
     32 HOB2       -5.5306   -3.8904    2.7392 H         1 ATP         0.2010
     33 H5'1       -1.7618   -3.4448    2.4164 H         1 ATP        -0.0393
     34 H5'2       -0.1874   -3.8744    3.1341 H         1 ATP        -0.0393
     35 H4'         0.8871   -3.6466    0.8809 H         1 ATP        -0.0393
     36 H3'        -0.7370   -1.2334    1.9869 H         1 ATP        -0.0393
     37 HO3'        1.3407   -0.4871    2.3218 H         1 ATP         0.2010
     38 H2'        -0.0343   -0.0280    0.0196 H         1 ATP        -0.0393
     39 HO2'        2.1443   -0.7955    0.0378 H         1 ATP         0.2010
     40 H1'        -0.5175   -2.1046   -1.7826 H         1 ATP        -0.0393
     41 H8         -3.2310   -2.1319    1.1889 H         1 ATP         0.0000
     42 HN61       -6.3230    0.5316   -0.7829 H         1 ATP         0.2048
     43 HN62       -6.5628    1.5584   -2.1760 H         1 ATP         0.2048
     44 H2         -2.4822    1.2710   -4.4579 H         1 ATP        -0.1292
     45 H45        -4.7200    1.7780   -3.7346 H         1 ATP         0.2048
@<TRIPOS>BOND
     1    1    2 2
     2    1    3 1
     3    1    4 1
     4    1    8 1
     5    5    6 2
     6    5    7 1
     7    5    8 1
     8    5   12 1
     9    7   32 1
    10    9   10 2
    11    9   11 1
    12    9   12 1
    13    9   13 1
    14   13   14 1
    15   14   15 1
    16   14   33 1
    17   14   34 1
    18   15   16 1
    19   15   17 1
    20   15   35 1
    21   16   21 1
    22   17   18 1
    23   17   19 1
    24   17   36 1
    25   18   37 1
    26   19   20 1
    27   19   21 1
    28   19   38 1
    29   20   39 1
    30   21   22 1
    31   21   40 1
    32   22   23 ar
    33   22   31 ar
    34   23   24 ar
    35   23   41 1
    36   24   25 ar
    37   25   26 ar
    38   25   31 ar
    39   26   27 1
    40   26   28 ar
    41   27   42 1
    42   27   43 1
    43   28   29 ar
    44   28   45 1
    45   29   30 ar
    46   29   44 1
    47   30   31 ar
@<TRIPOS>SUBSTRUCTURE
     1 ATP         1 GROUP 0 A     ****
@<TRIPOS>MOLECULE
[[[5-(6-amino-1,8-dihydropurine-6,8-diylium-7-id-9-yl)-3,4-dihydroxy-tetrahydrofuran-2-yl]methoxy-oxido-phosphoryl]oxy-hydroxy-phosphoryl] phosphate
   45    47     1     0     0
SMALL
USER_CHARGES

@<TRIPOS>ATOM
      1 PG          1.4635   -2.7924   -7.9087 P.3       1 ATP        -1.1921
      2 O1G         2.1130   -1.9698   -9.0167 O.co2     1 ATP         0.3195
      3 O2G        -0.0449   -2.6009   -7.7888 O.co2     1 ATP         0.3195
      4 O3G         1.9153   -4.2483   -7.8591 O.co2     1 ATP         0.3195
      5 PB          3.5769   -1.9959   -5.9860 P.3       1 ATP        -0.9715
      6 O1B         4.3049   -3.2957   -5.8093 O.2       1 ATP         0.2707
      7 O2B         4.2436   -0.9800   -7.0526 O.3       1 ATP         0.0326
      8 O3B         2.0557   -2.1352   -6.5178 O.3       1 ATP         0.4672
      9 PA          2.7180    0.3539   -4.4230 P.3       1 ATP        -1.1062
     10 O1A         1.2273    0.1956   -4.6287 O.co2     1 ATP         0.3195
     11 O2A         3.5063    1.3990   -5.1820 O.co2     1 ATP         0.3195
     12 O3A         3.4276   -1.0977   -4.6517 O.3       1 ATP         0.4672
     13 O5'         3.0213    0.5153   -2.8245 O.3       1 ATP         0.1618
     14 C5'         2.2816   -0.2918   -1.9206 C.3       1 ATP         0.1504
     15 C4'         2.7248    0.0226   -0.4980 C.3       1 ATP         0.1111
     16 O4'         2.4697    1.4219   -0.2462 O.3       1 ATP        -0.1436
     17 C3'         1.9404   -0.7419    0.5596 C.3       1 ATP         0.1111
     18 O3'         2.7418   -0.8086    1.7389 O.3       1 ATP        -0.2728
     19 C2'         0.7477    0.1630    0.7858 C.3       1 ATP         0.1111
     20 O2'         0.1373   -0.0577    2.0407 O.3       1 ATP        -0.2728
     21 C1'         1.3733    1.5427    0.6747 C.3       1 ATP         0.2693
     22 N9          0.4520    2.5240    0.1767 N.pl3     1 ATP        -0.3222
     23 C8         -0.7463    2.2774   -0.7501 C.ar      1 ATP         0.1640
     24 N7         -1.3714    3.4419   -0.9948 N.2       1 ATP        -0.1640
     25 C5         -0.6104    4.3223   -0.2723 C.ar      1 ATP         0.0820
     26 C6         -0.9062    5.7820   -0.2194 C.ar      1 ATP         0.1640
     27 N6         -1.9385    6.2713   -0.8881 N.pl3     1 ATP        -0.4916
     28 N1         -0.0613    6.4906    0.5336 N.pl3     1 ATP        -0.4390
     29 C2          1.0416    5.8662    1.2291 C.ar      1 ATP         0.5691
     30 N3          1.3146    4.5989    1.1954 N.ar      1 ATP        -0.4283
     31 C4          0.4541    3.8697    0.4273 C.ar      1 ATP         0.2226
     32 HOB2        5.1594   -0.6646   -6.8981 H         1 ATP         0.2010
     33 H5'1        1.2163   -0.0770   -2.0471 H         1 ATP        -0.0393
     34 H5'2        2.4655   -1.3443   -2.1563 H         1 ATP        -0.0393
     35 H4'         3.8040   -0.1399   -0.4044 H         1 ATP        -0.0393
     36 H3'         1.6768   -1.7637    0.2732 H         1 ATP        -0.0393
     37 HO3'        2.2231   -1.2979    2.3952 H         1 ATP         0.2010
     38 H2'         0.0002   -0.0084   -0.0014 H         1 ATP        -0.0393
     39 HO2'       -0.6132    0.5577    2.1063 H         1 ATP         0.2010
     40 H1'         1.7718    1.9211    1.6015 H         1 ATP        -0.0393
     41 H8         -1.1244    1.3534   -1.1987 H         1 ATP         0.0000
     42 HN61       -2.5259    5.6573   -1.4336 H         1 ATP         0.2048
     43 HN62       -2.1416    7.2600   -0.8539 H         1 ATP         0.2048
     44 H2          1.6509    6.5764    1.8088 H         1 ATP        -0.1292
     45 H45        -0.2190    7.4917    0.6033 H         1 ATP         0.2048
@<TRIPOS>BOND
     1    1    2 2
     2    1    3 1
     3    1    4 1
     4    1    8 1
     5    5    6 2
     6    5    7 1
     7    5    8 1
     8    5   12 1
     9    7   32 1
    10    9   10 2
    11    9   11 1
    12    9   12 1
    13    9   13 1
    14   13   14 1
    15   14   15 1
    16   14   33 1
    17   14   34 1
    18   15   16 1
    19   15   17 1
    20   15   35 1
    21   16   21 1
    22   17   18 1
    23   17   19 1
    24   17   36 1
    25   18   37 1
    26   19   20 1
    27   19   21 1
    28   19   38 1
    29   20   39 1
    30   21   22 1
    31   21   40 1
    32   22   23 ar
    33   22   31 ar
    34   23   24 ar
    35   23   41 1
    36   24   25 ar
    37   25   26 ar
    38   25   31 ar
    39   26   27 1
    40   26   28 ar
    41   27   42 1
    42   27   43 1
    43   28   29 ar
    44   28   45 1
    45   29   30 ar
    46   29   44 1
    47   30   31 ar
@<TRIPOS>SUBSTRUCTURE
     1 ATP         1 GROUP 0 A     ****
@<TRIPOS>MOLECULE
[[[5-(6-amino-1,8-dihydropurine-6,8-diylium-7-id-9-yl)-3,4-dihydroxy-tetrahydrofuran-2-yl]methoxy-oxido-phosphoryl]oxy-hydroxy-phosphoryl] phosphate
   45    47     1     0     0
SMALL
USER_CHARGES

@<TRIPOS>ATOM
      1 PG          3.1859   -5.7230   -5.5929 P.3       1 ATP        -1.1921
      2 O1G         1.7611   -5.7809   -6.1342 O.co2     1 ATP         0.3195
      3 O2G         3.4363   -6.6280   -4.3910 O.co2     1 ATP         0.3195
      4 O3G         4.2689   -5.7920   -6.6646 O.co2     1 ATP         0.3195
      5 PB          3.1752   -2.7586   -5.6923 P.3       1 ATP        -0.9715
      6 O1B         4.1452   -2.5082   -6.8090 O.2       1 ATP         0.2707
      7 O2B         1.6167   -2.7222   -6.1212 O.3       1 ATP         0.0326
      8 O3B         3.3216   -4.2009   -4.9748 O.3       1 ATP         0.4672
      9 PA          3.0383   -0.0994   -4.4226 P.3       1 ATP        -1.1062
     10 O1A         1.5898    0.1994   -4.7425 O.co2     1 ATP         0.3195
     11 O2A         4.1619    0.5520   -5.1990 O.co2     1 ATP         0.3195
     12 O3A         3.2521   -1.7167   -4.4602 O.3       1 ATP         0.4672
     13 O5'         3.2903    0.1346   -2.8241 O.3       1 ATP         0.1618
     14 C5'         2.2816   -0.2918   -1.9206 C.3       1 ATP         0.1504
     15 C4'         2.7248    0.0226   -0.4980 C.3       1 ATP         0.1111
     16 O4'         2.4697    1.4219   -0.2462 O.3       1 ATP        -0.1436
     17 C3'         1.9404   -0.7419    0.5596 C.3       1 ATP         0.1111
     18 O3'         2.7418   -0.8086    1.7389 O.3       1 ATP        -0.2728
     19 C2'         0.7477    0.1630    0.7858 C.3       1 ATP         0.1111
     20 O2'         0.1373   -0.0577    2.0407 O.3       1 ATP        -0.2728
     21 C1'         1.3733    1.5427    0.6747 C.3       1 ATP         0.2693
     22 N9          0.4520    2.5240    0.1767 N.pl3     1 ATP        -0.3222
     23 C8         -1.0660    2.5608    0.3999 C.ar      1 ATP         0.1640
     24 N7         -1.5852    3.6333   -0.2221 N.2       1 ATP        -0.1640
     25 C5         -0.4682    4.1996   -0.7771 C.ar      1 ATP         0.0820
     26 C6         -0.5216    5.4476   -1.5899 C.ar      1 ATP         0.1640
     27 N6         -1.6813    6.0510   -1.7982 N.pl3     1 ATP        -0.4916
     28 N1          0.6621    5.8575   -2.0523 N.pl3     1 ATP        -0.4390
     29 C2          1.8795    5.1301   -1.7717 C.ar      1 ATP         0.5691
     30 N3          1.9458    4.0434   -1.0670 N.ar      1 ATP        -0.4283
     31 C4          0.7388    3.6199   -0.5917 C.ar      1 ATP         0.2226
     32 HOB2        1.2961   -3.3573   -6.7965 H         1 ATP         0.2010
     33 H5'1        1.3514    0.2330   -2.1577 H         1 ATP        -0.0393
     34 H5'2        2.1280   -1.3678   -2.0460 H         1 ATP        -0.0393
     35 H4'         3.8040   -0.1399   -0.4044 H         1 ATP        -0.0393
     36 H3'         1.6768   -1.7637    0.2732 H         1 ATP        -0.0393
     37 HO3'        2.2231   -1.2979    2.3952 H         1 ATP         0.2010
     38 H2'         0.0002   -0.0084   -0.0014 H         1 ATP        -0.0393
     39 HO2'       -0.1554   -0.9852    2.0577 H         1 ATP         0.2010
     40 H1'         1.7718    1.9211    1.6015 H         1 ATP        -0.0393
     41 H8         -1.7235    1.8833    0.9537 H         1 ATP         0.0000
     42 HN61       -2.5296    5.6672   -1.4072 H         1 ATP         0.2048
     43 HN62       -1.7205    6.8969   -2.3483 H         1 ATP         0.2048
     44 H2          2.7750    5.5878   -2.2190 H         1 ATP        -0.1292
     45 H45         0.6808    6.7046   -2.6128 H         1 ATP         0.2048
@<TRIPOS>BOND
     1    1    2 2
     2    1    3 1
     3    1    4 1
     4    1    8 1
     5    5    6 2
     6    5    7 1
     7    5    8 1
     8    5   12 1
     9    7   32 1
    10    9   10 2
    11    9   11 1
    12    9   12 1
    13    9   13 1
    14   13   14 1
    15   14   15 1
    16   14   33 1
    17   14   34 1
    18   15   16 1
    19   15   17 1
    20   15   35 1
    21   16   21 1
    22   17   18 1
    23   17   19 1
    24   17   36 1
    25   18   37 1
    26   19   20 1
    27   19   21 1
    28   19   38 1
    29   20   39 1
    30   21   22 1
    31   21   40 1
    32   22   23 ar
    33   22   31 ar
    34   23   24 ar
    35   23   41 1
    36   24   25 ar
    37   25   26 ar
    38   25   31 ar
    39   26   27 1
    40   26   28 ar
    41   27   42 1
    42   27   43 1
    43   28   29 ar
    44   28   45 1
    45   29   30 ar
    46   29   44 1
    47   30   31 ar
@<TRIPOS>SUBSTRUCTURE
     1 ATP         1 GROUP 0 A     ****
@<TRIPOS>MOLECULE
[[[5-(6-amino-1,8-dihydropurine-6,8-diylium-7-id-9-yl)-3,4-dihydroxy-tetrahydrofuran-2-yl]methoxy-oxido-phosphoryl]oxy-hydroxy-phosphoryl] phosphate
   45    47     1     0     0
SMALL
USER_CHARGES

@<TRIPOS>ATOM
      1 PG         -5.5060   -8.2339    1.9339 P.3       1 ATP        -1.1921
      2 O1G        -6.9464   -7.7383    2.0106 O.co2     1 ATP         0.3195
      3 O2G        -5.3435   -9.7285    2.1912 O.co2     1 ATP         0.3195
      4 O3G        -4.7269   -7.7181    0.7286 O.co2     1 ATP         0.3195
      5 PB         -4.5666   -5.9681    3.6017 P.3       1 ATP        -0.9715
      6 O1B        -5.7508   -5.0933    3.3136 O.2       1 ATP         0.2707
      7 O2B        -4.1187   -6.0205    5.1544 O.3       1 ATP         0.0326
      8 O3B        -4.7671   -7.5290    3.2280 O.3       1 ATP         0.4672
      9 PA         -1.7237   -6.2523    2.8671 P.3       1 ATP        -1.1062
     10 O1A        -1.8157   -7.6285    2.2448 O.co2     1 ATP         0.3195
     11 O2A        -1.1386   -6.0554    4.2486 O.co2     1 ATP         0.3195
     12 O3A        -3.2051   -5.5689    2.8294 O.3       1 ATP         0.4672
     13 O5'        -0.9724   -5.2440    1.8220 O.3       1 ATP         0.1618
     14 C5'        -0.7840   -3.8935    2.2172 C.3       1 ATP         0.1504
     15 C4'        -0.0724   -3.1466    1.1027 C.3       1 ATP         0.1111
     16 O4'        -0.8674   -3.1929   -0.0945 O.3       1 ATP        -0.1436
     17 C3'         0.1338   -1.6715    1.4027 C.3       1 ATP         0.1111
     18 O3'         1.2893   -1.4445    2.1808 O.3       1 ATP        -0.2728
     19 C2'         0.2158   -1.0724    0.0128 C.3       1 ATP         0.1111
     20 O2'         1.5141   -1.2448   -0.5513 O.3       1 ATP        -0.2728
     21 C1'        -0.7897   -1.9176   -0.7583 C.3       1 ATP         0.2693
     22 N9         -2.1040   -1.3333   -0.7704 N.pl3     1 ATP        -0.3222
     23 C8         -3.2124   -1.5345    0.2719 C.ar      1 ATP         0.1640
     24 N7         -4.2964   -0.8234   -0.0828 N.2       1 ATP        -0.1640
     25 C5         -3.8754   -0.2386   -1.2478 C.ar      1 ATP         0.0820
     26 C6         -4.7432    0.6719   -2.0470 C.ar      1 ATP         0.1640
     27 N6         -5.9725    0.9415   -1.6366 N.pl3     1 ATP        -0.4916
     28 N1         -4.1703    1.1517   -3.1536 N.pl3     1 ATP        -0.4390
     29 C2         -2.8174    0.7994   -3.5215 C.ar      1 ATP         0.5691
     30 N3         -2.0475    0.0097   -2.8393 N.ar      1 ATP        -0.4283
     31 C4         -2.6278   -0.4836   -1.7071 C.ar      1 ATP         0.2226
     32 HOB2       -3.8516   -5.1879    5.5989 H         1 ATP         0.2010
     33 H5'1       -1.7618   -3.4448    2.4164 H         1 ATP        -0.0393
     34 H5'2       -0.1874   -3.8744    3.1341 H         1 ATP        -0.0393
     35 H4'         0.8871   -3.6466    0.8809 H         1 ATP        -0.0393
     36 H3'        -0.7370   -1.2334    1.9869 H         1 ATP        -0.0393
     37 HO3'        1.3407   -0.4871    2.3218 H         1 ATP         0.2010
     38 H2'        -0.0343   -0.0280    0.0196 H         1 ATP        -0.0393
     39 HO2'        2.1443   -0.7955    0.0378 H         1 ATP         0.2010
     40 H1'        -0.5175   -2.1046   -1.7826 H         1 ATP        -0.0393
     41 H8         -3.2310   -2.1319    1.1889 H         1 ATP         0.0000
     42 HN61       -6.3230    0.5316   -0.7829 H         1 ATP         0.2048
     43 HN62       -6.5628    1.5584   -2.1760 H         1 ATP         0.2048
     44 H2         -2.4822    1.2710   -4.4579 H         1 ATP        -0.1292
     45 H45        -4.7200    1.7780   -3.7346 H         1 ATP         0.2048
@<TRIPOS>BOND
     1    1    2 2
     2    1    3 1
     3    1    4 1
     4    1    8 1
     5    5    6 2
     6    5    7 1
     7    5    8 1
     8    5   12 1
     9    7   32 1
    10    9   10 2
    11    9   11 1
    12    9   12 1
    13    9   13 1
    14   13   14 1
    15   14   15 1
    16   14   33 1
    17   14   34 1
    18   15   16 1
    19   15   17 1
    20   15   35 1
    21   16   21 1
    22   17   18 1
    23   17   19 1
    24   17   36 1
    25   18   37 1
    26   19   20 1
    27   19   21 1
    28   19   38 1
    29   20   39 1
    30   21   22 1
    31   21   40 1
    32   22   23 ar
    33   22   31 ar
    34   23   24 ar
    35   23   41 1
    36   24   25 ar
    37   25   26 ar
    38   25   31 ar
    39   26   27 1
    40   26   28 ar
    41   27   42 1
    42   27   43 1
    43   28   29 ar
    44   28   45 1
    45   29   30 ar
    46   29   44 1
    47   30   31 ar
@<TRIPOS>SUBSTRUCTURE
     1 ATP         1 GROUP 0 A     ****
@<TRIPOS>MOLECULE
[[[5-(6-amino-1,8-dihydropurine-6,8-diylium-7-id-9-yl)-3,4-dihydroxy-tetrahydrofuran-2-yl]methoxy-oxido-phosphoryl]oxy-hydroxy-phosphoryl] phosphate
   45    47     1     0     0
SMALL
USER_CHARGES

@<TRIPOS>ATOM
      1 PG          5.2443   -1.4631   -8.3805 P.3       1 ATP        -1.1921
      2 O1G         6.1133   -2.6822   -8.0895 O.co2     1 ATP         0.3195
      3 O2G         6.0299   -0.2017   -8.7241 O.co2     1 ATP         0.3195
      4 O3G         4.0655   -1.7382   -9.3083 O.co2     1 ATP         0.3195
      5 PB          3.5769   -1.9959   -5.9860 P.3       1 ATP        -0.9715
      6 O1B         2.2874   -2.4182   -6.6258 O.2       1 ATP         0.2707
      7 O2B         4.5363   -3.2104   -5.5184 O.3       1 ATP         0.0326
      8 O3B         4.5461   -1.1092   -6.9297 O.3       1 ATP         0.4672
      9 PA          2.7180    0.3539   -4.4230 P.3       1 ATP        -1.1062
     10 O1A         1.2273    0.1956   -4.6287 O.co2     1 ATP         0.3195
     11 O2A         3.5063    1.3990   -5.1820 O.co2     1 ATP         0.3195
     12 O3A         3.4276   -1.0977   -4.6517 O.3       1 ATP         0.4672
     13 O5'         3.0213    0.5153   -2.8245 O.3       1 ATP         0.1618
     14 C5'         2.2816   -0.2918   -1.9206 C.3       1 ATP         0.1504
     15 C4'         2.7248    0.0226   -0.4980 C.3       1 ATP         0.1111
     16 O4'         2.4697    1.4219   -0.2462 O.3       1 ATP        -0.1436
     17 C3'         1.9404   -0.7419    0.5596 C.3       1 ATP         0.1111
     18 O3'         2.7418   -0.8086    1.7389 O.3       1 ATP        -0.2728
     19 C2'         0.7477    0.1630    0.7858 C.3       1 ATP         0.1111
     20 O2'         0.1373   -0.0577    2.0407 O.3       1 ATP        -0.2728
     21 C1'         1.3733    1.5427    0.6747 C.3       1 ATP         0.2693
     22 N9          0.4520    2.5240    0.1767 N.pl3     1 ATP        -0.3222
     23 C8         -1.0247    2.3053   -0.1800 C.ar      1 ATP         0.1640
     24 N7         -1.5580    3.4612   -0.6116 N.2       1 ATP        -0.1640
     25 C5         -0.4873    4.3110   -0.5222 C.ar      1 ATP         0.0820
     26 C6         -0.5728    5.7505   -0.8981 C.ar      1 ATP         0.1640
     27 N6         -1.7163    6.2514   -1.3385 N.pl3     1 ATP        -0.4916
     28 N1          0.5667    6.4301   -0.7475 N.pl3     1 ATP        -0.4390
     29 C2          1.7697    5.7952   -0.2579 C.ar      1 ATP         0.5691
     30 N3          1.8633    4.5450    0.0742 N.ar      1 ATP        -0.4283
     31 C4          0.7014    3.8457   -0.0776 C.ar      1 ATP         0.2226
     32 HOB2        4.8586   -3.8462   -6.1923 H         1 ATP         0.2010
     33 H5'1        1.2163   -0.0770   -2.0471 H         1 ATP        -0.0393
     34 H5'2        2.4655   -1.3443   -2.1563 H         1 ATP        -0.0393
     35 H4'         3.8040   -0.1399   -0.4044 H         1 ATP        -0.0393
     36 H3'         1.6768   -1.7637    0.2732 H         1 ATP        -0.0393
     37 HO3'        2.2231   -1.2979    2.3952 H         1 ATP         0.2010
     38 H2'         0.0002   -0.0084   -0.0014 H         1 ATP        -0.0393
     39 HO2'       -0.1554   -0.9852    2.0577 H         1 ATP         0.2010
     40 H1'         1.7718    1.9211    1.6015 H         1 ATP        -0.0393
     41 H8         -1.6458    1.4054   -0.1318 H         1 ATP         0.0000
     42 HN61       -2.5307    5.6598   -1.4199 H         1 ATP         0.2048
     43 HN62       -1.7773    7.2266   -1.5938 H         1 ATP         0.2048
     44 H2          2.6279    6.4808   -0.1872 H         1 ATP        -0.1292
     45 H45         0.5621    7.4166   -0.9900 H         1 ATP         0.2048
@<TRIPOS>BOND
     1    1    2 2
     2    1    3 1
     3    1    4 1
     4    1    8 1
     5    5    6 2
     6    5    7 1
     7    5    8 1
     8    5   12 1
     9    7   32 1
    10    9   10 2
    11    9   11 1
    12    9   12 1
    13    9   13 1
    14   13   14 1
    15   14   15 1
    16   14   33 1
    17   14   34 1
    18   15   16 1
    19   15   17 1
    20   15   35 1
    21   16   21 1
    22   17   18 1
    23   17   19 1
    24   17   36 1
    25   18   37 1
    26   19   20 1
    27   19   21 1
    28   19   38 1
    29   20   39 1
    30   21   22 1
    31   21   40 1
    32   22   23 ar
    33   22   31 ar
    34   23   24 ar
    35   23   41 1
    36   24   25 ar
    37   25   26 ar
    38   25   31 ar
    39   26   27 1
    40   26   28 ar
    41   27   42 1
    42   27   43 1
    43   28   29 ar
    44   28   45 1
    45   29   30 ar
    46   29   44 1
    47   30   31 ar
@<TRIPOS>SUBSTRUCTURE
     1 ATP         1 GROUP 0 A     ****
@<TRIPOS>MOLECULE
[[[5-(6-amino-1,8-dihydropurine-6,8-diylium-7-id-9-yl)-3,4-dihydroxy-tetrahydrofuran-2-yl]methoxy-oxido-phosphoryl]oxy-hydroxy-phosphoryl] phosphate
   45    47     1     0     0
SMALL
USER_CHARGES

@<TRIPOS>ATOM
      1 PG         -0.3313  -10.2080    5.6525 P.3       1 ATP        -1.1921
      2 O1G         1.0766  -10.1270    6.2336 O.co2     1 ATP         0.3195
      3 O2G        -0.5083  -11.2859    4.5881 O.co2     1 ATP         0.3195
      4 O3G        -1.4447  -10.1682    6.6941 O.co2     1 ATP         0.3195
      5 PB         -0.4370   -7.2622    5.3220 P.3       1 ATP        -0.9715
      6 O1B        -1.4512   -6.8954    6.3648 O.2       1 ATP         0.2707
      7 O2B         1.1044   -7.0985    5.7819 O.3       1 ATP         0.0326
      8 O3B        -0.5051   -8.7974    4.8173 O.3       1 ATP         0.4672
      9 PA         -1.7237   -6.2523    2.8671 P.3       1 ATP        -1.1062
     10 O1A        -2.8657   -5.5136    3.5305 O.co2     1 ATP         0.3195
     11 O2A        -1.9433   -7.5882    2.1912 O.co2     1 ATP         0.3195
     12 O3A        -0.5140   -6.4122    3.9505 O.3       1 ATP         0.4672
     13 O5'        -0.9724   -5.2440    1.8220 O.3       1 ATP         0.1618
     14 C5'        -0.7840   -3.8935    2.2172 C.3       1 ATP         0.1504
     15 C4'        -0.0724   -3.1466    1.1027 C.3       1 ATP         0.1111
     16 O4'        -0.8674   -3.1929   -0.0945 O.3       1 ATP        -0.1436
     17 C3'         0.1338   -1.6715    1.4027 C.3       1 ATP         0.1111
     18 O3'         1.2893   -1.4445    2.1808 O.3       1 ATP        -0.2728
     19 C2'         0.2158   -1.0724    0.0128 C.3       1 ATP         0.1111
     20 O2'         1.5141   -1.2448   -0.5513 O.3       1 ATP        -0.2728
     21 C1'        -0.7897   -1.9176   -0.7583 C.3       1 ATP         0.2693
     22 N9         -2.1040   -1.3333   -0.7704 N.pl3     1 ATP        -0.3222
     23 C8         -3.2124   -1.5345    0.2719 C.ar      1 ATP         0.1640
     24 N7         -4.2964   -0.8234   -0.0828 N.2       1 ATP        -0.1640
     25 C5         -3.8754   -0.2386   -1.2478 C.ar      1 ATP         0.0820
     26 C6         -4.7432    0.6719   -2.0470 C.ar      1 ATP         0.1640
     27 N6         -5.9725    0.9415   -1.6366 N.pl3     1 ATP        -0.4916
     28 N1         -4.1703    1.1517   -3.1536 N.pl3     1 ATP        -0.4390
     29 C2         -2.8174    0.7994   -3.5215 C.ar      1 ATP         0.5691
     30 N3         -2.0475    0.0097   -2.8393 N.ar      1 ATP        -0.4283
     31 C4         -2.6278   -0.4836   -1.7071 C.ar      1 ATP         0.2226
     32 HOB2        1.4272   -7.6159    6.5502 H         1 ATP         0.2010
     33 H5'1       -1.7618   -3.4448    2.4164 H         1 ATP        -0.0393
     34 H5'2       -0.1874   -3.8744    3.1341 H         1 ATP        -0.0393
     35 H4'         0.8871   -3.6466    0.8809 H         1 ATP        -0.0393
     36 H3'        -0.7370   -1.2334    1.9869 H         1 ATP        -0.0393
     37 HO3'        1.3407   -0.4871    2.3218 H         1 ATP         0.2010
     38 H2'        -0.0343   -0.0280    0.0196 H         1 ATP        -0.0393
     39 HO2'        2.1443   -0.7955    0.0378 H         1 ATP         0.2010
     40 H1'        -0.5175   -2.1046   -1.7826 H         1 ATP        -0.0393
     41 H8         -3.2310   -2.1319    1.1889 H         1 ATP         0.0000
     42 HN61       -6.3230    0.5316   -0.7829 H         1 ATP         0.2048
     43 HN62       -6.5628    1.5584   -2.1760 H         1 ATP         0.2048
     44 H2         -2.4822    1.2710   -4.4579 H         1 ATP        -0.1292
     45 H45        -4.7200    1.7780   -3.7346 H         1 ATP         0.2048
@<TRIPOS>BOND
     1    1    2 2
     2    1    3 1
     3    1    4 1
     4    1    8 1
     5    5    6 2
     6    5    7 1
     7    5    8 1
     8    5   12 1
     9    7   32 1
    10    9   10 2
    11    9   11 1
    12    9   12 1
    13    9   13 1
    14   13   14 1
    15   14   15 1
    16   14   33 1
    17   14   34 1
    18   15   16 1
    19   15   17 1
    20   15   35 1
    21   16   21 1
    22   17   18 1
    23   17   19 1
    24   17   36 1
    25   18   37 1
    26   19   20 1
    27   19   21 1
    28   19   38 1
    29   20   39 1
    30   21   22 1
    31   21   40 1
    32   22   23 ar
    33   22   31 ar
    34   23   24 ar
    35   23   41 1
    36   24   25 ar
    37   25   26 ar
    38   25   31 ar
    39   26   27 1
    40   26   28 ar
    41   27   42 1
    42   27   43 1
    43   28   29 ar
    44   28   45 1
    45   29   30 ar
    46   29   44 1
    47   30   31 ar
@<TRIPOS>SUBSTRUCTURE
     1 ATP         1 GROUP 0 A     ****
@<TRIPOS>MOLECULE
[[[5-(6-amino-1,8-dihydropurine-6,8-diylium-7-id-9-yl)-3,4-dihydroxy-tetrahydrofuran-2-yl]methoxy-oxido-phosphoryl]oxy-hydroxy-phosphoryl] phosphate
   45    47     1     0     0
SMALL
USER_CHARGES

@<TRIPOS>ATOM
      1 PG          2.3605    3.0253   -7.4488 P.3       1 ATP        -1.1921
      2 O1G         1.0404    2.8643   -8.1956 O.co2     1 ATP         0.3195
      3 O2G         3.5981    2.9087   -8.3325 O.co2     1 ATP         0.3195
      4 O3G         2.3939    4.2002   -6.4770 O.co2     1 ATP         0.3195
      5 PB          1.4504    1.1864   -5.3068 P.3       1 ATP        -0.9715
      6 O1B         1.2864    2.1423   -4.1622 O.2       1 ATP         0.2707
      7 O2B         0.0885    0.8386   -6.1058 O.3       1 ATP         0.0326
      8 O3B         2.4414    1.6939   -6.4802 O.3       1 ATP         0.4672
      9 PA          3.4597   -0.6852   -4.2287 P.3       1 ATP        -1.1062
     10 O1A         4.5832   -0.0642   -5.0298 O.co2     1 ATP         0.3195
     11 O2A         3.4328   -2.1701   -3.9388 O.co2     1 ATP         0.3195
     12 O3A         2.0413   -0.2660   -4.9182 O.3       1 ATP         0.4672
     13 O5'         3.2903    0.1346   -2.8241 O.3       1 ATP         0.1618
     14 C5'         2.2816   -0.2918   -1.9206 C.3       1 ATP         0.1504
     15 C4'         2.7248    0.0226   -0.4980 C.3       1 ATP         0.1111
     16 O4'         2.4697    1.4219   -0.2462 O.3       1 ATP        -0.1436
     17 C3'         1.9404   -0.7419    0.5596 C.3       1 ATP         0.1111
     18 O3'         2.7418   -0.8086    1.7389 O.3       1 ATP        -0.2728
     19 C2'         0.7477    0.1630    0.7858 C.3       1 ATP         0.1111
     20 O2'         0.1373   -0.0577    2.0407 O.3       1 ATP        -0.2728
     21 C1'         1.3733    1.5427    0.6747 C.3       1 ATP         0.2693
     22 N9          0.4520    2.5240    0.1767 N.pl3     1 ATP        -0.3222
     23 C8          0.5793    3.3338   -1.1209 C.ar      1 ATP         0.1640
     24 N7         -0.4807    4.1508   -1.2458 N.2       1 ATP        -0.1640
     25 C5         -1.1921    3.8572   -0.1126 C.ar      1 ATP         0.0820
     26 C6         -2.4855    4.5203    0.2163 C.ar      1 ATP         0.1640
     27 N6         -2.9873    5.4319   -0.6020 N.pl3     1 ATP        -0.4916
     28 N1         -3.0414    4.1119    1.3596 N.pl3     1 ATP        -0.4390
     29 C2         -2.4169    3.1071    2.1904 C.ar      1 ATP         0.5691
     30 N3         -1.2928    2.5191    1.9210 N.ar      1 ATP        -0.4283
     31 C4         -0.7202    2.9326    0.7534 C.ar      1 ATP         0.2226
     32 HOB2       -0.4071    1.5671   -6.5370 H         1 ATP         0.2010
     33 H5'1        1.3514    0.2330   -2.1577 H         1 ATP        -0.0393
     34 H5'2        2.1280   -1.3678   -2.0460 H         1 ATP        -0.0393
     35 H4'         3.8040   -0.1399   -0.4044 H         1 ATP        -0.0393
     36 H3'         1.6768   -1.7637    0.2732 H         1 ATP        -0.0393
     37 HO3'        3.5553   -1.2733    1.4913 H         1 ATP         0.2010
     38 H2'         0.0002   -0.0084   -0.0014 H         1 ATP        -0.0393
     39 HO2'        0.8091    0.1203    2.7213 H         1 ATP         0.2010
     40 H1'         1.7718    1.9211    1.6015 H         1 ATP        -0.0393
     41 H8          1.3565    3.3309   -1.8916 H         1 ATP         0.0000
     42 HN61       -2.4952    5.6785   -1.4487 H         1 ATP         0.2048
     43 HN62       -3.8637    5.8828   -0.3819 H         1 ATP         0.2048
     44 H2         -2.9911    2.8734    3.1000 H         1 ATP        -0.1292
     45 H45        -3.9253    4.5332    1.6302 H         1 ATP         0.2048
@<TRIPOS>BOND
     1    1    2 2
     2    1    3 1
     3    1    4 1
     4    1    8 1
     5    5    6 2
     6    5    7 1
     7    5    8 1
     8    5   12 1
     9    7   32 1
    10    9   10 2
    11    9   11 1
    12    9   12 1
    13    9   13 1
    14   13   14 1
    15   14   15 1
    16   14   33 1
    17   14   34 1
    18   15   16 1
    19   15   17 1
    20   15   35 1
    21   16   21 1
    22   17   18 1
    23   17   19 1
    24   17   36 1
    25   18   37 1
    26   19   20 1
    27   19   21 1
    28   19   38 1
    29   20   39 1
    30   21   22 1
    31   21   40 1
    32   22   23 ar
    33   22   31 ar
    34   23   24 ar
    35   23   41 1
    36   24   25 ar
    37   25   26 ar
    38   25   31 ar
    39   26   27 1
    40   26   28 ar
    41   27   42 1
    42   27   43 1
    43   28   29 ar
    44   28   45 1
    45   29   30 ar
    46   29   44 1
    47   30   31 ar
@<TRIPOS>SUBSTRUCTURE
     1 ATP         1 GROUP 0 A     ****
@<TRIPOS>MOLECULE
[[[5-(6-amino-1,8-dihydropurine-6,8-diylium-7-id-9-yl)-3,4-dihydroxy-tetrahydrofuran-2-yl]methoxy-oxido-phosphoryl]oxy-hydroxy-phosphoryl] phosphate
   45    47     1     0     0
SMALL
USER_CHARGES

@<TRIPOS>ATOM
      1 PG          0.5721   -2.6711   -7.9075 P.3       1 ATP        -1.1921
      2 O1G         1.1450   -1.8733   -9.0743 O.co2     1 ATP         0.3195
      3 O2G        -0.9251   -2.4766   -7.6910 O.co2     1 ATP         0.3195
      4 O3G         1.0280   -4.1257   -7.8563 O.co2     1 ATP         0.3195
      5 PB          2.8086   -1.8330   -6.1487 P.3       1 ATP        -0.9715
      6 O1B         3.5484   -3.1288   -5.9926 O.2       1 ATP         0.2707
      7 O2B         3.4011   -0.8410   -7.2797 O.3       1 ATP         0.0326
      8 O3B         1.2554   -1.9836   -6.5741 O.3       1 ATP         0.4672
      9 PA          3.9458   -0.2356   -3.9447 P.3       1 ATP        -1.1062
     10 O1A         4.6386    0.8086   -4.7928 O.co2     1 ATP         0.3195
     11 O2A         4.7275   -1.3448   -3.2753 O.co2     1 ATP         0.3195
     12 O3A         2.7479   -0.9056   -4.8274 O.3       1 ATP         0.4672
     13 O5'         3.0213    0.5153   -2.8245 O.3       1 ATP         0.1618
     14 C5'         2.2816   -0.2918   -1.9206 C.3       1 ATP         0.1504
     15 C4'         2.7248    0.0226   -0.4980 C.3       1 ATP         0.1111
     16 O4'         2.4697    1.4219   -0.2462 O.3       1 ATP        -0.1436
     17 C3'         1.9404   -0.7419    0.5596 C.3       1 ATP         0.1111
     18 O3'         2.7418   -0.8086    1.7389 O.3       1 ATP        -0.2728
     19 C2'         0.7477    0.1630    0.7858 C.3       1 ATP         0.1111
     20 O2'         0.1373   -0.0577    2.0407 O.3       1 ATP        -0.2728
     21 C1'         1.3733    1.5427    0.6747 C.3       1 ATP         0.2693
     22 N9          0.4520    2.5240    0.1767 N.pl3     1 ATP        -0.3222
     23 C8         -0.3054    2.4845   -1.1576 C.ar      1 ATP         0.1640
     24 N7         -1.0755    3.5806   -1.2691 N.2       1 ATP        -0.1640
     25 C5         -0.8043    4.2306   -0.0942 C.ar      1 ATP         0.0820
     26 C6         -1.4324    5.5335    0.2646 C.ar      1 ATP         0.1640
     27 N6         -2.2885    6.1054   -0.5675 N.pl3     1 ATP        -0.4916
     28 N1         -1.0537    6.0229    1.4478 N.pl3     1 ATP        -0.4390
     29 C2         -0.1096    5.3242    2.2908 C.ar      1 ATP         0.5691
     30 N3          0.4468    4.1904    1.9960 N.ar      1 ATP        -0.4283
     31 C4          0.0631    3.6855    0.7877 C.ar      1 ATP         0.2226
     32 HOB2        2.9611    0.0227   -7.4301 H         1 ATP         0.2010
     33 H5'1        1.2163   -0.0770   -2.0471 H         1 ATP        -0.0393
     34 H5'2        2.4655   -1.3443   -2.1563 H         1 ATP        -0.0393
     35 H4'         3.8040   -0.1399   -0.4044 H         1 ATP        -0.0393
     36 H3'         1.6768   -1.7637    0.2732 H         1 ATP        -0.0393
     37 HO3'        2.2231   -1.2979    2.3952 H         1 ATP         0.2010
     38 H2'         0.0002   -0.0084   -0.0014 H         1 ATP        -0.0393
     39 HO2'       -0.6132    0.5577    2.1063 H         1 ATP         0.2010
     40 H1'         1.7718    1.9211    1.6015 H         1 ATP        -0.0393
     41 H8         -0.2991    1.7413   -1.9611 H         1 ATP         0.0000
     42 HN61       -2.5167    5.6603   -1.4447 H         1 ATP         0.2048
     43 HN62       -2.7159    6.9882   -0.3270 H         1 ATP         0.2048
     44 H2          0.1059    5.8491    3.2340 H         1 ATP        -0.1292
     45 H45        -1.4532    6.9099    1.7401 H         1 ATP         0.2048
@<TRIPOS>BOND
     1    1    2 2
     2    1    3 1
     3    1    4 1
     4    1    8 1
     5    5    6 2
     6    5    7 1
     7    5    8 1
     8    5   12 1
     9    7   32 1
    10    9   10 2
    11    9   11 1
    12    9   12 1
    13    9   13 1
    14   13   14 1
    15   14   15 1
    16   14   33 1
    17   14   34 1
    18   15   16 1
    19   15   17 1
    20   15   35 1
    21   16   21 1
    22   17   18 1
    23   17   19 1
    24   17   36 1
    25   18   37 1
    26   19   20 1
    27   19   21 1
    28   19   38 1
    29   20   39 1
    30   21   22 1
    31   21   40 1
    32   22   23 ar
    33   22   31 ar
    34   23   24 ar
    35   23   41 1
    36   24   25 ar
    37   25   26 ar
    38   25   31 ar
    39   26   27 1
    40   26   28 ar
    41   27   42 1
    42   27   43 1
    43   28   29 ar
    44   28   45 1
    45   29   30 ar
    46   29   44 1
    47   30   31 ar
@<TRIPOS>SUBSTRUCTURE
     1 ATP         1 GROUP 0 A     ****
@<TRIPOS>MOLECULE
[[[5-(6-amino-1,8-dihydropurine-6,8-diylium-7-id-9-yl)-3,4-dihydroxy-tetrahydrofuran-2-yl]methoxy-oxido-phosphoryl]oxy-hydroxy-phosphoryl] phosphate
   45    47     1     0     0
SMALL
USER_CHARGES

@<TRIPOS>ATOM
      1 PG         -1.9285   -5.4788    7.1640 P.3       1 ATP        -1.1921
      2 O1G        -0.9200   -5.7307    8.2801 O.co2     1 ATP         0.3195
      3 O2G        -3.3859   -5.5782    7.6028 O.co2     1 ATP         0.3195
      4 O3G        -1.6173   -4.2626    6.2979 O.co2     1 ATP         0.3195
      5 PB         -0.4370   -7.2622    5.3220 P.3       1 ATP        -0.9715
      6 O1B         0.8610   -7.1652    6.0679 O.2       1 ATP         0.2707
      7 O2B        -0.8508   -8.7566    4.8640 O.3       1 ATP         0.0326
      8 O3B        -1.7350   -6.7622    6.1476 O.3       1 ATP         0.4672
      9 PA         -1.7237   -6.2523    2.8671 P.3       1 ATP        -1.1062
     10 O1A        -2.8657   -5.5136    3.5305 O.co2     1 ATP         0.3195
     11 O2A        -1.9433   -7.5882    2.1912 O.co2     1 ATP         0.3195
     12 O3A        -0.5140   -6.4122    3.9505 O.3       1 ATP         0.4672
     13 O5'        -0.9724   -5.2440    1.8220 O.3       1 ATP         0.1618
     14 C5'        -0.7840   -3.8935    2.2172 C.3       1 ATP         0.1504
     15 C4'        -0.0724   -3.1466    1.1027 C.3       1 ATP         0.1111
     16 O4'        -0.8674   -3.1929   -0.0945 O.3       1 ATP        -0.1436
     17 C3'         0.1338   -1.6715    1.4027 C.3       1 ATP         0.1111
     18 O3'         1.2893   -1.4445    2.1808 O.3       1 ATP        -0.2728
     19 C2'         0.2158   -1.0724    0.0128 C.3       1 ATP         0.1111
     20 O2'         1.5141   -1.2448   -0.5513 O.3       1 ATP        -0.2728
     21 C1'        -0.7897   -1.9176   -0.7583 C.3       1 ATP         0.2693
     22 N9         -2.1040   -1.3333   -0.7704 N.pl3     1 ATP        -0.3222
     23 C8         -3.2124   -1.5345    0.2719 C.ar      1 ATP         0.1640
     24 N7         -4.2964   -0.8234   -0.0828 N.2       1 ATP        -0.1640
     25 C5         -3.8754   -0.2386   -1.2478 C.ar      1 ATP         0.0820
     26 C6         -4.7432    0.6719   -2.0470 C.ar      1 ATP         0.1640
     27 N6         -5.9725    0.9415   -1.6366 N.pl3     1 ATP        -0.4916
     28 N1         -4.1703    1.1517   -3.1536 N.pl3     1 ATP        -0.4390
     29 C2         -2.8174    0.7994   -3.5215 C.ar      1 ATP         0.5691
     30 N3         -2.0475    0.0097   -2.8393 N.ar      1 ATP        -0.4283
     31 C4         -2.6278   -0.4836   -1.7071 C.ar      1 ATP         0.2226
     32 HOB2       -0.2513   -9.2520    4.2661 H         1 ATP         0.2010
     33 H5'1       -1.7618   -3.4448    2.4164 H         1 ATP        -0.0393
     34 H5'2       -0.1874   -3.8744    3.1341 H         1 ATP        -0.0393
     35 H4'         0.8871   -3.6466    0.8809 H         1 ATP        -0.0393
     36 H3'        -0.7370   -1.2334    1.9869 H         1 ATP        -0.0393
     37 HO3'        1.3407   -0.4871    2.3218 H         1 ATP         0.2010
     38 H2'        -0.0343   -0.0280    0.0196 H         1 ATP        -0.0393
     39 HO2'        2.1443   -0.7955    0.0378 H         1 ATP         0.2010
     40 H1'        -0.5175   -2.1046   -1.7826 H         1 ATP        -0.0393
     41 H8         -3.2310   -2.1319    1.1889 H         1 ATP         0.0000
     42 HN61       -6.3230    0.5316   -0.7829 H         1 ATP         0.2048
     43 HN62       -6.5628    1.5584   -2.1760 H         1 ATP         0.2048
     44 H2         -2.4822    1.2710   -4.4579 H         1 ATP        -0.1292
     45 H45        -4.7200    1.7780   -3.7346 H         1 ATP         0.2048
@<TRIPOS>BOND
     1    1    2 2
     2    1    3 1
     3    1    4 1
     4    1    8 1
     5    5    6 2
     6    5    7 1
     7    5    8 1
     8    5   12 1
     9    7   32 1
    10    9   10 2
    11    9   11 1
    12    9   12 1
    13    9   13 1
    14   13   14 1
    15   14   15 1
    16   14   33 1
    17   14   34 1
    18   15   16 1
    19   15   17 1
    20   15   35 1
    21   16   21 1
    22   17   18 1
    23   17   19 1
    24   17   36 1
    25   18   37 1
    26   19   20 1
    27   19   21 1
    28   19   38 1
    29   20   39 1
    30   21   22 1
    31   21   40 1
    32   22   23 ar
    33   22   31 ar
    34   23   24 ar
    35   23   41 1
    36   24   25 ar
    37   25   26 ar
    38   25   31 ar
    39   26   27 1
    40   26   28 ar
    41   27   42 1
    42   27   43 1
    43   28   29 ar
    44   28   45 1
    45   29   30 ar
    46   29   44 1
    47   30   31 ar
@<TRIPOS>SUBSTRUCTURE
     1 ATP         1 GROUP 0 A     ****
@<TRIPOS>MOLECULE
[[[5-(6-amino-1,8-dihydropurine-6,8-diylium-7-id-9-yl)-3,4-dihydroxy-tetrahydrofuran-2-yl]methoxy-oxido-phosphoryl]oxy-hydroxy-phosphoryl] phosphate
   45    47     1     0     0
SMALL
USER_CHARGES

@<TRIPOS>ATOM
      1 PG          1.9443   -3.8209   -5.7918 P.3       1 ATP        -1.1921
      2 O1G         2.7122   -4.5901   -4.7218 O.co2     1 ATP         0.3195
      3 O2G         1.7115   -4.6036   -7.0800 O.co2     1 ATP         0.3195
      4 O3G         0.7121   -3.0855   -5.2751 O.co2     1 ATP         0.3195
      5 PB          3.6383   -1.4215   -5.3785 P.3       1 ATP        -0.9715
      6 O1B         4.4928   -1.8712   -4.2304 O.2       1 ATP         0.2707
      7 O2B         4.4071   -0.5450   -6.4988 O.3       1 ATP         0.0326
      8 O3B         2.9766   -2.6176   -6.2433 O.3       1 ATP         0.4672
      9 PA          2.3065    0.9470   -4.2302 P.3       1 ATP        -1.1062
     10 O1A         0.8552    1.2820   -3.9631 O.co2     1 ATP         0.3195
     11 O2A         3.2099    1.9122   -4.9662 O.co2     1 ATP         0.3195
     12 O3A         2.3723   -0.5000   -4.9816 O.3       1 ATP         0.4672
     13 O5'         3.0213    0.5153   -2.8245 O.3       1 ATP         0.1618
     14 C5'         2.2816   -0.2918   -1.9206 C.3       1 ATP         0.1504
     15 C4'         2.7248    0.0226   -0.4980 C.3       1 ATP         0.1111
     16 O4'         2.4697    1.4219   -0.2462 O.3       1 ATP        -0.1436
     17 C3'         1.9404   -0.7419    0.5596 C.3       1 ATP         0.1111
     18 O3'         2.7418   -0.8086    1.7389 O.3       1 ATP        -0.2728
     19 C2'         0.7477    0.1630    0.7858 C.3       1 ATP         0.1111
     20 O2'         0.1373   -0.0577    2.0407 O.3       1 ATP        -0.2728
     21 C1'         1.3733    1.5427    0.6747 C.3       1 ATP         0.2693
     22 N9          0.4520    2.5240    0.1767 N.pl3     1 ATP        -0.3222
     23 C8         -0.7463    2.2774   -0.7501 C.ar      1 ATP         0.1640
     24 N7         -1.3714    3.4419   -0.9948 N.2       1 ATP        -0.1640
     25 C5         -0.6104    4.3223   -0.2723 C.ar      1 ATP         0.0820
     26 C6         -0.9062    5.7820   -0.2194 C.ar      1 ATP         0.1640
     27 N6         -1.9385    6.2713   -0.8881 N.pl3     1 ATP        -0.4916
     28 N1         -0.0613    6.4906    0.5336 N.pl3     1 ATP        -0.4390
     29 C2          1.0416    5.8662    1.2291 C.ar      1 ATP         0.5691
     30 N3          1.3146    4.5989    1.1954 N.ar      1 ATP        -0.4283
     31 C4          0.4541    3.8697    0.4273 C.ar      1 ATP         0.2226
     32 HOB2        5.1672   -0.9440   -6.9734 H         1 ATP         0.2010
     33 H5'1        1.2163   -0.0770   -2.0471 H         1 ATP        -0.0393
     34 H5'2        2.4655   -1.3443   -2.1563 H         1 ATP        -0.0393
     35 H4'         3.8040   -0.1399   -0.4044 H         1 ATP        -0.0393
     36 H3'         1.6768   -1.7637    0.2732 H         1 ATP        -0.0393
     37 HO3'        2.2231   -1.2979    2.3952 H         1 ATP         0.2010
     38 H2'         0.0002   -0.0084   -0.0014 H         1 ATP        -0.0393
     39 HO2'       -0.1554   -0.9852    2.0577 H         1 ATP         0.2010
     40 H1'         1.7718    1.9211    1.6015 H         1 ATP        -0.0393
     41 H8         -1.1244    1.3534   -1.1987 H         1 ATP         0.0000
     42 HN61       -2.5259    5.6573   -1.4336 H         1 ATP         0.2048
     43 HN62       -2.1416    7.2600   -0.8539 H         1 ATP         0.2048
     44 H2          1.6509    6.5764    1.8088 H         1 ATP        -0.1292
     45 H45        -0.2190    7.4917    0.6033 H         1 ATP         0.2048
@<TRIPOS>BOND
     1    1    2 2
     2    1    3 1
     3    1    4 1
     4    1    8 1
     5    5    6 2
     6    5    7 1
     7    5    8 1
     8    5   12 1
     9    7   32 1
    10    9   10 2
    11    9   11 1
    12    9   12 1
    13    9   13 1
    14   13   14 1
    15   14   15 1
    16   14   33 1
    17   14   34 1
    18   15   16 1
    19   15   17 1
    20   15   35 1
    21   16   21 1
    22   17   18 1
    23   17   19 1
    24   17   36 1
    25   18   37 1
    26   19   20 1
    27   19   21 1
    28   19   38 1
    29   20   39 1
    30   21   22 1
    31   21   40 1
    32   22   23 ar
    33   22   31 ar
    34   23   24 ar
    35   23   41 1
    36   24   25 ar
    37   25   26 ar
    38   25   31 ar
    39   26   27 1
    40   26   28 ar
    41   27   42 1
    42   27   43 1
    43   28   29 ar
    44   28   45 1
    45   29   30 ar
    46   29   44 1
    47   30   31 ar
@<TRIPOS>SUBSTRUCTURE
     1 ATP         1 GROUP 0 A     ****
@<TRIPOS>MOLECULE
[[[5-(6-amino-1,8-dihydropurine-6,8-diylium-7-id-9-yl)-3,4-dihydroxy-tetrahydrofuran-2-yl]methoxy-oxido-phosphoryl]oxy-hydroxy-phosphoryl] phosphate
   45    47     1     0     0
SMALL
USER_CHARGES

@<TRIPOS>ATOM
      1 PG         -2.1839   -4.8838   -2.4559 P.3       1 ATP        -1.1921
      2 O1G        -1.6398   -6.2519   -2.8541 O.co2     1 ATP         0.3195
      3 O2G        -3.4366   -4.4625   -3.2170 O.co2     1 ATP         0.3195
      4 O3G        -2.2581   -4.6505   -0.9506 O.co2     1 ATP         0.3195
      5 PB          0.5302   -3.6937   -2.5793 P.3       1 ATP        -0.9715
      6 O1B         0.7928   -3.4334   -1.1254 O.2       1 ATP         0.2707
      7 O2B         1.1670   -5.0647   -3.1529 O.3       1 ATP         0.0326
      8 O3B        -1.0326   -3.8246   -2.9755 O.3       1 ATP         0.4672
      9 PA          2.5993   -2.0261   -3.8600 P.3       1 ATP        -1.1062
     10 O1A         2.5293   -0.8457   -4.8042 O.co2     1 ATP         0.3195
     11 O2A         3.4881   -3.2141   -4.1567 O.co2     1 ATP         0.3195
     12 O3A         1.0823   -2.5666   -3.5964 O.3       1 ATP         0.4672
     13 O5'         2.9216   -1.4836   -2.3516 O.3       1 ATP         0.1618
     14 C5'         2.2816   -0.2918   -1.9206 C.3       1 ATP         0.1504
     15 C4'         2.7248    0.0226   -0.4980 C.3       1 ATP         0.1111
     16 O4'         2.4697    1.4219   -0.2462 O.3       1 ATP        -0.1436
     17 C3'         1.9404   -0.7419    0.5596 C.3       1 ATP         0.1111
     18 O3'         2.7418   -0.8086    1.7389 O.3       1 ATP        -0.2728
     19 C2'         0.7477    0.1630    0.7858 C.3       1 ATP         0.1111
     20 O2'         0.1373   -0.0577    2.0407 O.3       1 ATP        -0.2728
     21 C1'         1.3733    1.5427    0.6747 C.3       1 ATP         0.2693
     22 N9          0.4520    2.5240    0.1767 N.pl3     1 ATP        -0.3222
     23 C8         -0.3054    2.4845   -1.1576 C.ar      1 ATP         0.1640
     24 N7         -1.0755    3.5806   -1.2691 N.2       1 ATP        -0.1640
     25 C5         -0.8043    4.2306   -0.0942 C.ar      1 ATP         0.0820
     26 C6         -1.4324    5.5335    0.2646 C.ar      1 ATP         0.1640
     27 N6         -2.2885    6.1054   -0.5675 N.pl3     1 ATP        -0.4916
     28 N1         -1.0537    6.0229    1.4478 N.pl3     1 ATP        -0.4390
     29 C2         -0.1096    5.3242    2.2908 C.ar      1 ATP         0.5691
     30 N3          0.4468    4.1904    1.9960 N.ar      1 ATP        -0.4283
     31 C4          0.0631    3.6855    0.7877 C.ar      1 ATP         0.2226
     32 HOB2        2.1390   -5.1898   -3.1107 H         1 ATP         0.2010
     33 H5'1        2.5589    0.5217   -2.5976 H         1 ATP        -0.0393
     34 H5'2        1.1982   -0.4388   -1.9617 H         1 ATP        -0.0393
     35 H4'         3.8040   -0.1399   -0.4044 H         1 ATP        -0.0393
     36 H3'         1.6768   -1.7637    0.2732 H         1 ATP        -0.0393
     37 HO3'        2.2231   -1.2979    2.3952 H         1 ATP         0.2010
     38 H2'         0.0002   -0.0084   -0.0014 H         1 ATP        -0.0393
     39 HO2'       -0.6132    0.5577    2.1063 H         1 ATP         0.2010
     40 H1'         1.7718    1.9211    1.6015 H         1 ATP        -0.0393
     41 H8         -0.2991    1.7413   -1.9611 H         1 ATP         0.0000
     42 HN61       -2.5167    5.6603   -1.4447 H         1 ATP         0.2048
     43 HN62       -2.7159    6.9882   -0.3270 H         1 ATP         0.2048
     44 H2          0.1059    5.8491    3.2340 H         1 ATP        -0.1292
     45 H45        -1.4532    6.9099    1.7401 H         1 ATP         0.2048
@<TRIPOS>BOND
     1    1    2 2
     2    1    3 1
     3    1    4 1
     4    1    8 1
     5    5    6 2
     6    5    7 1
     7    5    8 1
     8    5   12 1
     9    7   32 1
    10    9   10 2
    11    9   11 1
    12    9   12 1
    13    9   13 1
    14   13   14 1
    15   14   15 1
    16   14   33 1
    17   14   34 1
    18   15   16 1
    19   15   17 1
    20   15   35 1
    21   16   21 1
    22   17   18 1
    23   17   19 1
    24   17   36 1
    25   18   37 1
    26   19   20 1
    27   19   21 1
    28   19   38 1
    29   20   39 1
    30   21   22 1
    31   21   40 1
    32   22   23 ar
    33   22   31 ar
    34   23   24 ar
    35   23   41 1
    36   24   25 ar
    37   25   26 ar
    38   25   31 ar
    39   26   27 1
    40   26   28 ar
    41   27   42 1
    42   27   43 1
    43   28   29 ar
    44   28   45 1
    45   29   30 ar
    46   29   44 1
    47   30   31 ar
@<TRIPOS>SUBSTRUCTURE
     1 ATP         1 GROUP 0 A     ****
@<TRIPOS>MOLECULE
[[[5-(6-amino-1,8-dihydropurine-6,8-diylium-7-id-9-yl)-3,4-dihydroxy-tetrahydrofuran-2-yl]methoxy-oxido-phosphoryl]oxy-hydroxy-phosphoryl] phosphate
   45    47     1     0     0
SMALL
USER_CHARGES

@<TRIPOS>ATOM
      1 PG         -0.7880   -0.4874   -7.6929 P.3       1 ATP        -1.1921
      2 O1G        -0.1730    0.4220   -8.7517 O.co2     1 ATP         0.3195
      3 O2G        -2.0518    0.0700   -7.0461 O.co2     1 ATP         0.3195
      4 O3G        -0.8896   -1.9525   -8.1044 O.co2     1 ATP         0.3195
      5 PB          1.8655   -0.9461   -6.4491 P.3       1 ATP        -0.9715
      6 O1B         2.0995   -2.3855   -6.8014 O.2       1 ATP         0.2707
      7 O2B         2.5749    0.1215   -7.4346 O.3       1 ATP         0.0326
      8 O3B         0.3153   -0.4846   -6.4680 O.3       1 ATP         0.4672
      9 PA          2.3065    0.9470   -4.2302 P.3       1 ATP        -1.1062
     10 O1A         0.8552    1.2820   -3.9631 O.co2     1 ATP         0.3195
     11 O2A         3.2099    1.9122   -4.9662 O.co2     1 ATP         0.3195
     12 O3A         2.3723   -0.5000   -4.9816 O.3       1 ATP         0.4672
     13 O5'         3.0213    0.5153   -2.8245 O.3       1 ATP         0.1618
     14 C5'         2.2816   -0.2918   -1.9206 C.3       1 ATP         0.1504
     15 C4'         2.7248    0.0226   -0.4980 C.3       1 ATP         0.1111
     16 O4'         2.4697    1.4219   -0.2462 O.3       1 ATP        -0.1436
     17 C3'         1.9404   -0.7419    0.5596 C.3       1 ATP         0.1111
     18 O3'         2.7418   -0.8086    1.7389 O.3       1 ATP        -0.2728
     19 C2'         0.7477    0.1630    0.7858 C.3       1 ATP         0.1111
     20 O2'         0.1373   -0.0577    2.0407 O.3       1 ATP        -0.2728
     21 C1'         1.3733    1.5427    0.6747 C.3       1 ATP         0.2693
     22 N9          0.4520    2.5240    0.1767 N.pl3     1 ATP        -0.3222
     23 C8         -1.0660    2.5608    0.3999 C.ar      1 ATP         0.1640
     24 N7         -1.5852    3.6333   -0.2221 N.2       1 ATP        -0.1640
     25 C5         -0.4682    4.1996   -0.7771 C.ar      1 ATP         0.0820
     26 C6         -0.5216    5.4476   -1.5899 C.ar      1 ATP         0.1640
     27 N6         -1.6813    6.0510   -1.7982 N.pl3     1 ATP        -0.4916
     28 N1          0.6621    5.8575   -2.0523 N.pl3     1 ATP        -0.4390
     29 C2          1.8795    5.1301   -1.7717 C.ar      1 ATP         0.5691
     30 N3          1.9458    4.0434   -1.0670 N.ar      1 ATP        -0.4283
     31 C4          0.7388    3.6199   -0.5917 C.ar      1 ATP         0.2226
     32 HOB2        3.5514    0.1054   -7.5265 H         1 ATP         0.2010
     33 H5'1        1.2163   -0.0770   -2.0471 H         1 ATP        -0.0393
     34 H5'2        2.4655   -1.3443   -2.1563 H         1 ATP        -0.0393
     35 H4'         3.8040   -0.1399   -0.4044 H         1 ATP        -0.0393
     36 H3'         1.6768   -1.7637    0.2732 H         1 ATP        -0.0393
     37 HO3'        2.2231   -1.2979    2.3952 H         1 ATP         0.2010
     38 H2'         0.0002   -0.0084   -0.0014 H         1 ATP        -0.0393
     39 HO2'       -0.1554   -0.9852    2.0577 H         1 ATP         0.2010
     40 H1'         1.7718    1.9211    1.6015 H         1 ATP        -0.0393
     41 H8         -1.7235    1.8833    0.9537 H         1 ATP         0.0000
     42 HN61       -2.5296    5.6672   -1.4072 H         1 ATP         0.2048
     43 HN62       -1.7205    6.8969   -2.3483 H         1 ATP         0.2048
     44 H2          2.7750    5.5878   -2.2190 H         1 ATP        -0.1292
     45 H45         0.6808    6.7046   -2.6128 H         1 ATP         0.2048
@<TRIPOS>BOND
     1    1    2 2
     2    1    3 1
     3    1    4 1
     4    1    8 1
     5    5    6 2
     6    5    7 1
     7    5    8 1
     8    5   12 1
     9    7   32 1
    10    9   10 2
    11    9   11 1
    12    9   12 1
    13    9   13 1
    14   13   14 1
    15   14   15 1
    16   14   33 1
    17   14   34 1
    18   15   16 1
    19   15   17 1
    20   15   35 1
    21   16   21 1
    22   17   18 1
    23   17   19 1
    24   17   36 1
    25   18   37 1
    26   19   20 1
    27   19   21 1
    28   19   38 1
    29   20   39 1
    30   21   22 1
    31   21   40 1
    32   22   23 ar
    33   22   31 ar
    34   23   24 ar
    35   23   41 1
    36   24   25 ar
    37   25   26 ar
    38   25   31 ar
    39   26   27 1
    40   26   28 ar
    41   27   42 1
    42   27   43 1
    43   28   29 ar
    44   28   45 1
    45   29   30 ar
    46   29   44 1
    47   30   31 ar
@<TRIPOS>SUBSTRUCTURE
     1 ATP         1 GROUP 0 A     ****
@<TRIPOS>MOLECULE
[[[5-(6-amino-1,8-dihydropurine-6,8-diylium-7-id-9-yl)-3,4-dihydroxy-tetrahydrofuran-2-yl]methoxy-oxido-phosphoryl]oxy-hydroxy-phosphoryl] phosphate
   45    47     1     0     0
SMALL
USER_CHARGES

@<TRIPOS>ATOM
      1 PG          2.6593   -4.5356   -4.4565 P.3       1 ATP        -1.1921
      2 O1G         3.7837   -5.3906   -3.8812 O.co2     1 ATP         0.3195
      3 O2G         1.6910   -5.2970   -5.3558 O.co2     1 ATP         0.3195
      4 O3G         1.9825   -3.6209   -3.4409 O.co2     1 ATP         0.3195
      5 PB          4.5764   -2.4010   -5.2092 P.3       1 ATP        -0.9715
      6 O1B         5.8515   -2.9513   -4.6419 O.2       1 ATP         0.2707
      7 O2B         4.7284   -1.6637   -6.6401 O.3       1 ATP         0.0326
      8 O3B         3.4249   -3.5023   -5.4878 O.3       1 ATP         0.4672
      9 PA          4.4330   -0.0741   -3.4017 P.3       1 ATP        -1.1062
     10 O1A         5.0460    0.9437   -4.3388 O.co2     1 ATP         0.3195
     11 O2A         5.2274   -0.6609   -2.2554 O.co2     1 ATP         0.3195
     12 O3A         3.8289   -1.2993   -4.2944 O.3       1 ATP         0.4672
     13 O5'         3.0213    0.5153   -2.8245 O.3       1 ATP         0.1618
     14 C5'         2.2816   -0.2918   -1.9206 C.3       1 ATP         0.1504
     15 C4'         2.7248    0.0226   -0.4980 C.3       1 ATP         0.1111
     16 O4'         2.4697    1.4219   -0.2462 O.3       1 ATP        -0.1436
     17 C3'         1.9404   -0.7419    0.5596 C.3       1 ATP         0.1111
     18 O3'         2.7418   -0.8086    1.7389 O.3       1 ATP        -0.2728
     19 C2'         0.7477    0.1630    0.7858 C.3       1 ATP         0.1111
     20 O2'         0.1373   -0.0577    2.0407 O.3       1 ATP        -0.2728
     21 C1'         1.3733    1.5427    0.6747 C.3       1 ATP         0.2693
     22 N9          0.4520    2.5240    0.1767 N.pl3     1 ATP        -0.3222
     23 C8         -0.3054    2.4845   -1.1576 C.ar      1 ATP         0.1640
     24 N7         -1.0755    3.5806   -1.2691 N.2       1 ATP        -0.1640
     25 C5         -0.8043    4.2306   -0.0942 C.ar      1 ATP         0.0820
     26 C6         -1.4324    5.5335    0.2646 C.ar      1 ATP         0.1640
     27 N6         -2.2885    6.1054   -0.5675 N.pl3     1 ATP        -0.4916
     28 N1         -1.0537    6.0229    1.4478 N.pl3     1 ATP        -0.4390
     29 C2         -0.1096    5.3242    2.2908 C.ar      1 ATP         0.5691
     30 N3          0.4468    4.1904    1.9960 N.ar      1 ATP        -0.4283
     31 C4          0.0631    3.6855    0.7877 C.ar      1 ATP         0.2226
     32 HOB2        5.3192   -0.8839   -6.7109 H         1 ATP         0.2010
     33 H5'1        1.2163   -0.0770   -2.0471 H         1 ATP        -0.0393
     34 H5'2        2.4655   -1.3443   -2.1563 H         1 ATP        -0.0393
     35 H4'         3.8040   -0.1399   -0.4044 H         1 ATP        -0.0393
     36 H3'         1.6768   -1.7637    0.2732 H         1 ATP        -0.0393
     37 HO3'        2.2231   -1.2979    2.3952 H         1 ATP         0.2010
     38 H2'         0.0002   -0.0084   -0.0014 H         1 ATP        -0.0393
     39 HO2'       -0.6132    0.5577    2.1063 H         1 ATP         0.2010
     40 H1'         1.7718    1.9211    1.6015 H         1 ATP        -0.0393
     41 H8         -0.2991    1.7413   -1.9611 H         1 ATP         0.0000
     42 HN61       -2.5167    5.6603   -1.4447 H         1 ATP         0.2048
     43 HN62       -2.7159    6.9882   -0.3270 H         1 ATP         0.2048
     44 H2          0.1059    5.8491    3.2340 H         1 ATP        -0.1292
     45 H45        -1.4532    6.9099    1.7401 H         1 ATP         0.2048
@<TRIPOS>BOND
     1    1    2 2
     2    1    3 1
     3    1    4 1
     4    1    8 1
     5    5    6 2
     6    5    7 1
     7    5    8 1
     8    5   12 1
     9    7   32 1
    10    9   10 2
    11    9   11 1
    12    9   12 1
    13    9   13 1
    14   13   14 1
    15   14   15 1
    16   14   33 1
    17   14   34 1
    18   15   16 1
    19   15   17 1
    20   15   35 1
    21   16   21 1
    22   17   18 1
    23   17   19 1
    24   17   36 1
    25   18   37 1
    26   19   20 1
    27   19   21 1
    28   19   38 1
    29   20   39 1
    30   21   22 1
    31   21   40 1
    32   22   23 ar
    33   22   31 ar
    34   23   24 ar
    35   23   41 1
    36   24   25 ar
    37   25   26 ar
    38   25   31 ar
    39   26   27 1
    40   26   28 ar
    41   27   42 1
    42   27   43 1
    43   28   29 ar
    44   28   45 1
    45   29   30 ar
    46   29   44 1
    47   30   31 ar
@<TRIPOS>SUBSTRUCTURE
     1 ATP         1 GROUP 0 A     ****
@<TRIPOS>MOLECULE
[[[5-(6-amino-1,8-dihydropurine-6,8-diylium-7-id-9-yl)-3,4-dihydroxy-tetrahydrofuran-2-yl]methoxy-oxido-phosphoryl]oxy-hydroxy-phosphoryl] phosphate
   45    47     1     0     0
SMALL
USER_CHARGES

@<TRIPOS>ATOM
      1 PG          5.0753   -0.6803   -7.8218 P.3       1 ATP        -1.1921
      2 O1G         5.5001   -2.0919   -8.2135 O.co2     1 ATP         0.3195
      3 O2G         6.2195    0.2082   -7.3449 O.co2     1 ATP         0.3195
      4 O3G         4.1337   -0.0084   -8.8158 O.co2     1 ATP         0.3195
      5 PB          2.7870   -1.7313   -6.2544 P.3       1 ATP        -0.9715
      6 O1B         1.6326   -1.2826   -7.1009 O.2       1 ATP         0.2707
      7 O2B         3.2535   -3.2610   -6.4922 O.3       1 ATP         0.0326
      8 O3B         4.1548   -0.8957   -6.4713 O.3       1 ATP         0.4672
      9 PA          3.5344   -2.0410   -3.4175 P.3       1 ATP        -1.1062
     10 O1A         4.6992   -1.0751   -3.4122 O.co2     1 ATP         0.3195
     11 O2A         3.7584   -3.5374   -3.4310 O.co2     1 ATP         0.3195
     12 O3A         2.5483   -1.6533   -4.6586 O.3       1 ATP         0.4672
     13 O5'         2.5245   -1.6648   -2.1878 O.3       1 ATP         0.1618
     14 C5'         2.2816   -0.2918   -1.9206 C.3       1 ATP         0.1504
     15 C4'         2.7248    0.0226   -0.4980 C.3       1 ATP         0.1111
     16 O4'         2.4697    1.4219   -0.2462 O.3       1 ATP        -0.1436
     17 C3'         1.9404   -0.7419    0.5596 C.3       1 ATP         0.1111
     18 O3'         2.7418   -0.8086    1.7389 O.3       1 ATP        -0.2728
     19 C2'         0.7477    0.1630    0.7858 C.3       1 ATP         0.1111
     20 O2'         0.1373   -0.0577    2.0407 O.3       1 ATP        -0.2728
     21 C1'         1.3733    1.5427    0.6747 C.3       1 ATP         0.2693
     22 N9          0.4520    2.5240    0.1767 N.pl3     1 ATP        -0.3222
     23 C8         -0.3054    2.4845   -1.1576 C.ar      1 ATP         0.1640
     24 N7         -1.0755    3.5806   -1.2691 N.2       1 ATP        -0.1640
     25 C5         -0.8043    4.2306   -0.0942 C.ar      1 ATP         0.0820
     26 C6         -1.4324    5.5335    0.2646 C.ar      1 ATP         0.1640
     27 N6         -2.2885    6.1054   -0.5675 N.pl3     1 ATP        -0.4916
     28 N1         -1.0537    6.0229    1.4478 N.pl3     1 ATP        -0.4390
     29 C2         -0.1096    5.3242    2.2908 C.ar      1 ATP         0.5691
     30 N3          0.4468    4.1904    1.9960 N.ar      1 ATP        -0.4283
     31 C4          0.0631    3.6855    0.7877 C.ar      1 ATP         0.2226
     32 HOB2        3.5576   -3.5303   -7.3851 H         1 ATP         0.2010
     33 H5'1        2.8432    0.3119   -2.6398 H         1 ATP        -0.0393
     34 H5'2        1.2128   -0.0927   -2.0428 H         1 ATP        -0.0393
     35 H4'         3.8040   -0.1399   -0.4044 H         1 ATP        -0.0393
     36 H3'         1.6768   -1.7637    0.2732 H         1 ATP        -0.0393
     37 HO3'        2.2231   -1.2979    2.3952 H         1 ATP         0.2010
     38 H2'         0.0002   -0.0084   -0.0014 H         1 ATP        -0.0393
     39 HO2'       -0.6132    0.5577    2.1063 H         1 ATP         0.2010
     40 H1'         1.7718    1.9211    1.6015 H         1 ATP        -0.0393
     41 H8         -0.2991    1.7413   -1.9611 H         1 ATP         0.0000
     42 HN61       -2.5167    5.6603   -1.4447 H         1 ATP         0.2048
     43 HN62       -2.7159    6.9882   -0.3270 H         1 ATP         0.2048
     44 H2          0.1059    5.8491    3.2340 H         1 ATP        -0.1292
     45 H45        -1.4532    6.9099    1.7401 H         1 ATP         0.2048
@<TRIPOS>BOND
     1    1    2 2
     2    1    3 1
     3    1    4 1
     4    1    8 1
     5    5    6 2
     6    5    7 1
     7    5    8 1
     8    5   12 1
     9    7   32 1
    10    9   10 2
    11    9   11 1
    12    9   12 1
    13    9   13 1
    14   13   14 1
    15   14   15 1
    16   14   33 1
    17   14   34 1
    18   15   16 1
    19   15   17 1
    20   15   35 1
    21   16   21 1
    22   17   18 1
    23   17   19 1
    24   17   36 1
    25   18   37 1
    26   19   20 1
    27   19   21 1
    28   19   38 1
    29   20   39 1
    30   21   22 1
    31   21   40 1
    32   22   23 ar
    33   22   31 ar
    34   23   24 ar
    35   23   41 1
    36   24   25 ar
    37   25   26 ar
    38   25   31 ar
    39   26   27 1
    40   26   28 ar
    41   27   42 1
    42   27   43 1
    43   28   29 ar
    44   28   45 1
    45   29   30 ar
    46   29   44 1
    47   30   31 ar
@<TRIPOS>SUBSTRUCTURE
     1 ATP         1 GROUP 0 A     ****
@<TRIPOS>MOLECULE
[[[5-(6-amino-1,8-dihydropurine-6,8-diylium-7-id-9-yl)-3,4-dihydroxy-tetrahydrofuran-2-yl]methoxy-oxido-phosphoryl]oxy-hydroxy-phosphoryl] phosphate
   45    47     1     0     0
SMALL
USER_CHARGES

@<TRIPOS>ATOM
      1 PG          2.9947   -2.9761   -8.3348 P.3       1 ATP        -1.1921
      2 O1G         1.9206   -2.1514   -9.0364 O.co2     1 ATP         0.3195
      3 O2G         2.6738   -4.4635   -8.2307 O.co2     1 ATP         0.3195
      4 O3G         4.4181   -2.6735   -8.7913 O.co2     1 ATP         0.3195
      5 PB          3.1945   -0.9807   -6.1493 P.3       1 ATP        -0.9715
      6 O1B         4.5520   -0.4009   -6.4170 O.2       1 ATP         0.2707
      7 O2B         1.9578   -0.1241   -6.7418 O.3       1 ATP         0.0326
      8 O3B         2.9488   -2.4531   -6.7721 O.3       1 ATP         0.4672
      9 PA          3.5344   -2.0410   -3.4175 P.3       1 ATP        -1.1062
     10 O1A         4.8954   -1.4410   -3.1392 O.co2     1 ATP         0.3195
     11 O2A         3.3794   -3.5087   -3.7510 O.co2     1 ATP         0.3195
     12 O3A         2.8139   -1.1642   -4.5901 O.3       1 ATP         0.4672
     13 O5'         2.5245   -1.6648   -2.1878 O.3       1 ATP         0.1618
     14 C5'         2.2816   -0.2918   -1.9206 C.3       1 ATP         0.1504
     15 C4'         2.7248    0.0226   -0.4980 C.3       1 ATP         0.1111
     16 O4'         2.4697    1.4219   -0.2462 O.3       1 ATP        -0.1436
     17 C3'         1.9404   -0.7419    0.5596 C.3       1 ATP         0.1111
     18 O3'         2.7418   -0.8086    1.7389 O.3       1 ATP        -0.2728
     19 C2'         0.7477    0.1630    0.7858 C.3       1 ATP         0.1111
     20 O2'         0.1373   -0.0577    2.0407 O.3       1 ATP        -0.2728
     21 C1'         1.3733    1.5427    0.6747 C.3       1 ATP         0.2693
     22 N9          0.4520    2.5240    0.1767 N.pl3     1 ATP        -0.3222
     23 C8         -0.3054    2.4845   -1.1576 C.ar      1 ATP         0.1640
     24 N7         -1.0755    3.5806   -1.2691 N.2       1 ATP        -0.1640
     25 C5         -0.8043    4.2306   -0.0942 C.ar      1 ATP         0.0820
     26 C6         -1.4324    5.5335    0.2646 C.ar      1 ATP         0.1640
     27 N6         -2.2885    6.1054   -0.5675 N.pl3     1 ATP        -0.4916
     28 N1         -1.0537    6.0229    1.4478 N.pl3     1 ATP        -0.4390
     29 C2         -0.1096    5.3242    2.2908 C.ar      1 ATP         0.5691
     30 N3          0.4468    4.1904    1.9960 N.ar      1 ATP        -0.4283
     31 C4          0.0631    3.6855    0.7877 C.ar      1 ATP         0.2226
     32 HOB2        1.9097    0.0319   -7.7090 H         1 ATP         0.2010
     33 H5'1        2.8432    0.3119   -2.6398 H         1 ATP        -0.0393
     34 H5'2        1.2128   -0.0927   -2.0428 H         1 ATP        -0.0393
     35 H4'         3.8040   -0.1399   -0.4044 H         1 ATP        -0.0393
     36 H3'         1.6768   -1.7637    0.2732 H         1 ATP        -0.0393
     37 HO3'        2.2231   -1.2979    2.3952 H         1 ATP         0.2010
     38 H2'         0.0002   -0.0084   -0.0014 H         1 ATP        -0.0393
     39 HO2'       -0.1554   -0.9852    2.0577 H         1 ATP         0.2010
     40 H1'         1.7718    1.9211    1.6015 H         1 ATP        -0.0393
     41 H8         -0.2991    1.7413   -1.9611 H         1 ATP         0.0000
     42 HN61       -2.5167    5.6603   -1.4447 H         1 ATP         0.2048
     43 HN62       -2.7159    6.9882   -0.3270 H         1 ATP         0.2048
     44 H2          0.1059    5.8491    3.2340 H         1 ATP        -0.1292
     45 H45        -1.4532    6.9099    1.7401 H         1 ATP         0.2048
@<TRIPOS>BOND
     1    1    2 2
     2    1    3 1
     3    1    4 1
     4    1    8 1
     5    5    6 2
     6    5    7 1
     7    5    8 1
     8    5   12 1
     9    7   32 1
    10    9   10 2
    11    9   11 1
    12    9   12 1
    13    9   13 1
    14   13   14 1
    15   14   15 1
    16   14   33 1
    17   14   34 1
    18   15   16 1
    19   15   17 1
    20   15   35 1
    21   16   21 1
    22   17   18 1
    23   17   19 1
    24   17   36 1
    25   18   37 1
    26   19   20 1
    27   19   21 1
    28   19   38 1
    29   20   39 1
    30   21   22 1
    31   21   40 1
    32   22   23 ar
    33   22   31 ar
    34   23   24 ar
    35   23   41 1
    36   24   25 ar
    37   25   26 ar
    38   25   31 ar
    39   26   27 1
    40   26   28 ar
    41   27   42 1
    42   27   43 1
    43   28   29 ar
    44   28   45 1
    45   29   30 ar
    46   29   44 1
    47   30   31 ar
@<TRIPOS>SUBSTRUCTURE
     1 ATP         1 GROUP 0 A     ****
@<TRIPOS>MOLECULE
[[[5-(6-amino-1,8-dihydropurine-6,8-diylium-7-id-9-yl)-3,4-dihydroxy-tetrahydrofuran-2-yl]methoxy-oxido-phosphoryl]oxy-hydroxy-phosphoryl] phosphate
   45    47     1     0     0
SMALL
USER_CHARGES

@<TRIPOS>ATOM
      1 PG          6.0803   -2.0266    0.1049 P.3       1 ATP        -1.1921
      2 O1G         5.5504   -1.0257    1.1265 O.co2     1 ATP         0.3195
      3 O2G         7.2271   -2.8936    0.6142 O.co2     1 ATP         0.3195
      4 O3G         4.9961   -2.7979   -0.6405 O.co2     1 ATP         0.3195
      5 PB          6.1474    0.0586   -2.0035 P.3       1 ATP        -0.9715
      6 O1B         5.5458    1.2219   -1.2719 O.2       1 ATP         0.2707
      7 O2B         7.3725    0.4328   -2.9900 O.3       1 ATP         0.0326
      8 O3B         6.7814   -1.0875   -1.0544 O.3       1 ATP         0.4672
      9 PA          3.9458   -0.2356   -3.9447 P.3       1 ATP        -1.1062
     10 O1A         3.1973   -1.4387   -4.4759 O.co2     1 ATP         0.3195
     11 O2A         4.5250    0.8020   -4.8814 O.co2     1 ATP         0.3195
     12 O3A         5.1327   -0.7615   -2.9560 O.3       1 ATP         0.4672
     13 O5'         3.0213    0.5153   -2.8245 O.3       1 ATP         0.1618
     14 C5'         2.2816   -0.2918   -1.9206 C.3       1 ATP         0.1504
     15 C4'         2.7248    0.0226   -0.4980 C.3       1 ATP         0.1111
     16 O4'         2.4697    1.4219   -0.2462 O.3       1 ATP        -0.1436
     17 C3'         1.9404   -0.7419    0.5596 C.3       1 ATP         0.1111
     18 O3'         2.7418   -0.8086    1.7389 O.3       1 ATP        -0.2728
     19 C2'         0.7477    0.1630    0.7858 C.3       1 ATP         0.1111
     20 O2'         0.1373   -0.0577    2.0407 O.3       1 ATP        -0.2728
     21 C1'         1.3733    1.5427    0.6747 C.3       1 ATP         0.2693
     22 N9          0.4520    2.5240    0.1767 N.pl3     1 ATP        -0.3222
     23 C8          0.1798    2.8712   -1.2933 C.ar      1 ATP         0.1640
     24 N7         -0.7494    3.8400   -1.3610 N.2       1 ATP        -0.1640
     25 C5         -1.0173    4.0603   -0.0358 C.ar      1 ATP         0.0820
     26 C6         -2.0105    5.0717    0.4241 C.ar      1 ATP         0.1640
     27 N6         -2.6723    5.7982   -0.4628 N.pl3     1 ATP        -0.4916
     28 N1         -2.1445    5.1522    1.7502 N.pl3     1 ATP        -0.4390
     29 C2         -1.3755    4.3143    2.6426 C.ar      1 ATP         0.5691
     30 N3         -0.5075    3.4292    2.2616 N.ar      1 ATP        -0.4283
     31 C4         -0.3667    3.3425    0.9070 C.ar      1 ATP         0.2226
     32 HOB2        7.2123    1.0584   -3.7283 H         1 ATP         0.2010
     33 H5'1        1.2163   -0.0770   -2.0471 H         1 ATP        -0.0393
     34 H5'2        2.4655   -1.3443   -2.1563 H         1 ATP        -0.0393
     35 H4'         3.8040   -0.1399   -0.4044 H         1 ATP        -0.0393
     36 H3'         1.6768   -1.7637    0.2732 H         1 ATP        -0.0393
     37 HO3'        2.2231   -1.2979    2.3952 H         1 ATP         0.2010
     38 H2'         0.0002   -0.0084   -0.0014 H         1 ATP        -0.0393
     39 HO2'       -0.1554   -0.9852    2.0577 H         1 ATP         0.2010
     40 H1'         1.7718    1.9211    1.6015 H         1 ATP        -0.0393
     41 H8          0.6089    2.4651   -2.2147 H         1 ATP         0.0000
     42 HN61       -2.5055    5.6680   -1.4503 H         1 ATP         0.2048
     43 HN62       -3.3462    6.4841   -0.1542 H         1 ATP         0.2048
     44 H2         -1.5932    4.4937    3.7066 H         1 ATP        -0.1292
     45 H45        -2.8098    5.8270    2.1160 H         1 ATP         0.2048
@<TRIPOS>BOND
     1    1    2 2
     2    1    3 1
     3    1    4 1
     4    1    8 1
     5    5    6 2
     6    5    7 1
     7    5    8 1
     8    5   12 1
     9    7   32 1
    10    9   10 2
    11    9   11 1
    12    9   12 1
    13    9   13 1
    14   13   14 1
    15   14   15 1
    16   14   33 1
    17   14   34 1
    18   15   16 1
    19   15   17 1
    20   15   35 1
    21   16   21 1
    22   17   18 1
    23   17   19 1
    24   17   36 1
    25   18   37 1
    26   19   20 1
    27   19   21 1
    28   19   38 1
    29   20   39 1
    30   21   22 1
    31   21   40 1
    32   22   23 ar
    33   22   31 ar
    34   23   24 ar
    35   23   41 1
    36   24   25 ar
    37   25   26 ar
    38   25   31 ar
    39   26   27 1
    40   26   28 ar
    41   27   42 1
    42   27   43 1
    43   28   29 ar
    44   28   45 1
    45   29   30 ar
    46   29   44 1
    47   30   31 ar
@<TRIPOS>SUBSTRUCTURE
     1 ATP         1 GROUP 0 A     ****
@<TRIPOS>MOLECULE
[[[5-(6-amino-1,8-dihydropurine-6,8-diylium-7-id-9-yl)-3,4-dihydroxy-tetrahydrofuran-2-yl]methoxy-oxido-phosphoryl]oxy-hydroxy-phosphoryl] phosphate
   45    47     1     0     0
SMALL
USER_CHARGES

@<TRIPOS>ATOM
      1 PG          5.4428   -2.9365   -3.5767 P.3       1 ATP        -1.1921
      2 O1G         4.9576   -4.2639   -4.1502 O.co2     1 ATP         0.3195
      3 O2G         5.5076   -2.8988   -2.0534 O.co2     1 ATP         0.3195
      4 O3G         6.6753   -2.3651   -4.2698 O.co2     1 ATP         0.3195
      5 PB          3.6383   -1.4215   -5.3785 P.3       1 ATP        -0.9715
      6 O1B         4.6312   -0.7866   -6.3069 O.2       1 ATP         0.2707
      7 O2B         2.9582   -2.7798   -5.9323 O.3       1 ATP         0.0326
      8 O3B         4.2387   -1.8729   -3.9460 O.3       1 ATP         0.4672
      9 PA          2.3065    0.9470   -4.2302 P.3       1 ATP        -1.1062
     10 O1A         0.8552    1.2820   -3.9631 O.co2     1 ATP         0.3195
     11 O2A         3.2099    1.9122   -4.9662 O.co2     1 ATP         0.3195
     12 O3A         2.3723   -0.5000   -4.9816 O.3       1 ATP         0.4672
     13 O5'         3.0213    0.5153   -2.8245 O.3       1 ATP         0.1618
     14 C5'         2.2816   -0.2918   -1.9206 C.3       1 ATP         0.1504
     15 C4'         2.7248    0.0226   -0.4980 C.3       1 ATP         0.1111
     16 O4'         2.4697    1.4219   -0.2462 O.3       1 ATP        -0.1436
     17 C3'         1.9404   -0.7419    0.5596 C.3       1 ATP         0.1111
     18 O3'         2.7418   -0.8086    1.7389 O.3       1 ATP        -0.2728
     19 C2'         0.7477    0.1630    0.7858 C.3       1 ATP         0.1111
     20 O2'         0.1373   -0.0577    2.0407 O.3       1 ATP        -0.2728
     21 C1'         1.3733    1.5427    0.6747 C.3       1 ATP         0.2693
     22 N9          0.4520    2.5240    0.1767 N.pl3     1 ATP        -0.3222
     23 C8         -0.7463    2.2774   -0.7501 C.ar      1 ATP         0.1640
     24 N7         -1.3714    3.4419   -0.9948 N.2       1 ATP        -0.1640
     25 C5         -0.6104    4.3223   -0.2723 C.ar      1 ATP         0.0820
     26 C6         -0.9062    5.7820   -0.2194 C.ar      1 ATP         0.1640
     27 N6         -1.9385    6.2713   -0.8881 N.pl3     1 ATP        -0.4916
     28 N1         -0.0613    6.4906    0.5336 N.pl3     1 ATP        -0.4390
     29 C2          1.0416    5.8662    1.2291 C.ar      1 ATP         0.5691
     30 N3          1.3146    4.5989    1.1954 N.ar      1 ATP        -0.4283
     31 C4          0.4541    3.8697    0.4273 C.ar      1 ATP         0.2226
     32 HOB2        2.4428   -2.7458   -6.7662 H         1 ATP         0.2010
     33 H5'1        1.2163   -0.0770   -2.0471 H         1 ATP        -0.0393
     34 H5'2        2.4655   -1.3443   -2.1563 H         1 ATP        -0.0393
     35 H4'         3.8040   -0.1399   -0.4044 H         1 ATP        -0.0393
     36 H3'         1.6768   -1.7637    0.2732 H         1 ATP        -0.0393
     37 HO3'        2.2231   -1.2979    2.3952 H         1 ATP         0.2010
     38 H2'         0.0002   -0.0084   -0.0014 H         1 ATP        -0.0393
     39 HO2'       -0.6132    0.5577    2.1063 H         1 ATP         0.2010
     40 H1'         1.7718    1.9211    1.6015 H         1 ATP        -0.0393
     41 H8         -1.1244    1.3534   -1.1987 H         1 ATP         0.0000
     42 HN61       -2.5259    5.6573   -1.4336 H         1 ATP         0.2048
     43 HN62       -2.1416    7.2600   -0.8539 H         1 ATP         0.2048
     44 H2          1.6509    6.5764    1.8088 H         1 ATP        -0.1292
     45 H45        -0.2190    7.4917    0.6033 H         1 ATP         0.2048
@<TRIPOS>BOND
     1    1    2 2
     2    1    3 1
     3    1    4 1
     4    1    8 1
     5    5    6 2
     6    5    7 1
     7    5    8 1
     8    5   12 1
     9    7   32 1
    10    9   10 2
    11    9   11 1
    12    9   12 1
    13    9   13 1
    14   13   14 1
    15   14   15 1
    16   14   33 1
    17   14   34 1
    18   15   16 1
    19   15   17 1
    20   15   35 1
    21   16   21 1
    22   17   18 1
    23   17   19 1
    24   17   36 1
    25   18   37 1
    26   19   20 1
    27   19   21 1
    28   19   38 1
    29   20   39 1
    30   21   22 1
    31   21   40 1
    32   22   23 ar
    33   22   31 ar
    34   23   24 ar
    35   23   41 1
    36   24   25 ar
    37   25   26 ar
    38   25   31 ar
    39   26   27 1
    40   26   28 ar
    41   27   42 1
    42   27   43 1
    43   28   29 ar
    44   28   45 1
    45   29   30 ar
    46   29   44 1
    47   30   31 ar
@<TRIPOS>SUBSTRUCTURE
     1 ATP         1 GROUP 0 A     ****
@<TRIPOS>MOLECULE
[[[5-(6-amino-1,8-dihydropurine-6,8-diylium-7-id-9-yl)-3,4-dihydroxy-tetrahydrofuran-2-yl]methoxy-oxido-phosphoryl]oxy-hydroxy-phosphoryl] phosphate
   45    47     1     0     0
SMALL
USER_CHARGES

@<TRIPOS>ATOM
      1 PG          2.2839   -5.0233   -6.6152 P.3       1 ATP        -1.1921
      2 O1G         3.2095   -4.7253   -7.7902 O.co2     1 ATP         0.3195
      3 O2G         0.7997   -4.8765   -6.9344 O.co2     1 ATP         0.3195
      4 O3G         2.6356   -6.2909   -5.8434 O.co2     1 ATP         0.3195
      5 PB          3.9465   -3.3697   -4.7989 P.3       1 ATP        -0.9715
      6 O1B         4.5463   -4.4277   -3.9206 O.2       1 ATP         0.2707
      7 O2B         4.8896   -2.8788   -6.0170 O.3       1 ATP         0.0326
      8 O3B         2.5798   -3.8021   -5.5482 O.3       1 ATP         0.4672
      9 PA          4.4649   -0.9309   -3.2223 P.3       1 ATP        -1.1062
     10 O1A         5.4238   -0.2697   -4.1883 O.co2     1 ATP         0.3195
     11 O2A         4.9637   -1.6073   -1.9641 O.co2     1 ATP         0.3195
     12 O3A         3.5467   -1.9937   -4.0529 O.3       1 ATP         0.4672
     13 O5'         3.2903    0.1346   -2.8241 O.3       1 ATP         0.1618
     14 C5'         2.2816   -0.2918   -1.9206 C.3       1 ATP         0.1504
     15 C4'         2.7248    0.0226   -0.4980 C.3       1 ATP         0.1111
     16 O4'         2.4697    1.4219   -0.2462 O.3       1 ATP        -0.1436
     17 C3'         1.9404   -0.7419    0.5596 C.3       1 ATP         0.1111
     18 O3'         2.7418   -0.8086    1.7389 O.3       1 ATP        -0.2728
     19 C2'         0.7477    0.1630    0.7858 C.3       1 ATP         0.1111
     20 O2'         0.1373   -0.0577    2.0407 O.3       1 ATP        -0.2728
     21 C1'         1.3733    1.5427    0.6747 C.3       1 ATP         0.2693
     22 N9          0.4520    2.5240    0.1767 N.pl3     1 ATP        -0.3222
     23 C8          0.5793    3.3338   -1.1209 C.ar      1 ATP         0.1640
     24 N7         -0.4807    4.1508   -1.2458 N.2       1 ATP        -0.1640
     25 C5         -1.1921    3.8572   -0.1126 C.ar      1 ATP         0.0820
     26 C6         -2.4855    4.5203    0.2163 C.ar      1 ATP         0.1640
     27 N6         -2.9873    5.4319   -0.6020 N.pl3     1 ATP        -0.4916
     28 N1         -3.0414    4.1119    1.3596 N.pl3     1 ATP        -0.4390
     29 C2         -2.4169    3.1071    2.1904 C.ar      1 ATP         0.5691
     30 N3         -1.2928    2.5191    1.9210 N.ar      1 ATP        -0.4283
     31 C4         -0.7202    2.9326    0.7534 C.ar      1 ATP         0.2226
     32 HOB2        5.7621   -2.4810   -5.8102 H         1 ATP         0.2010
     33 H5'1        1.3514    0.2330   -2.1577 H         1 ATP        -0.0393
     34 H5'2        2.1280   -1.3678   -2.0460 H         1 ATP        -0.0393
     35 H4'         3.8040   -0.1399   -0.4044 H         1 ATP        -0.0393
     36 H3'         1.6768   -1.7637    0.2732 H         1 ATP        -0.0393
     37 HO3'        2.2231   -1.2979    2.3952 H         1 ATP         0.2010
     38 H2'         0.0002   -0.0084   -0.0014 H         1 ATP        -0.0393
     39 HO2'       -0.1554   -0.9852    2.0577 H         1 ATP         0.2010
     40 H1'         1.7718    1.9211    1.6015 H         1 ATP        -0.0393
     41 H8          1.3565    3.3309   -1.8916 H         1 ATP         0.0000
     42 HN61       -2.4952    5.6785   -1.4487 H         1 ATP         0.2048
     43 HN62       -3.8637    5.8828   -0.3819 H         1 ATP         0.2048
     44 H2         -2.9911    2.8734    3.1000 H         1 ATP        -0.1292
     45 H45        -3.9253    4.5332    1.6302 H         1 ATP         0.2048
@<TRIPOS>BOND
     1    1    2 2
     2    1    3 1
     3    1    4 1
     4    1    8 1
     5    5    6 2
     6    5    7 1
     7    5    8 1
     8    5   12 1
     9    7   32 1
    10    9   10 2
    11    9   11 1
    12    9   12 1
    13    9   13 1
    14   13   14 1
    15   14   15 1
    16   14   33 1
    17   14   34 1
    18   15   16 1
    19   15   17 1
    20   15   35 1
    21   16   21 1
    22   17   18 1
    23   17   19 1
    24   17   36 1
    25   18   37 1
    26   19   20 1
    27   19   21 1
    28   19   38 1
    29   20   39 1
    30   21   22 1
    31   21   40 1
    32   22   23 ar
    33   22   31 ar
    34   23   24 ar
    35   23   41 1
    36   24   25 ar
    37   25   26 ar
    38   25   31 ar
    39   26   27 1
    40   26   28 ar
    41   27   42 1
    42   27   43 1
    43   28   29 ar
    44   28   45 1
    45   29   30 ar
    46   29   44 1
    47   30   31 ar
@<TRIPOS>SUBSTRUCTURE
     1 ATP         1 GROUP 0 A     ****
@<TRIPOS>MOLECULE
[[[5-(6-amino-1,8-dihydropurine-6,8-diylium-7-id-9-yl)-3,4-dihydroxy-tetrahydrofuran-2-yl]methoxy-oxido-phosphoryl]oxy-hydroxy-phosphoryl] phosphate
   45    47     1     0     0
SMALL
USER_CHARGES

@<TRIPOS>ATOM
      1 PG          6.5255    0.7562   -4.9514 P.3       1 ATP        -1.1921
      2 O1G         6.4963    1.2441   -6.3961 O.co2     1 ATP         0.3195
      3 O2G         7.9193    0.7111   -4.3337 O.co2     1 ATP         0.3195
      4 O3G         5.4635    1.3834   -4.0543 O.co2     1 ATP         0.3195
      5 PB          4.7320   -1.5126   -5.6104 P.3       1 ATP        -0.9715
      6 O1B         4.1731   -0.8817   -6.8514 O.2       1 ATP         0.2707
      7 O2B         5.1439   -3.0687   -5.7621 O.3       1 ATP         0.0326
      8 O3B         6.0879   -0.8300   -5.0519 O.3       1 ATP         0.4672
      9 PA          3.9759   -2.0799   -2.8160 P.3       1 ATP        -1.1062
     10 O1A         5.0561   -1.2582   -2.1469 O.co2     1 ATP         0.3195
     11 O2A         4.0697   -3.5886   -2.8849 O.co2     1 ATP         0.3195
     12 O3A         3.7515   -1.5051   -4.3266 O.3       1 ATP         0.4672
     13 O5'         2.5245   -1.6648   -2.1878 O.3       1 ATP         0.1618
     14 C5'         2.2816   -0.2918   -1.9206 C.3       1 ATP         0.1504
     15 C4'         2.7248    0.0226   -0.4980 C.3       1 ATP         0.1111
     16 O4'         2.4697    1.4219   -0.2462 O.3       1 ATP        -0.1436
     17 C3'         1.9404   -0.7419    0.5596 C.3       1 ATP         0.1111
     18 O3'         2.7418   -0.8086    1.7389 O.3       1 ATP        -0.2728
     19 C2'         0.7477    0.1630    0.7858 C.3       1 ATP         0.1111
     20 O2'         0.1373   -0.0577    2.0407 O.3       1 ATP        -0.2728
     21 C1'         1.3733    1.5427    0.6747 C.3       1 ATP         0.2693
     22 N9          0.4520    2.5240    0.1767 N.pl3     1 ATP        -0.3222
     23 C8         -0.3054    2.4845   -1.1576 C.ar      1 ATP         0.1640
     24 N7         -1.0755    3.5806   -1.2691 N.2       1 ATP        -0.1640
     25 C5         -0.8043    4.2306   -0.0942 C.ar      1 ATP         0.0820
     26 C6         -1.4324    5.5335    0.2646 C.ar      1 ATP         0.1640
     27 N6         -2.2885    6.1054   -0.5675 N.pl3     1 ATP        -0.4916
     28 N1         -1.0537    6.0229    1.4478 N.pl3     1 ATP        -0.4390
     29 C2         -0.1096    5.3242    2.2908 C.ar      1 ATP         0.5691
     30 N3          0.4468    4.1904    1.9960 N.ar      1 ATP        -0.4283
     31 C4          0.0631    3.6855    0.7877 C.ar      1 ATP         0.2226
     32 HOB2        4.4535   -3.7195   -6.0109 H         1 ATP         0.2010
     33 H5'1        2.8432    0.3119   -2.6398 H         1 ATP        -0.0393
     34 H5'2        1.2128   -0.0927   -2.0428 H         1 ATP        -0.0393
     35 H4'         3.8040   -0.1399   -0.4044 H         1 ATP        -0.0393
     36 H3'         1.6768   -1.7637    0.2732 H         1 ATP        -0.0393
     37 HO3'        3.5553   -1.2733    1.4913 H         1 ATP         0.2010
     38 H2'         0.0002   -0.0084   -0.0014 H         1 ATP        -0.0393
     39 HO2'       -0.1554   -0.9852    2.0577 H         1 ATP         0.2010
     40 H1'         1.7718    1.9211    1.6015 H         1 ATP        -0.0393
     41 H8         -0.2991    1.7413   -1.9611 H         1 ATP         0.0000
     42 HN61       -2.5167    5.6603   -1.4447 H         1 ATP         0.2048
     43 HN62       -2.7159    6.9882   -0.3270 H         1 ATP         0.2048
     44 H2          0.1059    5.8491    3.2340 H         1 ATP        -0.1292
     45 H45        -1.4532    6.9099    1.7401 H         1 ATP         0.2048
@<TRIPOS>BOND
     1    1    2 2
     2    1    3 1
     3    1    4 1
     4    1    8 1
     5    5    6 2
     6    5    7 1
     7    5    8 1
     8    5   12 1
     9    7   32 1
    10    9   10 2
    11    9   11 1
    12    9   12 1
    13    9   13 1
    14   13   14 1
    15   14   15 1
    16   14   33 1
    17   14   34 1
    18   15   16 1
    19   15   17 1
    20   15   35 1
    21   16   21 1
    22   17   18 1
    23   17   19 1
    24   17   36 1
    25   18   37 1
    26   19   20 1
    27   19   21 1
    28   19   38 1
    29   20   39 1
    30   21   22 1
    31   21   40 1
    32   22   23 ar
    33   22   31 ar
    34   23   24 ar
    35   23   41 1
    36   24   25 ar
    37   25   26 ar
    38   25   31 ar
    39   26   27 1
    40   26   28 ar
    41   27   42 1
    42   27   43 1
    43   28   29 ar
    44   28   45 1
    45   29   30 ar
    46   29   44 1
    47   30   31 ar
@<TRIPOS>SUBSTRUCTURE
     1 ATP         1 GROUP 0 A     ****
@<TRIPOS>MOLECULE
[[[5-(6-amino-1,8-dihydropurine-6,8-diylium-7-id-9-yl)-3,4-dihydroxy-tetrahydrofuran-2-yl]methoxy-oxido-phosphoryl]oxy-hydroxy-phosphoryl] phosphate
   45    47     1     0     0
SMALL
USER_CHARGES

@<TRIPOS>ATOM
      1 PG          6.9512    1.3688    0.7067 P.3       1 ATP        -1.1921
      2 O1G         8.0717    2.2313    0.1352 O.co2     1 ATP         0.3195
      3 O2G         7.1830    0.9124    2.1435 O.co2     1 ATP         0.3195
      4 O3G         5.5478    1.9023    0.4384 O.co2     1 ATP         0.3195
      5 PB          6.8731   -0.2810   -1.7570 P.3       1 ATP        -0.9715
      6 O1B         7.8734    0.4385   -2.6127 O.2       1 ATP         0.2707
      7 O2B         6.9105   -1.8933   -1.8728 O.3       1 ATP         0.0326
      8 O3B         7.0299   -0.0266   -0.1673 O.3       1 ATP         0.4672
      9 PA          4.4330   -0.0741   -3.4017 P.3       1 ATP        -1.1062
     10 O1A         4.2674   -1.5486   -3.6983 O.co2     1 ATP         0.3195
     11 O2A         4.9745    0.8783   -4.4455 O.co2     1 ATP         0.3195
     12 O3A         5.3256    0.0823   -2.0447 O.3       1 ATP         0.4672
     13 O5'         3.0213    0.5153   -2.8245 O.3       1 ATP         0.1618
     14 C5'         2.2816   -0.2918   -1.9206 C.3       1 ATP         0.1504
     15 C4'         2.7248    0.0226   -0.4980 C.3       1 ATP         0.1111
     16 O4'         2.4697    1.4219   -0.2462 O.3       1 ATP        -0.1436
     17 C3'         1.9404   -0.7419    0.5596 C.3       1 ATP         0.1111
     18 O3'         2.7418   -0.8086    1.7389 O.3       1 ATP        -0.2728
     19 C2'         0.7477    0.1630    0.7858 C.3       1 ATP         0.1111
     20 O2'         0.1373   -0.0577    2.0407 O.3       1 ATP        -0.2728
     21 C1'         1.3733    1.5427    0.6747 C.3       1 ATP         0.2693
     22 N9          0.4520    2.5240    0.1767 N.pl3     1 ATP        -0.3222
     23 C8         -0.3054    2.4845   -1.1576 C.ar      1 ATP         0.1640
     24 N7         -1.0755    3.5806   -1.2691 N.2       1 ATP        -0.1640
     25 C5         -0.8043    4.2306   -0.0942 C.ar      1 ATP         0.0820
     26 C6         -1.4324    5.5335    0.2646 C.ar      1 ATP         0.1640
     27 N6         -2.2885    6.1054   -0.5675 N.pl3     1 ATP        -0.4916
     28 N1         -1.0537    6.0229    1.4478 N.pl3     1 ATP        -0.4390
     29 C2         -0.1096    5.3242    2.2908 C.ar      1 ATP         0.5691
     30 N3          0.4468    4.1904    1.9960 N.ar      1 ATP        -0.4283
     31 C4          0.0631    3.6855    0.7877 C.ar      1 ATP         0.2226
     32 HOB2        7.7367   -2.3663   -1.6367 H         1 ATP         0.2010
     33 H5'1        1.2163   -0.0770   -2.0471 H         1 ATP        -0.0393
     34 H5'2        2.4655   -1.3443   -2.1563 H         1 ATP        -0.0393
     35 H4'         3.8040   -0.1399   -0.4044 H         1 ATP        -0.0393
     36 H3'         1.6768   -1.7637    0.2732 H         1 ATP        -0.0393
     37 HO3'        2.2231   -1.2979    2.3952 H         1 ATP         0.2010
     38 H2'         0.0002   -0.0084   -0.0014 H         1 ATP        -0.0393
     39 HO2'       -0.1554   -0.9852    2.0577 H         1 ATP         0.2010
     40 H1'         1.7718    1.9211    1.6015 H         1 ATP        -0.0393
     41 H8         -0.2991    1.7413   -1.9611 H         1 ATP         0.0000
     42 HN61       -2.5167    5.6603   -1.4447 H         1 ATP         0.2048
     43 HN62       -2.7159    6.9882   -0.3270 H         1 ATP         0.2048
     44 H2          0.1059    5.8491    3.2340 H         1 ATP        -0.1292
     45 H45        -1.4532    6.9099    1.7401 H         1 ATP         0.2048
@<TRIPOS>BOND
     1    1    2 2
     2    1    3 1
     3    1    4 1
     4    1    8 1
     5    5    6 2
     6    5    7 1
     7    5    8 1
     8    5   12 1
     9    7   32 1
    10    9   10 2
    11    9   11 1
    12    9   12 1
    13    9   13 1
    14   13   14 1
    15   14   15 1
    16   14   33 1
    17   14   34 1
    18   15   16 1
    19   15   17 1
    20   15   35 1
    21   16   21 1
    22   17   18 1
    23   17   19 1
    24   17   36 1
    25   18   37 1
    26   19   20 1
    27   19   21 1
    28   19   38 1
    29   20   39 1
    30   21   22 1
    31   21   40 1
    32   22   23 ar
    33   22   31 ar
    34   23   24 ar
    35   23   41 1
    36   24   25 ar
    37   25   26 ar
    38   25   31 ar
    39   26   27 1
    40   26   28 ar
    41   27   42 1
    42   27   43 1
    43   28   29 ar
    44   28   45 1
    45   29   30 ar
    46   29   44 1
    47   30   31 ar
@<TRIPOS>SUBSTRUCTURE
     1 ATP         1 GROUP 0 A     ****
@<TRIPOS>MOLECULE
[[[5-(6-amino-1,8-dihydropurine-6,8-diylium-7-id-9-yl)-3,4-dihydroxy-tetrahydrofuran-2-yl]methoxy-oxido-phosphoryl]oxy-hydroxy-phosphoryl] phosphate
   45    47     1     0     0
SMALL
USER_CHARGES

@<TRIPOS>ATOM
      1 PG          6.6244   -1.9596   -7.3089 P.3       1 ATP        -1.1921
      2 O1G         7.6785   -2.6895   -6.4829 O.co2     1 ATP         0.3195
      3 O2G         7.0995   -0.6379   -7.9034 O.co2     1 ATP         0.3195
      4 O3G         5.8657   -2.8495   -8.2880 O.co2     1 ATP         0.3195
      5 PB          4.5764   -2.4010   -5.2092 P.3       1 ATP        -0.9715
      6 O1B         3.6769   -3.3882   -5.8925 O.2       1 ATP         0.2707
      7 O2B         5.6643   -3.0507   -4.2049 O.3       1 ATP         0.0326
      8 O3B         5.4871   -1.5084   -6.2042 O.3       1 ATP         0.4672
      9 PA          4.4330   -0.0741   -3.4017 P.3       1 ATP        -1.1062
     10 O1A         5.0460    0.9437   -4.3388 O.co2     1 ATP         0.3195
     11 O2A         5.2274   -0.6609   -2.2554 O.co2     1 ATP         0.3195
     12 O3A         3.8289   -1.2993   -4.2944 O.3       1 ATP         0.4672
     13 O5'         3.0213    0.5153   -2.8245 O.3       1 ATP         0.1618
     14 C5'         2.2816   -0.2918   -1.9206 C.3       1 ATP         0.1504
     15 C4'         2.7248    0.0226   -0.4980 C.3       1 ATP         0.1111
     16 O4'         2.4697    1.4219   -0.2462 O.3       1 ATP        -0.1436
     17 C3'         1.9404   -0.7419    0.5596 C.3       1 ATP         0.1111
     18 O3'         2.7418   -0.8086    1.7389 O.3       1 ATP        -0.2728
     19 C2'         0.7477    0.1630    0.7858 C.3       1 ATP         0.1111
     20 O2'         0.1373   -0.0577    2.0407 O.3       1 ATP        -0.2728
     21 C1'         1.3733    1.5427    0.6747 C.3       1 ATP         0.2693
     22 N9          0.4520    2.5240    0.1767 N.pl3     1 ATP        -0.3222
     23 C8         -0.3054    2.4845   -1.1576 C.ar      1 ATP         0.1640
     24 N7         -1.0755    3.5806   -1.2691 N.2       1 ATP        -0.1640
     25 C5         -0.8043    4.2306   -0.0942 C.ar      1 ATP         0.0820
     26 C6         -1.4324    5.5335    0.2646 C.ar      1 ATP         0.1640
     27 N6         -2.2885    6.1054   -0.5675 N.pl3     1 ATP        -0.4916
     28 N1         -1.0537    6.0229    1.4478 N.pl3     1 ATP        -0.4390
     29 C2         -0.1096    5.3242    2.2908 C.ar      1 ATP         0.5691
     30 N3          0.4468    4.1904    1.9960 N.ar      1 ATP        -0.4283
     31 C4          0.0631    3.6855    0.7877 C.ar      1 ATP         0.2226
     32 HOB2        6.3192   -3.6871   -4.5631 H         1 ATP         0.2010
     33 H5'1        1.2163   -0.0770   -2.0471 H         1 ATP        -0.0393
     34 H5'2        2.4655   -1.3443   -2.1563 H         1 ATP        -0.0393
     35 H4'         3.8040   -0.1399   -0.4044 H         1 ATP        -0.0393
     36 H3'         1.6768   -1.7637    0.2732 H         1 ATP        -0.0393
     37 HO3'        3.5553   -1.2733    1.4913 H         1 ATP         0.2010
     38 H2'         0.0002   -0.0084   -0.0014 H         1 ATP        -0.0393
     39 HO2'       -0.1554   -0.9852    2.0577 H         1 ATP         0.2010
     40 H1'         1.7718    1.9211    1.6015 H         1 ATP        -0.0393
     41 H8         -0.2991    1.7413   -1.9611 H         1 ATP         0.0000
     42 HN61       -2.5167    5.6603   -1.4447 H         1 ATP         0.2048
     43 HN62       -2.7159    6.9882   -0.3270 H         1 ATP         0.2048
     44 H2          0.1059    5.8491    3.2340 H         1 ATP        -0.1292
     45 H45        -1.4532    6.9099    1.7401 H         1 ATP         0.2048
@<TRIPOS>BOND
     1    1    2 2
     2    1    3 1
     3    1    4 1
     4    1    8 1
     5    5    6 2
     6    5    7 1
     7    5    8 1
     8    5   12 1
     9    7   32 1
    10    9   10 2
    11    9   11 1
    12    9   12 1
    13    9   13 1
    14   13   14 1
    15   14   15 1
    16   14   33 1
    17   14   34 1
    18   15   16 1
    19   15   17 1
    20   15   35 1
    21   16   21 1
    22   17   18 1
    23   17   19 1
    24   17   36 1
    25   18   37 1
    26   19   20 1
    27   19   21 1
    28   19   38 1
    29   20   39 1
    30   21   22 1
    31   21   40 1
    32   22   23 ar
    33   22   31 ar
    34   23   24 ar
    35   23   41 1
    36   24   25 ar
    37   25   26 ar
    38   25   31 ar
    39   26   27 1
    40   26   28 ar
    41   27   42 1
    42   27   43 1
    43   28   29 ar
    44   28   45 1
    45   29   30 ar
    46   29   44 1
    47   30   31 ar
@<TRIPOS>SUBSTRUCTURE
     1 ATP         1 GROUP 0 A     ****
@<TRIPOS>MOLECULE
[[[5-(6-amino-1,8-dihydropurine-6,8-diylium-7-id-9-yl)-3,4-dihydroxy-tetrahydrofuran-2-yl]methoxy-oxido-phosphoryl]oxy-hydroxy-phosphoryl] phosphate
   45    47     1     0     0
SMALL
USER_CHARGES

@<TRIPOS>ATOM
      1 PG          1.9769   -4.4488   -6.8037 P.3       1 ATP        -1.1921
      2 O1G         1.2616   -4.0127   -8.0782 O.co2     1 ATP         0.3195
      3 O2G         2.1960   -5.9541   -6.6923 O.co2     1 ATP         0.3195
      4 O3G         3.2014   -3.6105   -6.4516 O.co2     1 ATP         0.3195
      5 PB          0.2267   -2.7179   -5.1488 P.3       1 ATP        -0.9715
      6 O1B        -0.1691   -1.8134   -6.2783 O.2       1 ATP         0.2707
      7 O2B        -0.9899   -3.1900   -4.1943 O.3       1 ATP         0.0326
      8 O3B         0.8982   -4.1179   -5.6018 O.3       1 ATP         0.4672
      9 PA          1.9795   -2.7507   -2.7763 P.3       1 ATP        -1.1062
     10 O1A         2.8643   -3.9034   -3.1986 O.co2     1 ATP         0.3195
     11 O2A         0.9003   -2.9342   -1.7317 O.co2     1 ATP         0.3195
     12 O3A         1.3028   -2.1032   -4.1125 O.3       1 ATP         0.4672
     13 O5'         2.9216   -1.4836   -2.3516 O.3       1 ATP         0.1618
     14 C5'         2.2816   -0.2918   -1.9206 C.3       1 ATP         0.1504
     15 C4'         2.7248    0.0226   -0.4980 C.3       1 ATP         0.1111
     16 O4'         2.4697    1.4219   -0.2462 O.3       1 ATP        -0.1436
     17 C3'         1.9404   -0.7419    0.5596 C.3       1 ATP         0.1111
     18 O3'         2.7418   -0.8086    1.7389 O.3       1 ATP        -0.2728
     19 C2'         0.7477    0.1630    0.7858 C.3       1 ATP         0.1111
     20 O2'         0.1373   -0.0577    2.0407 O.3       1 ATP        -0.2728
     21 C1'         1.3733    1.5427    0.6747 C.3       1 ATP         0.2693
     22 N9          0.4520    2.5240    0.1767 N.pl3     1 ATP        -0.3222
     23 C8          0.1798    2.8712   -1.2933 C.ar      1 ATP         0.1640
     24 N7         -0.7494    3.8400   -1.3610 N.2       1 ATP        -0.1640
     25 C5         -1.0173    4.0603   -0.0358 C.ar      1 ATP         0.0820
     26 C6         -2.0105    5.0717    0.4241 C.ar      1 ATP         0.1640
     27 N6         -2.6723    5.7982   -0.4628 N.pl3     1 ATP        -0.4916
     28 N1         -2.1445    5.1522    1.7502 N.pl3     1 ATP        -0.4390
     29 C2         -1.3755    4.3143    2.6426 C.ar      1 ATP         0.5691
     30 N3         -0.5075    3.4292    2.2616 N.ar      1 ATP        -0.4283
     31 C4         -0.3667    3.3425    0.9070 C.ar      1 ATP         0.2226
     32 HOB2       -1.7335   -3.6938   -4.5886 H         1 ATP         0.2010
     33 H5'1        2.5589    0.5217   -2.5976 H         1 ATP        -0.0393
     34 H5'2        1.1982   -0.4388   -1.9617 H         1 ATP        -0.0393
     35 H4'         3.8040   -0.1399   -0.4044 H         1 ATP        -0.0393
     36 H3'         1.6768   -1.7637    0.2732 H         1 ATP        -0.0393
     37 HO3'        2.2231   -1.2979    2.3952 H         1 ATP         0.2010
     38 H2'         0.0002   -0.0084   -0.0014 H         1 ATP        -0.0393
     39 HO2'       -0.1554   -0.9852    2.0577 H         1 ATP         0.2010
     40 H1'         1.7718    1.9211    1.6015 H         1 ATP        -0.0393
     41 H8          0.6089    2.4651   -2.2147 H         1 ATP         0.0000
     42 HN61       -2.5055    5.6680   -1.4503 H         1 ATP         0.2048
     43 HN62       -3.3462    6.4841   -0.1542 H         1 ATP         0.2048
     44 H2         -1.5932    4.4937    3.7066 H         1 ATP        -0.1292
     45 H45        -2.8098    5.8270    2.1160 H         1 ATP         0.2048
@<TRIPOS>BOND
     1    1    2 2
     2    1    3 1
     3    1    4 1
     4    1    8 1
     5    5    6 2
     6    5    7 1
     7    5    8 1
     8    5   12 1
     9    7   32 1
    10    9   10 2
    11    9   11 1
    12    9   12 1
    13    9   13 1
    14   13   14 1
    15   14   15 1
    16   14   33 1
    17   14   34 1
    18   15   16 1
    19   15   17 1
    20   15   35 1
    21   16   21 1
    22   17   18 1
    23   17   19 1
    24   17   36 1
    25   18   37 1
    26   19   20 1
    27   19   21 1
    28   19   38 1
    29   20   39 1
    30   21   22 1
    31   21   40 1
    32   22   23 ar
    33   22   31 ar
    34   23   24 ar
    35   23   41 1
    36   24   25 ar
    37   25   26 ar
    38   25   31 ar
    39   26   27 1
    40   26   28 ar
    41   27   42 1
    42   27   43 1
    43   28   29 ar
    44   28   45 1
    45   29   30 ar
    46   29   44 1
    47   30   31 ar
@<TRIPOS>SUBSTRUCTURE
     1 ATP         1 GROUP 0 A     ****
@<TRIPOS>MOLECULE
[[[5-(6-amino-1,8-dihydropurine-6,8-diylium-7-id-9-yl)-3,4-dihydroxy-tetrahydrofuran-2-yl]methoxy-oxido-phosphoryl]oxy-hydroxy-phosphoryl] phosphate
   45    47     1     0     0
SMALL
USER_CHARGES

@<TRIPOS>ATOM
      1 PG          3.5544   -1.3050   -8.1595 P.3       1 ATP        -1.1921
      2 O1G         2.9957   -2.6493   -8.6146 O.co2     1 ATP         0.3195
      3 O2G         4.9670   -1.0137   -8.6553 O.co2     1 ATP         0.3195
      4 O3G         2.5849   -0.1374   -8.3109 O.co2     1 ATP         0.3195
      5 PB          2.6455   -1.7927   -5.3785 P.3       1 ATP        -0.9715
      6 O1B         1.5409   -0.7847   -5.2596 O.2       1 ATP         0.2707
      7 O2B         2.1638   -3.2935   -5.7390 O.3       1 ATP         0.0326
      8 O3B         3.7360   -1.4741   -6.5298 O.3       1 ATP         0.4672
      9 PA          4.4649   -0.9309   -3.2223 P.3       1 ATP        -1.1062
     10 O1A         5.4238   -0.2697   -4.1883 O.co2     1 ATP         0.3195
     11 O2A         4.9637   -1.6073   -1.9641 O.co2     1 ATP         0.3195
     12 O3A         3.5467   -1.9937   -4.0529 O.3       1 ATP         0.4672
     13 O5'         3.2903    0.1346   -2.8241 O.3       1 ATP         0.1618
     14 C5'         2.2816   -0.2918   -1.9206 C.3       1 ATP         0.1504
     15 C4'         2.7248    0.0226   -0.4980 C.3       1 ATP         0.1111
     16 O4'         2.4697    1.4219   -0.2462 O.3       1 ATP        -0.1436
     17 C3'         1.9404   -0.7419    0.5596 C.3       1 ATP         0.1111
     18 O3'         2.7418   -0.8086    1.7389 O.3       1 ATP        -0.2728
     19 C2'         0.7477    0.1630    0.7858 C.3       1 ATP         0.1111
     20 O2'         0.1373   -0.0577    2.0407 O.3       1 ATP        -0.2728
     21 C1'         1.3733    1.5427    0.6747 C.3       1 ATP         0.2693
     22 N9          0.4520    2.5240    0.1767 N.pl3     1 ATP        -0.3222
     23 C8          0.5793    3.3338   -1.1209 C.ar      1 ATP         0.1640
     24 N7         -0.4807    4.1508   -1.2458 N.2       1 ATP        -0.1640
     25 C5         -1.1921    3.8572   -0.1126 C.ar      1 ATP         0.0820
     26 C6         -2.4855    4.5203    0.2163 C.ar      1 ATP         0.1640
     27 N6         -2.9873    5.4319   -0.6020 N.pl3     1 ATP        -0.4916
     28 N1         -3.0414    4.1119    1.3596 N.pl3     1 ATP        -0.4390
     29 C2         -2.4169    3.1071    2.1904 C.ar      1 ATP         0.5691
     30 N3         -1.2928    2.5191    1.9210 N.ar      1 ATP        -0.4283
     31 C4         -0.7202    2.9326    0.7534 C.ar      1 ATP         0.2226
     32 HOB2        1.6769   -3.4465   -6.5766 H         1 ATP         0.2010
     33 H5'1        1.3514    0.2330   -2.1577 H         1 ATP        -0.0393
     34 H5'2        2.1280   -1.3678   -2.0460 H         1 ATP        -0.0393
     35 H4'         3.8040   -0.1399   -0.4044 H         1 ATP        -0.0393
     36 H3'         1.6768   -1.7637    0.2732 H         1 ATP        -0.0393
     37 HO3'        2.2231   -1.2979    2.3952 H         1 ATP         0.2010
     38 H2'         0.0002   -0.0084   -0.0014 H         1 ATP        -0.0393
     39 HO2'        0.8091    0.1203    2.7213 H         1 ATP         0.2010
     40 H1'         1.7718    1.9211    1.6015 H         1 ATP        -0.0393
     41 H8          1.3565    3.3309   -1.8916 H         1 ATP         0.0000
     42 HN61       -2.4952    5.6785   -1.4487 H         1 ATP         0.2048
     43 HN62       -3.8637    5.8828   -0.3819 H         1 ATP         0.2048
     44 H2         -2.9911    2.8734    3.1000 H         1 ATP        -0.1292
     45 H45        -3.9253    4.5332    1.6302 H         1 ATP         0.2048
@<TRIPOS>BOND
     1    1    2 2
     2    1    3 1
     3    1    4 1
     4    1    8 1
     5    5    6 2
     6    5    7 1
     7    5    8 1
     8    5   12 1
     9    7   32 1
    10    9   10 2
    11    9   11 1
    12    9   12 1
    13    9   13 1
    14   13   14 1
    15   14   15 1
    16   14   33 1
    17   14   34 1
    18   15   16 1
    19   15   17 1
    20   15   35 1
    21   16   21 1
    22   17   18 1
    23   17   19 1
    24   17   36 1
    25   18   37 1
    26   19   20 1
    27   19   21 1
    28   19   38 1
    29   20   39 1
    30   21   22 1
    31   21   40 1
    32   22   23 ar
    33   22   31 ar
    34   23   24 ar
    35   23   41 1
    36   24   25 ar
    37   25   26 ar
    38   25   31 ar
    39   26   27 1
    40   26   28 ar
    41   27   42 1
    42   27   43 1
    43   28   29 ar
    44   28   45 1
    45   29   30 ar
    46   29   44 1
    47   30   31 ar
@<TRIPOS>SUBSTRUCTURE
     1 ATP         1 GROUP 0 A     ****
@<TRIPOS>MOLECULE
[[[5-(6-amino-1,8-dihydropurine-6,8-diylium-7-id-9-yl)-3,4-dihydroxy-tetrahydrofuran-2-yl]methoxy-oxido-phosphoryl]oxy-hydroxy-phosphoryl] phosphate
   45    47     1     0     0
SMALL
USER_CHARGES

@<TRIPOS>ATOM
      1 PG          2.2406   -0.3776   -8.3475 P.3       1 ATP        -1.1921
      2 O1G         2.8422   -1.6346   -8.9672 O.co2     1 ATP         0.3195
      3 O2G         2.6975    0.9228   -9.0005 O.co2     1 ATP         0.3195
      4 O3G         0.7384   -0.4575   -8.0963 O.co2     1 ATP         0.3195
      5 PB          2.8234   -1.3656   -5.6122 P.3       1 ATP        -0.9715
      6 O1B         1.4379   -1.6462   -5.1101 O.2       1 ATP         0.2707
      7 O2B         3.6154   -2.6535   -6.1850 O.3       1 ATP         0.0326
      8 O3B         2.9024   -0.3145   -6.8391 O.3       1 ATP         0.4672
      9 PA          4.3693   -1.3505   -3.0998 P.3       1 ATP        -1.1062
     10 O1A         5.1886   -0.2860   -2.4031 O.co2     1 ATP         0.3195
     11 O2A         4.9285   -2.7357   -3.3409 O.co2     1 ATP         0.3195
     12 O3A         3.8442   -0.7486   -4.5227 O.3       1 ATP         0.4672
     13 O5'         2.9216   -1.4836   -2.3516 O.3       1 ATP         0.1618
     14 C5'         2.2816   -0.2918   -1.9206 C.3       1 ATP         0.1504
     15 C4'         2.7248    0.0226   -0.4980 C.3       1 ATP         0.1111
     16 O4'         2.4697    1.4219   -0.2462 O.3       1 ATP        -0.1436
     17 C3'         1.9404   -0.7419    0.5596 C.3       1 ATP         0.1111
     18 O3'         2.7418   -0.8086    1.7389 O.3       1 ATP        -0.2728
     19 C2'         0.7477    0.1630    0.7858 C.3       1 ATP         0.1111
     20 O2'         0.1373   -0.0577    2.0407 O.3       1 ATP        -0.2728
     21 C1'         1.3733    1.5427    0.6747 C.3       1 ATP         0.2693
     22 N9          0.4520    2.5240    0.1767 N.pl3     1 ATP        -0.3222
     23 C8         -0.3054    2.4845   -1.1576 C.ar      1 ATP         0.1640
     24 N7         -1.0755    3.5806   -1.2691 N.2       1 ATP        -0.1640
     25 C5         -0.8043    4.2306   -0.0942 C.ar      1 ATP         0.0820
     26 C6         -1.4324    5.5335    0.2646 C.ar      1 ATP         0.1640
     27 N6         -2.2885    6.1054   -0.5675 N.pl3     1 ATP        -0.4916
     28 N1         -1.0537    6.0229    1.4478 N.pl3     1 ATP        -0.4390
     29 C2         -0.1096    5.3242    2.2908 C.ar      1 ATP         0.5691
     30 N3          0.4468    4.1904    1.9960 N.ar      1 ATP        -0.4283
     31 C4          0.0631    3.6855    0.7877 C.ar      1 ATP         0.2226
     32 HOB2        3.7811   -3.4128   -5.5864 H         1 ATP         0.2010
     33 H5'1        2.5589    0.5217   -2.5976 H         1 ATP        -0.0393
     34 H5'2        1.1982   -0.4388   -1.9617 H         1 ATP        -0.0393
     35 H4'         3.8040   -0.1399   -0.4044 H         1 ATP        -0.0393
     36 H3'         1.6768   -1.7637    0.2732 H         1 ATP        -0.0393
     37 HO3'        2.2231   -1.2979    2.3952 H         1 ATP         0.2010
     38 H2'         0.0002   -0.0084   -0.0014 H         1 ATP        -0.0393
     39 HO2'       -0.6132    0.5577    2.1063 H         1 ATP         0.2010
     40 H1'         1.7718    1.9211    1.6015 H         1 ATP        -0.0393
     41 H8         -0.2991    1.7413   -1.9611 H         1 ATP         0.0000
     42 HN61       -2.5167    5.6603   -1.4447 H         1 ATP         0.2048
     43 HN62       -2.7159    6.9882   -0.3270 H         1 ATP         0.2048
     44 H2          0.1059    5.8491    3.2340 H         1 ATP        -0.1292
     45 H45        -1.4532    6.9099    1.7401 H         1 ATP         0.2048
@<TRIPOS>BOND
     1    1    2 2
     2    1    3 1
     3    1    4 1
     4    1    8 1
     5    5    6 2
     6    5    7 1
     7    5    8 1
     8    5   12 1
     9    7   32 1
    10    9   10 2
    11    9   11 1
    12    9   12 1
    13    9   13 1
    14   13   14 1
    15   14   15 1
    16   14   33 1
    17   14   34 1
    18   15   16 1
    19   15   17 1
    20   15   35 1
    21   16   21 1
    22   17   18 1
    23   17   19 1
    24   17   36 1
    25   18   37 1
    26   19   20 1
    27   19   21 1
    28   19   38 1
    29   20   39 1
    30   21   22 1
    31   21   40 1
    32   22   23 ar
    33   22   31 ar
    34   23   24 ar
    35   23   41 1
    36   24   25 ar
    37   25   26 ar
    38   25   31 ar
    39   26   27 1
    40   26   28 ar
    41   27   42 1
    42   27   43 1
    43   28   29 ar
    44   28   45 1
    45   29   30 ar
    46   29   44 1
    47   30   31 ar
@<TRIPOS>SUBSTRUCTURE
     1 ATP         1 GROUP 0 A     ****
@<TRIPOS>MOLECULE
[[[5-(6-amino-1,8-dihydropurine-6,8-diylium-7-id-9-yl)-3,4-dihydroxy-tetrahydrofuran-2-yl]methoxy-oxido-phosphoryl]oxy-hydroxy-phosphoryl] phosphate
   45    47     1     0     0
SMALL
USER_CHARGES

@<TRIPOS>ATOM
      1 PG          8.0481   -1.4997    1.1962 P.3       1 ATP        -1.1921
      2 O1G         8.4692   -2.9653    1.1672 O.co2     1 ATP         0.3195
      3 O2G         7.5532   -1.0171    2.5558 O.co2     1 ATP         0.3195
      4 O3G         9.0276   -0.5504    0.5138 O.co2     1 ATP         0.3195
      5 PB          6.5021   -1.8244   -1.3143 P.3       1 ATP        -0.9715
      6 O1B         7.3388   -1.0247   -2.2688 O.2       1 ATP         0.2707
      7 O2B         6.7719   -3.4183   -1.3409 O.3       1 ATP         0.0326
      8 O3B         6.7021   -1.4474    0.2459 O.3       1 ATP         0.4672
      9 PA          3.9759   -2.0799   -2.8160 P.3       1 ATP        -1.1062
     10 O1A         4.0154   -3.5790   -3.0181 O.co2     1 ATP         0.3195
     11 O2A         4.3152   -1.1290   -3.9430 O.co2     1 ATP         0.3195
     12 O3A         4.9050   -1.7083   -1.5270 O.3       1 ATP         0.4672
     13 O5'         2.5245   -1.6648   -2.1878 O.3       1 ATP         0.1618
     14 C5'         2.2816   -0.2918   -1.9206 C.3       1 ATP         0.1504
     15 C4'         2.7248    0.0226   -0.4980 C.3       1 ATP         0.1111
     16 O4'         2.4697    1.4219   -0.2462 O.3       1 ATP        -0.1436
     17 C3'         1.9404   -0.7419    0.5596 C.3       1 ATP         0.1111
     18 O3'         2.7418   -0.8086    1.7389 O.3       1 ATP        -0.2728
     19 C2'         0.7477    0.1630    0.7858 C.3       1 ATP         0.1111
     20 O2'         0.1373   -0.0577    2.0407 O.3       1 ATP        -0.2728
     21 C1'         1.3733    1.5427    0.6747 C.3       1 ATP         0.2693
     22 N9          0.4520    2.5240    0.1767 N.pl3     1 ATP        -0.3222
     23 C8          0.1798    2.8712   -1.2933 C.ar      1 ATP         0.1640
     24 N7         -0.7494    3.8400   -1.3610 N.2       1 ATP        -0.1640
     25 C5         -1.0173    4.0603   -0.0358 C.ar      1 ATP         0.0820
     26 C6         -2.0105    5.0717    0.4241 C.ar      1 ATP         0.1640
     27 N6         -2.6723    5.7982   -0.4628 N.pl3     1 ATP        -0.4916
     28 N1         -2.1445    5.1522    1.7502 N.pl3     1 ATP        -0.4390
     29 C2         -1.3755    4.3143    2.6426 C.ar      1 ATP         0.5691
     30 N3         -0.5075    3.4292    2.2616 N.ar      1 ATP        -0.4283
     31 C4         -0.3667    3.3425    0.9070 C.ar      1 ATP         0.2226
     32 HOB2        7.6703   -3.7505   -1.1292 H         1 ATP         0.2010
     33 H5'1        2.8432    0.3119   -2.6398 H         1 ATP        -0.0393
     34 H5'2        1.2128   -0.0927   -2.0428 H         1 ATP        -0.0393
     35 H4'         3.8040   -0.1399   -0.4044 H         1 ATP        -0.0393
     36 H3'         1.6768   -1.7637    0.2732 H         1 ATP        -0.0393
     37 HO3'        2.2231   -1.2979    2.3952 H         1 ATP         0.2010
     38 H2'         0.0002   -0.0084   -0.0014 H         1 ATP        -0.0393
     39 HO2'       -0.6132    0.5577    2.1063 H         1 ATP         0.2010
     40 H1'         1.7718    1.9211    1.6015 H         1 ATP        -0.0393
     41 H8          0.6089    2.4651   -2.2147 H         1 ATP         0.0000
     42 HN61       -2.5055    5.6680   -1.4503 H         1 ATP         0.2048
     43 HN62       -3.3462    6.4841   -0.1542 H         1 ATP         0.2048
     44 H2         -1.5932    4.4937    3.7066 H         1 ATP        -0.1292
     45 H45        -2.8098    5.8270    2.1160 H         1 ATP         0.2048
@<TRIPOS>BOND
     1    1    2 2
     2    1    3 1
     3    1    4 1
     4    1    8 1
     5    5    6 2
     6    5    7 1
     7    5    8 1
     8    5   12 1
     9    7   32 1
    10    9   10 2
    11    9   11 1
    12    9   12 1
    13    9   13 1
    14   13   14 1
    15   14   15 1
    16   14   33 1
    17   14   34 1
    18   15   16 1
    19   15   17 1
    20   15   35 1
    21   16   21 1
    22   17   18 1
    23   17   19 1
    24   17   36 1
    25   18   37 1
    26   19   20 1
    27   19   21 1
    28   19   38 1
    29   20   39 1
    30   21   22 1
    31   21   40 1
    32   22   23 ar
    33   22   31 ar
    34   23   24 ar
    35   23   41 1
    36   24   25 ar
    37   25   26 ar
    38   25   31 ar
    39   26   27 1
    40   26   28 ar
    41   27   42 1
    42   27   43 1
    43   28   29 ar
    44   28   45 1
    45   29   30 ar
    46   29   44 1
    47   30   31 ar
@<TRIPOS>SUBSTRUCTURE
     1 ATP         1 GROUP 0 A     ****
@<TRIPOS>MOLECULE
[[[5-(6-amino-1,8-dihydropurine-6,8-diylium-7-id-9-yl)-3,4-dihydroxy-tetrahydrofuran-2-yl]methoxy-oxido-phosphoryl]oxy-hydroxy-phosphoryl] phosphate
   45    47     1     0     0
SMALL
USER_CHARGES

@<TRIPOS>ATOM
      1 PG          6.6906   -3.2158   -1.3680 P.3       1 ATP        -1.1921
      2 O1G         7.6644   -3.1559   -0.1957 O.co2     1 ATP         0.3195
      3 O2G         6.9885   -4.3233   -2.3735 O.co2     1 ATP         0.3195
      4 O3G         5.2217   -3.1092   -0.9715 O.co2     1 ATP         0.3195
      5 PB          6.8731   -0.2810   -1.7570 P.3       1 ATP        -0.9715
      6 O1B         7.3542    0.0061   -0.3653 O.2       1 ATP         0.2707
      7 O2B         7.6685    0.4996   -2.9285 O.3       1 ATP         0.0326
      8 O3B         6.9863   -1.8297   -2.2098 O.3       1 ATP         0.4672
      9 PA          4.4330   -0.0741   -3.4017 P.3       1 ATP        -1.1062
     10 O1A         4.2674   -1.5486   -3.6983 O.co2     1 ATP         0.3195
     11 O2A         4.9745    0.8783   -4.4455 O.co2     1 ATP         0.3195
     12 O3A         5.3256    0.0823   -2.0447 O.3       1 ATP         0.4672
     13 O5'         3.0213    0.5153   -2.8245 O.3       1 ATP         0.1618
     14 C5'         2.2816   -0.2918   -1.9206 C.3       1 ATP         0.1504
     15 C4'         2.7248    0.0226   -0.4980 C.3       1 ATP         0.1111
     16 O4'         2.4697    1.4219   -0.2462 O.3       1 ATP        -0.1436
     17 C3'         1.9404   -0.7419    0.5596 C.3       1 ATP         0.1111
     18 O3'         2.7418   -0.8086    1.7389 O.3       1 ATP        -0.2728
     19 C2'         0.7477    0.1630    0.7858 C.3       1 ATP         0.1111
     20 O2'         0.1373   -0.0577    2.0407 O.3       1 ATP        -0.2728
     21 C1'         1.3733    1.5427    0.6747 C.3       1 ATP         0.2693
     22 N9          0.4520    2.5240    0.1767 N.pl3     1 ATP        -0.3222
     23 C8         -0.3054    2.4845   -1.1576 C.ar      1 ATP         0.1640
     24 N7         -1.0755    3.5806   -1.2691 N.2       1 ATP        -0.1640
     25 C5         -0.8043    4.2306   -0.0942 C.ar      1 ATP         0.0820
     26 C6         -1.4324    5.5335    0.2646 C.ar      1 ATP         0.1640
     27 N6         -2.2885    6.1054   -0.5675 N.pl3     1 ATP        -0.4916
     28 N1         -1.0537    6.0229    1.4478 N.pl3     1 ATP        -0.4390
     29 C2         -0.1096    5.3242    2.2908 C.ar      1 ATP         0.5691
     30 N3          0.4468    4.1904    1.9960 N.ar      1 ATP        -0.4283
     31 C4          0.0631    3.6855    0.7877 C.ar      1 ATP         0.2226
     32 HOB2        7.6706    1.4805   -2.9275 H         1 ATP         0.2010
     33 H5'1        1.2163   -0.0770   -2.0471 H         1 ATP        -0.0393
     34 H5'2        2.4655   -1.3443   -2.1563 H         1 ATP        -0.0393
     35 H4'         3.8040   -0.1399   -0.4044 H         1 ATP        -0.0393
     36 H3'         1.6768   -1.7637    0.2732 H         1 ATP        -0.0393
     37 HO3'        2.2231   -1.2979    2.3952 H         1 ATP         0.2010
     38 H2'         0.0002   -0.0084   -0.0014 H         1 ATP        -0.0393
     39 HO2'       -0.6132    0.5577    2.1063 H         1 ATP         0.2010
     40 H1'         1.7718    1.9211    1.6015 H         1 ATP        -0.0393
     41 H8         -0.2991    1.7413   -1.9611 H         1 ATP         0.0000
     42 HN61       -2.5167    5.6603   -1.4447 H         1 ATP         0.2048
     43 HN62       -2.7159    6.9882   -0.3270 H         1 ATP         0.2048
     44 H2          0.1059    5.8491    3.2340 H         1 ATP        -0.1292
     45 H45        -1.4532    6.9099    1.7401 H         1 ATP         0.2048
@<TRIPOS>BOND
     1    1    2 2
     2    1    3 1
     3    1    4 1
     4    1    8 1
     5    5    6 2
     6    5    7 1
     7    5    8 1
     8    5   12 1
     9    7   32 1
    10    9   10 2
    11    9   11 1
    12    9   12 1
    13    9   13 1
    14   13   14 1
    15   14   15 1
    16   14   33 1
    17   14   34 1
    18   15   16 1
    19   15   17 1
    20   15   35 1
    21   16   21 1
    22   17   18 1
    23   17   19 1
    24   17   36 1
    25   18   37 1
    26   19   20 1
    27   19   21 1
    28   19   38 1
    29   20   39 1
    30   21   22 1
    31   21   40 1
    32   22   23 ar
    33   22   31 ar
    34   23   24 ar
    35   23   41 1
    36   24   25 ar
    37   25   26 ar
    38   25   31 ar
    39   26   27 1
    40   26   28 ar
    41   27   42 1
    42   27   43 1
    43   28   29 ar
    44   28   45 1
    45   29   30 ar
    46   29   44 1
    47   30   31 ar
@<TRIPOS>SUBSTRUCTURE
     1 ATP         1 GROUP 0 A     ****
@<TRIPOS>MOLECULE
[[[5-(6-amino-1,8-dihydropurine-6,8-diylium-7-id-9-yl)-3,4-dihydroxy-tetrahydrofuran-2-yl]methoxy-oxido-phosphoryl]oxy-hydroxy-phosphoryl] phosphate
   45    47     1     0     0
SMALL
USER_CHARGES

@<TRIPOS>ATOM
      1 PG          9.3000    1.0657   -2.8032 P.3       1 ATP        -1.1921
      2 O1G         9.6889    1.5287   -1.4029 O.co2     1 ATP         0.3195
      3 O2G         9.3931    2.1517   -3.8701 O.co2     1 ATP         0.3195
      4 O3G         9.9089   -0.2705   -3.2155 O.co2     1 ATP         0.3195
      5 PB          6.8731   -0.2810   -1.7570 P.3       1 ATP        -0.9715
      6 O1B         7.2428   -1.7222   -1.9489 O.2       1 ATP         0.2707
      7 O2B         7.1261    0.2958   -0.2679 O.3       1 ATP         0.0326
      8 O3B         7.6840    0.7596   -2.6929 O.3       1 ATP         0.4672
      9 PA          4.4330   -0.0741   -3.4017 P.3       1 ATP        -1.1062
     10 O1A         4.2674   -1.5486   -3.6983 O.co2     1 ATP         0.3195
     11 O2A         4.9745    0.8783   -4.4455 O.co2     1 ATP         0.3195
     12 O3A         5.3256    0.0823   -2.0447 O.3       1 ATP         0.4672
     13 O5'         3.0213    0.5153   -2.8245 O.3       1 ATP         0.1618
     14 C5'         2.2816   -0.2918   -1.9206 C.3       1 ATP         0.1504
     15 C4'         2.7248    0.0226   -0.4980 C.3       1 ATP         0.1111
     16 O4'         2.4697    1.4219   -0.2462 O.3       1 ATP        -0.1436
     17 C3'         1.9404   -0.7419    0.5596 C.3       1 ATP         0.1111
     18 O3'         2.7418   -0.8086    1.7389 O.3       1 ATP        -0.2728
     19 C2'         0.7477    0.1630    0.7858 C.3       1 ATP         0.1111
     20 O2'         0.1373   -0.0577    2.0407 O.3       1 ATP        -0.2728
     21 C1'         1.3733    1.5427    0.6747 C.3       1 ATP         0.2693
     22 N9          0.4520    2.5240    0.1767 N.pl3     1 ATP        -0.3222
     23 C8         -0.3054    2.4845   -1.1576 C.ar      1 ATP         0.1640
     24 N7         -1.0755    3.5806   -1.2691 N.2       1 ATP        -0.1640
     25 C5         -0.8043    4.2306   -0.0942 C.ar      1 ATP         0.0820
     26 C6         -1.4324    5.5335    0.2646 C.ar      1 ATP         0.1640
     27 N6         -2.2885    6.1054   -0.5675 N.pl3     1 ATP        -0.4916
     28 N1         -1.0537    6.0229    1.4478 N.pl3     1 ATP        -0.4390
     29 C2         -0.1096    5.3242    2.2908 C.ar      1 ATP         0.5691
     30 N3          0.4468    4.1904    1.9960 N.ar      1 ATP        -0.4283
     31 C4          0.0631    3.6855    0.7877 C.ar      1 ATP         0.2226
     32 HOB2        6.6597   -0.1215    0.4875 H         1 ATP         0.2010
     33 H5'1        1.2163   -0.0770   -2.0471 H         1 ATP        -0.0393
     34 H5'2        2.4655   -1.3443   -2.1563 H         1 ATP        -0.0393
     35 H4'         3.8040   -0.1399   -0.4044 H         1 ATP        -0.0393
     36 H3'         1.6768   -1.7637    0.2732 H         1 ATP        -0.0393
     37 HO3'        3.5553   -1.2733    1.4913 H         1 ATP         0.2010
     38 H2'         0.0002   -0.0084   -0.0014 H         1 ATP        -0.0393
     39 HO2'       -0.1554   -0.9852    2.0577 H         1 ATP         0.2010
     40 H1'         1.7718    1.9211    1.6015 H         1 ATP        -0.0393
     41 H8         -0.2991    1.7413   -1.9611 H         1 ATP         0.0000
     42 HN61       -2.5167    5.6603   -1.4447 H         1 ATP         0.2048
     43 HN62       -2.7159    6.9882   -0.3270 H         1 ATP         0.2048
     44 H2          0.1059    5.8491    3.2340 H         1 ATP        -0.1292
     45 H45        -1.4532    6.9099    1.7401 H         1 ATP         0.2048
@<TRIPOS>BOND
     1    1    2 2
     2    1    3 1
     3    1    4 1
     4    1    8 1
     5    5    6 2
     6    5    7 1
     7    5    8 1
     8    5   12 1
     9    7   32 1
    10    9   10 2
    11    9   11 1
    12    9   12 1
    13    9   13 1
    14   13   14 1
    15   14   15 1
    16   14   33 1
    17   14   34 1
    18   15   16 1
    19   15   17 1
    20   15   35 1
    21   16   21 1
    22   17   18 1
    23   17   19 1
    24   17   36 1
    25   18   37 1
    26   19   20 1
    27   19   21 1
    28   19   38 1
    29   20   39 1
    30   21   22 1
    31   21   40 1
    32   22   23 ar
    33   22   31 ar
    34   23   24 ar
    35   23   41 1
    36   24   25 ar
    37   25   26 ar
    38   25   31 ar
    39   26   27 1
    40   26   28 ar
    41   27   42 1
    42   27   43 1
    43   28   29 ar
    44   28   45 1
    45   29   30 ar
    46   29   44 1
    47   30   31 ar
@<TRIPOS>SUBSTRUCTURE
     1 ATP         1 GROUP 0 A     ****
@<TRIPOS>MOLECULE
[[[5-(6-amino-1,8-dihydropurine-6,8-diylium-7-id-9-yl)-3,4-dihydroxy-tetrahydrofuran-2-yl]methoxy-oxido-phosphoryl]oxy-hydroxy-phosphoryl] phosphate
   45    47     1     0     0
SMALL
USER_CHARGES

@<TRIPOS>ATOM
      1 PG          3.5000    4.6611   -5.8195 P.3       1 ATP        -1.1921
      2 O1G         2.7167    5.9530   -5.6103 O.co2     1 ATP         0.3195
      3 O2G         4.1997    4.5650   -7.1713 O.co2     1 ATP         0.3195
      4 O3G         4.3695    4.2541   -4.6344 O.co2     1 ATP         0.3195
      5 PB          1.2318    3.0421   -4.8036 P.3       1 ATP        -0.9715
      6 O1B         0.5916    4.1709   -4.0509 O.2       1 ATP         0.2707
      7 O2B         0.2126    2.1378   -5.6740 O.3       1 ATP         0.0326
      8 O3B         2.3395    3.4927   -5.8928 O.3       1 ATP         0.4672
      9 PA          2.8307    0.6109   -4.3192 P.3       1 ATP        -1.1062
     10 O1A         4.0573    1.0195   -5.1055 O.co2     1 ATP         0.3195
     11 O2A         1.8435   -0.3926   -4.8743 O.co2     1 ATP         0.3195
     12 O3A         2.0158    1.9599   -3.8961 O.3       1 ATP         0.4672
     13 O5'         3.2903    0.1346   -2.8241 O.3       1 ATP         0.1618
     14 C5'         2.2816   -0.2918   -1.9206 C.3       1 ATP         0.1504
     15 C4'         2.7248    0.0226   -0.4980 C.3       1 ATP         0.1111
     16 O4'         2.4697    1.4219   -0.2462 O.3       1 ATP        -0.1436
     17 C3'         1.9404   -0.7419    0.5596 C.3       1 ATP         0.1111
     18 O3'         2.7418   -0.8086    1.7389 O.3       1 ATP        -0.2728
     19 C2'         0.7477    0.1630    0.7858 C.3       1 ATP         0.1111
     20 O2'         0.1373   -0.0577    2.0407 O.3       1 ATP        -0.2728
     21 C1'         1.3733    1.5427    0.6747 C.3       1 ATP         0.2693
     22 N9          0.4520    2.5240    0.1767 N.pl3     1 ATP        -0.3222
     23 C8         -1.0660    2.5608    0.3999 C.ar      1 ATP         0.1640
     24 N7         -1.5852    3.6333   -0.2221 N.2       1 ATP        -0.1640
     25 C5         -0.4682    4.1996   -0.7771 C.ar      1 ATP         0.0820
     26 C6         -0.5216    5.4476   -1.5899 C.ar      1 ATP         0.1640
     27 N6         -1.6813    6.0510   -1.7982 N.pl3     1 ATP        -0.4916
     28 N1          0.6621    5.8575   -2.0523 N.pl3     1 ATP        -0.4390
     29 C2          1.8795    5.1301   -1.7717 C.ar      1 ATP         0.5691
     30 N3          1.9458    4.0434   -1.0670 N.ar      1 ATP        -0.4283
     31 C4          0.7388    3.6199   -0.5917 C.ar      1 ATP         0.2226
     32 HOB2       -0.5163    1.6694   -5.2141 H         1 ATP         0.2010
     33 H5'1        1.3514    0.2330   -2.1577 H         1 ATP        -0.0393
     34 H5'2        2.1280   -1.3678   -2.0460 H         1 ATP        -0.0393
     35 H4'         3.8040   -0.1399   -0.4044 H         1 ATP        -0.0393
     36 H3'         1.6768   -1.7637    0.2732 H         1 ATP        -0.0393
     37 HO3'        2.2231   -1.2979    2.3952 H         1 ATP         0.2010
     38 H2'         0.0002   -0.0084   -0.0014 H         1 ATP        -0.0393
     39 HO2'       -0.1554   -0.9852    2.0577 H         1 ATP         0.2010
     40 H1'         1.7718    1.9211    1.6015 H         1 ATP        -0.0393
     41 H8         -1.7235    1.8833    0.9537 H         1 ATP         0.0000
     42 HN61       -2.5296    5.6672   -1.4072 H         1 ATP         0.2048
     43 HN62       -1.7205    6.8969   -2.3483 H         1 ATP         0.2048
     44 H2          2.7750    5.5878   -2.2190 H         1 ATP        -0.1292
     45 H45         0.6808    6.7046   -2.6128 H         1 ATP         0.2048
@<TRIPOS>BOND
     1    1    2 2
     2    1    3 1
     3    1    4 1
     4    1    8 1
     5    5    6 2
     6    5    7 1
     7    5    8 1
     8    5   12 1
     9    7   32 1
    10    9   10 2
    11    9   11 1
    12    9   12 1
    13    9   13 1
    14   13   14 1
    15   14   15 1
    16   14   33 1
    17   14   34 1
    18   15   16 1
    19   15   17 1
    20   15   35 1
    21   16   21 1
    22   17   18 1
    23   17   19 1
    24   17   36 1
    25   18   37 1
    26   19   20 1
    27   19   21 1
    28   19   38 1
    29   20   39 1
    30   21   22 1
    31   21   40 1
    32   22   23 ar
    33   22   31 ar
    34   23   24 ar
    35   23   41 1
    36   24   25 ar
    37   25   26 ar
    38   25   31 ar
    39   26   27 1
    40   26   28 ar
    41   27   42 1
    42   27   43 1
    43   28   29 ar
    44   28   45 1
    45   29   30 ar
    46   29   44 1
    47   30   31 ar
@<TRIPOS>SUBSTRUCTURE
     1 ATP         1 GROUP 0 A     ****
@<TRIPOS>MOLECULE
[[[5-(6-amino-1,8-dihydropurine-6,8-diylium-7-id-9-yl)-3,4-dihydroxy-tetrahydrofuran-2-yl]methoxy-oxido-phosphoryl]oxy-hydroxy-phosphoryl] phosphate
   45    47     1     0     0
SMALL
USER_CHARGES

@<TRIPOS>ATOM
      1 PG         -2.0352    0.9932   -4.7504 P.3       1 ATP        -1.1921
      2 O1G        -2.7255    0.1085   -5.7834 O.co2     1 ATP         0.3195
      3 O2G        -2.7704    2.2953   -4.4498 O.co2     1 ATP         0.3195
      4 O3G        -1.5471    0.2497   -3.5115 O.co2     1 ATP         0.3195
      5 PB          0.5858    0.6285   -6.0903 P.3       1 ATP        -0.9715
      6 O1B         0.1972   -0.6367   -6.7966 O.2       1 ATP         0.2707
      7 O2B         1.3719    1.7061   -7.0040 O.3       1 ATP         0.0326
      8 O3B        -0.6523    1.4860   -5.5003 O.3       1 ATP         0.4672
      9 PA          2.1937    1.5414   -3.7917 P.3       1 ATP        -1.1062
     10 O1A         1.0681    2.1678   -2.9978 O.co2     1 ATP         0.3195
     11 O2A         3.1780    2.3948   -4.5614 O.co2     1 ATP         0.3195
     12 O3A         1.5548    0.4395   -4.8117 O.3       1 ATP         0.4672
     13 O5'         3.0213    0.5153   -2.8245 O.3       1 ATP         0.1618
     14 C5'         2.2816   -0.2918   -1.9206 C.3       1 ATP         0.1504
     15 C4'         2.7248    0.0226   -0.4980 C.3       1 ATP         0.1111
     16 O4'         2.4697    1.4219   -0.2462 O.3       1 ATP        -0.1436
     17 C3'         1.9404   -0.7419    0.5596 C.3       1 ATP         0.1111
     18 O3'         2.7418   -0.8086    1.7389 O.3       1 ATP        -0.2728
     19 C2'         0.7477    0.1630    0.7858 C.3       1 ATP         0.1111
     20 O2'         0.1373   -0.0577    2.0407 O.3       1 ATP        -0.2728
     21 C1'         1.3733    1.5427    0.6747 C.3       1 ATP         0.2693
     22 N9          0.4520    2.5240    0.1767 N.pl3     1 ATP        -0.3222
     23 C8         -1.0660    2.5608    0.3999 C.ar      1 ATP         0.1640
     24 N7         -1.5852    3.6333   -0.2221 N.2       1 ATP        -0.1640
     25 C5         -0.4682    4.1996   -0.7771 C.ar      1 ATP         0.0820
     26 C6         -0.5216    5.4476   -1.5899 C.ar      1 ATP         0.1640
     27 N6         -1.6813    6.0510   -1.7982 N.pl3     1 ATP        -0.4916
     28 N1          0.6621    5.8575   -2.0523 N.pl3     1 ATP        -0.4390
     29 C2          1.8795    5.1301   -1.7717 C.ar      1 ATP         0.5691
     30 N3          1.9458    4.0434   -1.0670 N.ar      1 ATP        -0.4283
     31 C4          0.7388    3.6199   -0.5917 C.ar      1 ATP         0.2226
     32 HOB2        0.9284    2.0636   -7.8026 H         1 ATP         0.2010
     33 H5'1        1.2163   -0.0770   -2.0471 H         1 ATP        -0.0393
     34 H5'2        2.4655   -1.3443   -2.1563 H         1 ATP        -0.0393
     35 H4'         3.8040   -0.1399   -0.4044 H         1 ATP        -0.0393
     36 H3'         1.6768   -1.7637    0.2732 H         1 ATP        -0.0393
     37 HO3'        2.2231   -1.2979    2.3952 H         1 ATP         0.2010
     38 H2'         0.0002   -0.0084   -0.0014 H         1 ATP        -0.0393
     39 HO2'       -0.1554   -0.9852    2.0577 H         1 ATP         0.2010
     40 H1'         1.7718    1.9211    1.6015 H         1 ATP        -0.0393
     41 H8         -1.7235    1.8833    0.9537 H         1 ATP         0.0000
     42 HN61       -2.5296    5.6672   -1.4072 H         1 ATP         0.2048
     43 HN62       -1.7205    6.8969   -2.3483 H         1 ATP         0.2048
     44 H2          2.7750    5.5878   -2.2190 H         1 ATP        -0.1292
     45 H45         0.6808    6.7046   -2.6128 H         1 ATP         0.2048
@<TRIPOS>BOND
     1    1    2 2
     2    1    3 1
     3    1    4 1
     4    1    8 1
     5    5    6 2
     6    5    7 1
     7    5    8 1
     8    5   12 1
     9    7   32 1
    10    9   10 2
    11    9   11 1
    12    9   12 1
    13    9   13 1
    14   13   14 1
    15   14   15 1
    16   14   33 1
    17   14   34 1
    18   15   16 1
    19   15   17 1
    20   15   35 1
    21   16   21 1
    22   17   18 1
    23   17   19 1
    24   17   36 1
    25   18   37 1
    26   19   20 1
    27   19   21 1
    28   19   38 1
    29   20   39 1
    30   21   22 1
    31   21   40 1
    32   22   23 ar
    33   22   31 ar
    34   23   24 ar
    35   23   41 1
    36   24   25 ar
    37   25   26 ar
    38   25   31 ar
    39   26   27 1
    40   26   28 ar
    41   27   42 1
    42   27   43 1
    43   28   29 ar
    44   28   45 1
    45   29   30 ar
    46   29   44 1
    47   30   31 ar
@<TRIPOS>SUBSTRUCTURE
     1 ATP         1 GROUP 0 A     ****
@<TRIPOS>MOLECULE
[[[5-(6-amino-1,8-dihydropurine-6,8-diylium-7-id-9-yl)-3,4-dihydroxy-tetrahydrofuran-2-yl]methoxy-oxido-phosphoryl]oxy-hydroxy-phosphoryl] phosphate
   45    47     1     0     0
SMALL
USER_CHARGES

@<TRIPOS>ATOM
      1 PG         -1.1974    0.7797   -5.6677 P.3       1 ATP        -1.1921
      2 O1G        -0.9192    1.1642   -7.1172 O.co2     1 ATP         0.3195
      3 O2G        -2.6790    0.6780   -5.3201 O.co2     1 ATP         0.3195
      4 O3G        -0.3525   -0.3805   -5.1517 O.co2     1 ATP         0.3195
      5 PB          0.7891    2.7546   -4.6921 P.3       1 ATP        -0.9715
      6 O1B         1.3447    3.2634   -5.9894 O.2       1 ATP         0.2707
      7 O2B         0.5903    3.8788   -3.5472 O.3       1 ATP         0.0326
      8 O3B        -0.6772    2.0800   -4.7982 O.3       1 ATP         0.4672
      9 PA          3.2070    1.6613   -3.4034 P.3       1 ATP        -1.1062
     10 O1A         3.2713    2.6326   -2.2449 O.co2     1 ATP         0.3195
     11 O2A         4.1413    1.7911   -4.5865 O.co2     1 ATP         0.3195
     12 O3A         1.6725    1.6194   -3.9570 O.3       1 ATP         0.4672
     13 O5'         3.2903    0.1346   -2.8241 O.3       1 ATP         0.1618
     14 C5'         2.2816   -0.2918   -1.9206 C.3       1 ATP         0.1504
     15 C4'         2.7248    0.0226   -0.4980 C.3       1 ATP         0.1111
     16 O4'         2.4697    1.4219   -0.2462 O.3       1 ATP        -0.1436
     17 C3'         1.9404   -0.7419    0.5596 C.3       1 ATP         0.1111
     18 O3'         2.7418   -0.8086    1.7389 O.3       1 ATP        -0.2728
     19 C2'         0.7477    0.1630    0.7858 C.3       1 ATP         0.1111
     20 O2'         0.1373   -0.0577    2.0407 O.3       1 ATP        -0.2728
     21 C1'         1.3733    1.5427    0.6747 C.3       1 ATP         0.2693
     22 N9          0.4520    2.5240    0.1767 N.pl3     1 ATP        -0.3222
     23 C8         -0.7463    2.2774   -0.7501 C.ar      1 ATP         0.1640
     24 N7         -1.3714    3.4419   -0.9948 N.2       1 ATP        -0.1640
     25 C5         -0.6104    4.3223   -0.2723 C.ar      1 ATP         0.0820
     26 C6         -0.9062    5.7820   -0.2194 C.ar      1 ATP         0.1640
     27 N6         -1.9385    6.2713   -0.8881 N.pl3     1 ATP        -0.4916
     28 N1         -0.0613    6.4906    0.5336 N.pl3     1 ATP        -0.4390
     29 C2          1.0416    5.8662    1.2291 C.ar      1 ATP         0.5691
     30 N3          1.3146    4.5989    1.1954 N.ar      1 ATP        -0.4283
     31 C4          0.4541    3.8697    0.4273 C.ar      1 ATP         0.2226
     32 HOB2        1.3733    4.3801   -3.2343 H         1 ATP         0.2010
     33 H5'1        1.3514    0.2330   -2.1577 H         1 ATP        -0.0393
     34 H5'2        2.1280   -1.3678   -2.0460 H         1 ATP        -0.0393
     35 H4'         3.8040   -0.1399   -0.4044 H         1 ATP        -0.0393
     36 H3'         1.6768   -1.7637    0.2732 H         1 ATP        -0.0393
     37 HO3'        2.2231   -1.2979    2.3952 H         1 ATP         0.2010
     38 H2'         0.0002   -0.0084   -0.0014 H         1 ATP        -0.0393
     39 HO2'       -0.6132    0.5577    2.1063 H         1 ATP         0.2010
     40 H1'         1.7718    1.9211    1.6015 H         1 ATP        -0.0393
     41 H8         -1.1244    1.3534   -1.1987 H         1 ATP         0.0000
     42 HN61       -2.5259    5.6573   -1.4336 H         1 ATP         0.2048
     43 HN62       -2.1416    7.2600   -0.8539 H         1 ATP         0.2048
     44 H2          1.6509    6.5764    1.8088 H         1 ATP        -0.1292
     45 H45        -0.2190    7.4917    0.6033 H         1 ATP         0.2048
@<TRIPOS>BOND
     1    1    2 2
     2    1    3 1
     3    1    4 1
     4    1    8 1
     5    5    6 2
     6    5    7 1
     7    5    8 1
     8    5   12 1
     9    7   32 1
    10    9   10 2
    11    9   11 1
    12    9   12 1
    13    9   13 1
    14   13   14 1
    15   14   15 1
    16   14   33 1
    17   14   34 1
    18   15   16 1
    19   15   17 1
    20   15   35 1
    21   16   21 1
    22   17   18 1
    23   17   19 1
    24   17   36 1
    25   18   37 1
    26   19   20 1
    27   19   21 1
    28   19   38 1
    29   20   39 1
    30   21   22 1
    31   21   40 1
    32   22   23 ar
    33   22   31 ar
    34   23   24 ar
    35   23   41 1
    36   24   25 ar
    37   25   26 ar
    38   25   31 ar
    39   26   27 1
    40   26   28 ar
    41   27   42 1
    42   27   43 1
    43   28   29 ar
    44   28   45 1
    45   29   30 ar
    46   29   44 1
    47   30   31 ar
@<TRIPOS>SUBSTRUCTURE
     1 ATP         1 GROUP 0 A     ****
@<TRIPOS>MOLECULE
[[[5-(6-amino-1,8-dihydropurine-6,8-diylium-7-id-9-yl)-3,4-dihydroxy-tetrahydrofuran-2-yl]methoxy-oxido-phosphoryl]oxy-hydroxy-phosphoryl] phosphate
   45    47     1     0     0
SMALL
USER_CHARGES

@<TRIPOS>ATOM
      1 PG          1.1217    3.8550   -7.4264 P.3       1 ATP        -1.1921
      2 O1G        -0.2165    3.2678   -7.8630 O.co2     1 ATP         0.3195
      3 O2G         2.2620    3.6143   -8.4103 O.co2     1 ATP         0.3195
      4 O3G         1.0397    5.2845   -6.9011 O.co2     1 ATP         0.3195
      5 PB          0.7891    2.7546   -4.6921 P.3       1 ATP        -0.9715
      6 O1B         0.5719    4.0124   -3.9040 O.2       1 ATP         0.2707
      7 O2B        -0.5613    1.9701   -5.1109 O.3       1 ATP         0.0326
      8 O3B         1.5442    2.9606   -6.1076 O.3       1 ATP         0.4672
      9 PA          3.2070    1.6613   -3.4034 P.3       1 ATP        -1.1062
     10 O1A         3.2713    2.6326   -2.2449 O.co2     1 ATP         0.3195
     11 O2A         4.1413    1.7911   -4.5865 O.co2     1 ATP         0.3195
     12 O3A         1.6725    1.6194   -3.9570 O.3       1 ATP         0.4672
     13 O5'         3.2903    0.1346   -2.8241 O.3       1 ATP         0.1618
     14 C5'         2.2816   -0.2918   -1.9206 C.3       1 ATP         0.1504
     15 C4'         2.7248    0.0226   -0.4980 C.3       1 ATP         0.1111
     16 O4'         2.4697    1.4219   -0.2462 O.3       1 ATP        -0.1436
     17 C3'         1.9404   -0.7419    0.5596 C.3       1 ATP         0.1111
     18 O3'         2.7418   -0.8086    1.7389 O.3       1 ATP        -0.2728
     19 C2'         0.7477    0.1630    0.7858 C.3       1 ATP         0.1111
     20 O2'         0.1373   -0.0577    2.0407 O.3       1 ATP        -0.2728
     21 C1'         1.3733    1.5427    0.6747 C.3       1 ATP         0.2693
     22 N9          0.4520    2.5240    0.1767 N.pl3     1 ATP        -0.3222
     23 C8         -0.3054    2.4845   -1.1576 C.ar      1 ATP         0.1640
     24 N7         -1.0755    3.5806   -1.2691 N.2       1 ATP        -0.1640
     25 C5         -0.8043    4.2306   -0.0942 C.ar      1 ATP         0.0820
     26 C6         -1.4324    5.5335    0.2646 C.ar      1 ATP         0.1640
     27 N6         -2.2885    6.1054   -0.5675 N.pl3     1 ATP        -0.4916
     28 N1         -1.0537    6.0229    1.4478 N.pl3     1 ATP        -0.4390
     29 C2         -0.1096    5.3242    2.2908 C.ar      1 ATP         0.5691
     30 N3          0.4468    4.1904    1.9960 N.ar      1 ATP        -0.4283
     31 C4          0.0631    3.6855    0.7877 C.ar      1 ATP         0.2226
     32 HOB2       -1.1616    1.6497   -4.4045 H         1 ATP         0.2010
     33 H5'1        1.3514    0.2330   -2.1577 H         1 ATP        -0.0393
     34 H5'2        2.1280   -1.3678   -2.0460 H         1 ATP        -0.0393
     35 H4'         3.8040   -0.1399   -0.4044 H         1 ATP        -0.0393
     36 H3'         1.6768   -1.7637    0.2732 H         1 ATP        -0.0393
     37 HO3'        2.2231   -1.2979    2.3952 H         1 ATP         0.2010
     38 H2'         0.0002   -0.0084   -0.0014 H         1 ATP        -0.0393
     39 HO2'       -0.6132    0.5577    2.1063 H         1 ATP         0.2010
     40 H1'         1.7718    1.9211    1.6015 H         1 ATP        -0.0393
     41 H8         -0.2991    1.7413   -1.9611 H         1 ATP         0.0000
     42 HN61       -2.5167    5.6603   -1.4447 H         1 ATP         0.2048
     43 HN62       -2.7159    6.9882   -0.3270 H         1 ATP         0.2048
     44 H2          0.1059    5.8491    3.2340 H         1 ATP        -0.1292
     45 H45        -1.4532    6.9099    1.7401 H         1 ATP         0.2048
@<TRIPOS>BOND
     1    1    2 2
     2    1    3 1
     3    1    4 1
     4    1    8 1
     5    5    6 2
     6    5    7 1
     7    5    8 1
     8    5   12 1
     9    7   32 1
    10    9   10 2
    11    9   11 1
    12    9   12 1
    13    9   13 1
    14   13   14 1
    15   14   15 1
    16   14   33 1
    17   14   34 1
    18   15   16 1
    19   15   17 1
    20   15   35 1
    21   16   21 1
    22   17   18 1
    23   17   19 1
    24   17   36 1
    25   18   37 1
    26   19   20 1
    27   19   21 1
    28   19   38 1
    29   20   39 1
    30   21   22 1
    31   21   40 1
    32   22   23 ar
    33   22   31 ar
    34   23   24 ar
    35   23   41 1
    36   24   25 ar
    37   25   26 ar
    38   25   31 ar
    39   26   27 1
    40   26   28 ar
    41   27   42 1
    42   27   43 1
    43   28   29 ar
    44   28   45 1
    45   29   30 ar
    46   29   44 1
    47   30   31 ar
@<TRIPOS>SUBSTRUCTURE
     1 ATP         1 GROUP 0 A     ****
@<TRIPOS>MOLECULE
[[[5-(6-amino-1,8-dihydropurine-6,8-diylium-7-id-9-yl)-3,4-dihydroxy-tetrahydrofuran-2-yl]methoxy-oxido-phosphoryl]oxy-hydroxy-phosphoryl] phosphate
   45    47     1     0     0
SMALL
USER_CHARGES

@<TRIPOS>ATOM
      1 PG          4.5077    5.3816    0.7781 P.3       1 ATP        -1.1921
      2 O1G         5.7063    5.9816    0.0503 O.co2     1 ATP         0.3195
      3 O2G         4.8447    4.7499    2.1248 O.co2     1 ATP         0.3195
      4 O3G         3.2721    6.2755    0.7979 O.co2     1 ATP         0.3195
      5 PB          3.5868    4.0415   -1.7027 P.3       1 ATP        -0.9715
      6 O1B         2.3468    4.8289   -2.0075 O.2       1 ATP         0.2707
      7 O2B         4.9069    4.5074   -2.5118 O.3       1 ATP         0.0326
      8 O3B         4.0668    4.0991   -0.1591 O.3       1 ATP         0.4672
      9 PA          3.2070    1.6613   -3.4034 P.3       1 ATP        -1.1062
     10 O1A         4.3719    1.8979   -4.3397 O.co2     1 ATP         0.3195
     11 O2A         1.7852    1.9476   -3.8350 O.co2     1 ATP         0.3195
     12 O3A         3.4957    2.4580   -2.0089 O.3       1 ATP         0.4672
     13 O5'         3.2903    0.1346   -2.8241 O.3       1 ATP         0.1618
     14 C5'         2.2816   -0.2918   -1.9206 C.3       1 ATP         0.1504
     15 C4'         2.7248    0.0226   -0.4980 C.3       1 ATP         0.1111
     16 O4'         2.4697    1.4219   -0.2462 O.3       1 ATP        -0.1436
     17 C3'         1.9404   -0.7419    0.5596 C.3       1 ATP         0.1111
     18 O3'         2.7418   -0.8086    1.7389 O.3       1 ATP        -0.2728
     19 C2'         0.7477    0.1630    0.7858 C.3       1 ATP         0.1111
     20 O2'         0.1373   -0.0577    2.0407 O.3       1 ATP        -0.2728
     21 C1'         1.3733    1.5427    0.6747 C.3       1 ATP         0.2693
     22 N9          0.4520    2.5240    0.1767 N.pl3     1 ATP        -0.3222
     23 C8         -0.3054    2.4845   -1.1576 C.ar      1 ATP         0.1640
     24 N7         -1.0755    3.5806   -1.2691 N.2       1 ATP        -0.1640
     25 C5         -0.8043    4.2306   -0.0942 C.ar      1 ATP         0.0820
     26 C6         -1.4324    5.5335    0.2646 C.ar      1 ATP         0.1640
     27 N6         -2.2885    6.1054   -0.5675 N.pl3     1 ATP        -0.4916
     28 N1         -1.0537    6.0229    1.4478 N.pl3     1 ATP        -0.4390
     29 C2         -0.1096    5.3242    2.2908 C.ar      1 ATP         0.5691
     30 N3          0.4468    4.1904    1.9960 N.ar      1 ATP        -0.4283
     31 C4          0.0631    3.6855    0.7877 C.ar      1 ATP         0.2226
     32 HOB2        5.2329    5.4255   -2.3982 H         1 ATP         0.2010
     33 H5'1        1.3514    0.2330   -2.1577 H         1 ATP        -0.0393
     34 H5'2        2.1280   -1.3678   -2.0460 H         1 ATP        -0.0393
     35 H4'         3.8040   -0.1399   -0.4044 H         1 ATP        -0.0393
     36 H3'         1.6768   -1.7637    0.2732 H         1 ATP        -0.0393
     37 HO3'        2.2231   -1.2979    2.3952 H         1 ATP         0.2010
     38 H2'         0.0002   -0.0084   -0.0014 H         1 ATP        -0.0393
     39 HO2'       -0.1554   -0.9852    2.0577 H         1 ATP         0.2010
     40 H1'         1.7718    1.9211    1.6015 H         1 ATP        -0.0393
     41 H8         -0.2991    1.7413   -1.9611 H         1 ATP         0.0000
     42 HN61       -2.5167    5.6603   -1.4447 H         1 ATP         0.2048
     43 HN62       -2.7159    6.9882   -0.3270 H         1 ATP         0.2048
     44 H2          0.1059    5.8491    3.2340 H         1 ATP        -0.1292
     45 H45        -1.4532    6.9099    1.7401 H         1 ATP         0.2048
@<TRIPOS>BOND
     1    1    2 2
     2    1    3 1
     3    1    4 1
     4    1    8 1
     5    5    6 2
     6    5    7 1
     7    5    8 1
     8    5   12 1
     9    7   32 1
    10    9   10 2
    11    9   11 1
    12    9   12 1
    13    9   13 1
    14   13   14 1
    15   14   15 1
    16   14   33 1
    17   14   34 1
    18   15   16 1
    19   15   17 1
    20   15   35 1
    21   16   21 1
    22   17   18 1
    23   17   19 1
    24   17   36 1
    25   18   37 1
    26   19   20 1
    27   19   21 1
    28   19   38 1
    29   20   39 1
    30   21   22 1
    31   21   40 1
    32   22   23 ar
    33   22   31 ar
    34   23   24 ar
    35   23   41 1
    36   24   25 ar
    37   25   26 ar
    38   25   31 ar
    39   26   27 1
    40   26   28 ar
    41   27   42 1
    42   27   43 1
    43   28   29 ar
    44   28   45 1
    45   29   30 ar
    46   29   44 1
    47   30   31 ar
@<TRIPOS>SUBSTRUCTURE
     1 ATP         1 GROUP 0 A     ****
@<TRIPOS>MOLECULE
[[[5-(6-amino-1,8-dihydropurine-6,8-diylium-7-id-9-yl)-3,4-dihydroxy-tetrahydrofuran-2-yl]methoxy-oxido-phosphoryl]oxy-hydroxy-phosphoryl] phosphate
   45    47     1     0     0
SMALL
USER_CHARGES

@<TRIPOS>ATOM
      1 PG          1.0192   -7.3018   -0.8500 P.3       1 ATP        -1.1921
      2 O1G         0.9826   -7.3653    0.6734 O.co2     1 ATP         0.3195
      3 O2G         2.1915   -8.0470   -1.4798 O.co2     1 ATP         0.3195
      4 O3G        -0.3239   -7.5654   -1.5228 O.co2     1 ATP         0.3195
      5 PB          0.5063   -4.3806   -0.8078 P.3       1 ATP        -0.9715
      6 O1B        -0.8880   -4.3289   -1.3591 O.2       1 ATP         0.2707
      7 O2B         0.6045   -4.3295    0.8053 O.3       1 ATP         0.0326
      8 O3B         1.3359   -5.7182   -1.1807 O.3       1 ATP         0.4672
      9 PA          1.9795   -2.7507   -2.7763 P.3       1 ATP        -1.1062
     10 O1A         0.7820   -2.2387   -3.5467 O.co2     1 ATP         0.3195
     11 O2A         2.8560   -3.8515   -3.3328 O.co2     1 ATP         0.3195
     12 O3A         1.4849   -3.1868   -1.2836 O.3       1 ATP         0.4672
     13 O5'         2.9216   -1.4836   -2.3516 O.3       1 ATP         0.1618
     14 C5'         2.2816   -0.2918   -1.9206 C.3       1 ATP         0.1504
     15 C4'         2.7248    0.0226   -0.4980 C.3       1 ATP         0.1111
     16 O4'         2.4697    1.4219   -0.2462 O.3       1 ATP        -0.1436
     17 C3'         1.9404   -0.7419    0.5596 C.3       1 ATP         0.1111
     18 O3'         2.7418   -0.8086    1.7389 O.3       1 ATP        -0.2728
     19 C2'         0.7477    0.1630    0.7858 C.3       1 ATP         0.1111
     20 O2'         0.1373   -0.0577    2.0407 O.3       1 ATP        -0.2728
     21 C1'         1.3733    1.5427    0.6747 C.3       1 ATP         0.2693
     22 N9          0.4520    2.5240    0.1767 N.pl3     1 ATP        -0.3222
     23 C8          0.1798    2.8712   -1.2933 C.ar      1 ATP         0.1640
     24 N7         -0.7494    3.8400   -1.3610 N.2       1 ATP        -0.1640
     25 C5         -1.0173    4.0603   -0.0358 C.ar      1 ATP         0.0820
     26 C6         -2.0105    5.0717    0.4241 C.ar      1 ATP         0.1640
     27 N6         -2.6723    5.7982   -0.4628 N.pl3     1 ATP        -0.4916
     28 N1         -2.1445    5.1522    1.7502 N.pl3     1 ATP        -0.4390
     29 C2         -1.3755    4.3143    2.6426 C.ar      1 ATP         0.5691
     30 N3         -0.5075    3.4292    2.2616 N.ar      1 ATP        -0.4283
     31 C4         -0.3667    3.3425    0.9070 C.ar      1 ATP         0.2226
     32 HOB2        0.2430   -3.5494    1.2775 H         1 ATP         0.2010
     33 H5'1        2.5589    0.5217   -2.5976 H         1 ATP        -0.0393
     34 H5'2        1.1982   -0.4388   -1.9617 H         1 ATP        -0.0393
     35 H4'         3.8040   -0.1399   -0.4044 H         1 ATP        -0.0393
     36 H3'         1.6768   -1.7637    0.2732 H         1 ATP        -0.0393
     37 HO3'        2.2231   -1.2979    2.3952 H         1 ATP         0.2010
     38 H2'         0.0002   -0.0084   -0.0014 H         1 ATP        -0.0393
     39 HO2'       -0.1554   -0.9852    2.0577 H         1 ATP         0.2010
     40 H1'         1.7718    1.9211    1.6015 H         1 ATP        -0.0393
     41 H8          0.6089    2.4651   -2.2147 H         1 ATP         0.0000
     42 HN61       -2.5055    5.6680   -1.4503 H         1 ATP         0.2048
     43 HN62       -3.3462    6.4841   -0.1542 H         1 ATP         0.2048
     44 H2         -1.5932    4.4937    3.7066 H         1 ATP        -0.1292
     45 H45        -2.8098    5.8270    2.1160 H         1 ATP         0.2048
@<TRIPOS>BOND
     1    1    2 2
     2    1    3 1
     3    1    4 1
     4    1    8 1
     5    5    6 2
     6    5    7 1
     7    5    8 1
     8    5   12 1
     9    7   32 1
    10    9   10 2
    11    9   11 1
    12    9   12 1
    13    9   13 1
    14   13   14 1
    15   14   15 1
    16   14   33 1
    17   14   34 1
    18   15   16 1
    19   15   17 1
    20   15   35 1
    21   16   21 1
    22   17   18 1
    23   17   19 1
    24   17   36 1
    25   18   37 1
    26   19   20 1
    27   19   21 1
    28   19   38 1
    29   20   39 1
    30   21   22 1
    31   21   40 1
    32   22   23 ar
    33   22   31 ar
    34   23   24 ar
    35   23   41 1
    36   24   25 ar
    37   25   26 ar
    38   25   31 ar
    39   26   27 1
    40   26   28 ar
    41   27   42 1
    42   27   43 1
    43   28   29 ar
    44   28   45 1
    45   29   30 ar
    46   29   44 1
    47   30   31 ar
@<TRIPOS>SUBSTRUCTURE
     1 ATP         1 GROUP 0 A     ****
@<TRIPOS>MOLECULE
[[[5-(6-amino-1,8-dihydropurine-6,8-diylium-7-id-9-yl)-3,4-dihydroxy-tetrahydrofuran-2-yl]methoxy-oxido-phosphoryl]oxy-hydroxy-phosphoryl] phosphate
   45    47     1     0     0
SMALL
USER_CHARGES

@<TRIPOS>ATOM
      1 PG         -0.8401   -1.4618   -7.6379 P.3       1 ATP        -1.1921
      2 O1G        -2.1933   -0.9218   -7.1868 O.co2     1 ATP         0.3195
      3 O2G        -0.7030   -2.9770   -7.5300 O.co2     1 ATP         0.3195
      4 O3G        -0.3387   -0.8805   -8.9558 O.co2     1 ATP         0.3195
      5 PB          0.5858    0.6285   -6.0903 P.3       1 ATP        -0.9715
      6 O1B         1.1394    1.4747   -7.1985 O.2       1 ATP         0.2707
      7 O2B        -0.7932    1.1695   -5.4424 O.3       1 ATP         0.0326
      8 O3B         0.2190   -0.8894   -6.5118 O.3       1 ATP         0.4672
      9 PA          2.1937    1.5414   -3.7917 P.3       1 ATP        -1.1062
     10 O1A         1.0681    2.1678   -2.9978 O.co2     1 ATP         0.3195
     11 O2A         3.1780    2.3948   -4.5614 O.co2     1 ATP         0.3195
     12 O3A         1.5548    0.4395   -4.8117 O.3       1 ATP         0.4672
     13 O5'         3.0213    0.5153   -2.8245 O.3       1 ATP         0.1618
     14 C5'         2.2816   -0.2918   -1.9206 C.3       1 ATP         0.1504
     15 C4'         2.7248    0.0226   -0.4980 C.3       1 ATP         0.1111
     16 O4'         2.4697    1.4219   -0.2462 O.3       1 ATP        -0.1436
     17 C3'         1.9404   -0.7419    0.5596 C.3       1 ATP         0.1111
     18 O3'         2.7418   -0.8086    1.7389 O.3       1 ATP        -0.2728
     19 C2'         0.7477    0.1630    0.7858 C.3       1 ATP         0.1111
     20 O2'         0.1373   -0.0577    2.0407 O.3       1 ATP        -0.2728
     21 C1'         1.3733    1.5427    0.6747 C.3       1 ATP         0.2693
     22 N9          0.4520    2.5240    0.1767 N.pl3     1 ATP        -0.3222
     23 C8         -1.0660    2.5608    0.3999 C.ar      1 ATP         0.1640
     24 N7         -1.5852    3.6333   -0.2221 N.2       1 ATP        -0.1640
     25 C5         -0.4682    4.1996   -0.7771 C.ar      1 ATP         0.0820
     26 C6         -0.5216    5.4476   -1.5899 C.ar      1 ATP         0.1640
     27 N6         -1.6813    6.0510   -1.7982 N.pl3     1 ATP        -0.4916
     28 N1          0.6621    5.8575   -2.0523 N.pl3     1 ATP        -0.4390
     29 C2          1.8795    5.1301   -1.7717 C.ar      1 ATP         0.5691
     30 N3          1.9458    4.0434   -1.0670 N.ar      1 ATP        -0.4283
     31 C4          0.7388    3.6199   -0.5917 C.ar      1 ATP         0.2226
     32 HOB2       -1.5813    1.2665   -6.0184 H         1 ATP         0.2010
     33 H5'1        1.2163   -0.0770   -2.0471 H         1 ATP        -0.0393
     34 H5'2        2.4655   -1.3443   -2.1563 H         1 ATP        -0.0393
     35 H4'         3.8040   -0.1399   -0.4044 H         1 ATP        -0.0393
     36 H3'         1.6768   -1.7637    0.2732 H         1 ATP        -0.0393
     37 HO3'        2.2231   -1.2979    2.3952 H         1 ATP         0.2010
     38 H2'         0.0002   -0.0084   -0.0014 H         1 ATP        -0.0393
     39 HO2'       -0.1554   -0.9852    2.0577 H         1 ATP         0.2010
     40 H1'         1.7718    1.9211    1.6015 H         1 ATP        -0.0393
     41 H8         -1.7235    1.8833    0.9537 H         1 ATP         0.0000
     42 HN61       -2.5296    5.6672   -1.4072 H         1 ATP         0.2048
     43 HN62       -1.7205    6.8969   -2.3483 H         1 ATP         0.2048
     44 H2          2.7750    5.5878   -2.2190 H         1 ATP        -0.1292
     45 H45         0.6808    6.7046   -2.6128 H         1 ATP         0.2048
@<TRIPOS>BOND
     1    1    2 2
     2    1    3 1
     3    1    4 1
     4    1    8 1
     5    5    6 2
     6    5    7 1
     7    5    8 1
     8    5   12 1
     9    7   32 1
    10    9   10 2
    11    9   11 1
    12    9   12 1
    13    9   13 1
    14   13   14 1
    15   14   15 1
    16   14   33 1
    17   14   34 1
    18   15   16 1
    19   15   17 1
    20   15   35 1
    21   16   21 1
    22   17   18 1
    23   17   19 1
    24   17   36 1
    25   18   37 1
    26   19   20 1
    27   19   21 1
    28   19   38 1
    29   20   39 1
    30   21   22 1
    31   21   40 1
    32   22   23 ar
    33   22   31 ar
    34   23   24 ar
    35   23   41 1
    36   24   25 ar
    37   25   26 ar
    38   25   31 ar
    39   26   27 1
    40   26   28 ar
    41   27   42 1
    42   27   43 1
    43   28   29 ar
    44   28   45 1
    45   29   30 ar
    46   29   44 1
    47   30   31 ar
@<TRIPOS>SUBSTRUCTURE
     1 ATP         1 GROUP 0 A     ****
@<TRIPOS>MOLECULE
[[[5-(6-amino-1,8-dihydropurine-6,8-diylium-7-id-9-yl)-3,4-dihydroxy-tetrahydrofuran-2-yl]methoxy-oxido-phosphoryl]oxy-hydroxy-phosphoryl] phosphate
   45    47     1     0     0
SMALL
USER_CHARGES

@<TRIPOS>ATOM
      1 PG          0.1786    5.2138   -4.7568 P.3       1 ATP        -1.1921
      2 O1G         1.2019    5.8623   -5.6835 O.co2     1 ATP         0.3195
      3 O2G         0.0612    5.8800   -3.3898 O.co2     1 ATP         0.3195
      4 O3G        -1.1599    4.9021   -5.4181 O.co2     1 ATP         0.3195
      5 PB          1.2091    2.5083   -5.4017 P.3       1 ATP        -0.9715
      6 O1B         0.0664    1.9514   -6.1984 O.2       1 ATP         0.2707
      7 O2B         2.4211    3.1177   -6.2813 O.3       1 ATP         0.0326
      8 O3B         0.8203    3.7333   -4.4196 O.3       1 ATP         0.4672
      9 PA          3.2070    1.6613   -3.4034 P.3       1 ATP        -1.1062
     10 O1A         2.7783    2.5894   -2.2878 O.co2     1 ATP         0.3195
     11 O2A         4.4455    1.9448   -4.2250 O.co2     1 ATP         0.3195
     12 O3A         1.9462    1.4588   -4.4194 O.3       1 ATP         0.4672
     13 O5'         3.2903    0.1346   -2.8241 O.3       1 ATP         0.1618
     14 C5'         2.2816   -0.2918   -1.9206 C.3       1 ATP         0.1504
     15 C4'         2.7248    0.0226   -0.4980 C.3       1 ATP         0.1111
     16 O4'         2.4697    1.4219   -0.2462 O.3       1 ATP        -0.1436
     17 C3'         1.9404   -0.7419    0.5596 C.3       1 ATP         0.1111
     18 O3'         2.7418   -0.8086    1.7389 O.3       1 ATP        -0.2728
     19 C2'         0.7477    0.1630    0.7858 C.3       1 ATP         0.1111
     20 O2'         0.1373   -0.0577    2.0407 O.3       1 ATP        -0.2728
     21 C1'         1.3733    1.5427    0.6747 C.3       1 ATP         0.2693
     22 N9          0.4520    2.5240    0.1767 N.pl3     1 ATP        -0.3222
     23 C8         -0.7463    2.2774   -0.7501 C.ar      1 ATP         0.1640
     24 N7         -1.3714    3.4419   -0.9948 N.2       1 ATP        -0.1640
     25 C5         -0.6104    4.3223   -0.2723 C.ar      1 ATP         0.0820
     26 C6         -0.9062    5.7820   -0.2194 C.ar      1 ATP         0.1640
     27 N6         -1.9385    6.2713   -0.8881 N.pl3     1 ATP        -0.4916
     28 N1         -0.0613    6.4906    0.5336 N.pl3     1 ATP        -0.4390
     29 C2          1.0416    5.8662    1.2291 C.ar      1 ATP         0.5691
     30 N3          1.3146    4.5989    1.1954 N.ar      1 ATP        -0.4283
     31 C4          0.4541    3.8697    0.4273 C.ar      1 ATP         0.2226
     32 HOB2        2.8953    2.5293   -6.9067 H         1 ATP         0.2010
     33 H5'1        1.3514    0.2330   -2.1577 H         1 ATP        -0.0393
     34 H5'2        2.1280   -1.3678   -2.0460 H         1 ATP        -0.0393
     35 H4'         3.8040   -0.1399   -0.4044 H         1 ATP        -0.0393
     36 H3'         1.6768   -1.7637    0.2732 H         1 ATP        -0.0393
     37 HO3'        2.2231   -1.2979    2.3952 H         1 ATP         0.2010
     38 H2'         0.0002   -0.0084   -0.0014 H         1 ATP        -0.0393
     39 HO2'       -0.6132    0.5577    2.1063 H         1 ATP         0.2010
     40 H1'         1.7718    1.9211    1.6015 H         1 ATP        -0.0393
     41 H8         -1.1244    1.3534   -1.1987 H         1 ATP         0.0000
     42 HN61       -2.5259    5.6573   -1.4336 H         1 ATP         0.2048
     43 HN62       -2.1416    7.2600   -0.8539 H         1 ATP         0.2048
     44 H2          1.6509    6.5764    1.8088 H         1 ATP        -0.1292
     45 H45        -0.2190    7.4917    0.6033 H         1 ATP         0.2048
@<TRIPOS>BOND
     1    1    2 2
     2    1    3 1
     3    1    4 1
     4    1    8 1
     5    5    6 2
     6    5    7 1
     7    5    8 1
     8    5   12 1
     9    7   32 1
    10    9   10 2
    11    9   11 1
    12    9   12 1
    13    9   13 1
    14   13   14 1
    15   14   15 1
    16   14   33 1
    17   14   34 1
    18   15   16 1
    19   15   17 1
    20   15   35 1
    21   16   21 1
    22   17   18 1
    23   17   19 1
    24   17   36 1
    25   18   37 1
    26   19   20 1
    27   19   21 1
    28   19   38 1
    29   20   39 1
    30   21   22 1
    31   21   40 1
    32   22   23 ar
    33   22   31 ar
    34   23   24 ar
    35   23   41 1
    36   24   25 ar
    37   25   26 ar
    38   25   31 ar
    39   26   27 1
    40   26   28 ar
    41   27   42 1
    42   27   43 1
    43   28   29 ar
    44   28   45 1
    45   29   30 ar
    46   29   44 1
    47   30   31 ar
@<TRIPOS>SUBSTRUCTURE
     1 ATP         1 GROUP 0 A     ****
@<TRIPOS>MOLECULE
[[[5-(6-amino-1,8-dihydropurine-6,8-diylium-7-id-9-yl)-3,4-dihydroxy-tetrahydrofuran-2-yl]methoxy-oxido-phosphoryl]oxy-hydroxy-phosphoryl] phosphate
   45    47     1     0     0
SMALL
USER_CHARGES

@<TRIPOS>ATOM
      1 PG          9.1572   -2.0111   -2.5873 P.3       1 ATP        -1.1921
      2 O1G         9.5099   -0.9722   -3.6467 O.co2     1 ATP         0.3195
      3 O2G         9.1939   -3.4519   -3.0865 O.co2     1 ATP         0.3195
      4 O3G         9.8451   -1.7969   -1.2430 O.co2     1 ATP         0.3195
      5 PB          6.8060   -0.4254   -1.7182 P.3       1 ATP        -0.9715
      6 O1B         7.2599    0.0377   -0.3654 O.2       1 ATP         0.2707
      7 O2B         7.0158    0.6451   -2.9116 O.3       1 ATP         0.0326
      8 O3B         7.5610   -1.7433   -2.2746 O.3       1 ATP         0.4672
      9 PA          4.3693   -1.3505   -3.0998 P.3       1 ATP        -1.1062
     10 O1A         4.8626   -2.7325   -3.4691 O.co2     1 ATP         0.3195
     11 O2A         4.2914   -0.2458   -4.1308 O.co2     1 ATP         0.3195
     12 O3A         5.2419   -0.8134   -1.8297 O.3       1 ATP         0.4672
     13 O5'         2.9216   -1.4836   -2.3516 O.3       1 ATP         0.1618
     14 C5'         2.2816   -0.2918   -1.9206 C.3       1 ATP         0.1504
     15 C4'         2.7248    0.0226   -0.4980 C.3       1 ATP         0.1111
     16 O4'         2.4697    1.4219   -0.2462 O.3       1 ATP        -0.1436
     17 C3'         1.9404   -0.7419    0.5596 C.3       1 ATP         0.1111
     18 O3'         2.7418   -0.8086    1.7389 O.3       1 ATP        -0.2728
     19 C2'         0.7477    0.1630    0.7858 C.3       1 ATP         0.1111
     20 O2'         0.1373   -0.0577    2.0407 O.3       1 ATP        -0.2728
     21 C1'         1.3733    1.5427    0.6747 C.3       1 ATP         0.2693
     22 N9          0.4520    2.5240    0.1767 N.pl3     1 ATP        -0.3222
     23 C8         -0.3054    2.4845   -1.1576 C.ar      1 ATP         0.1640
     24 N7         -1.0755    3.5806   -1.2691 N.2       1 ATP        -0.1640
     25 C5         -0.8043    4.2306   -0.0942 C.ar      1 ATP         0.0820
     26 C6         -1.4324    5.5335    0.2646 C.ar      1 ATP         0.1640
     27 N6         -2.2885    6.1054   -0.5675 N.pl3     1 ATP        -0.4916
     28 N1         -1.0537    6.0229    1.4478 N.pl3     1 ATP        -0.4390
     29 C2         -0.1096    5.3242    2.2908 C.ar      1 ATP         0.5691
     30 N3          0.4468    4.1904    1.9960 N.ar      1 ATP        -0.4283
     31 C4          0.0631    3.6855    0.7877 C.ar      1 ATP         0.2226
     32 HOB2        6.5697    1.5166   -2.8503 H         1 ATP         0.2010
     33 H5'1        2.5589    0.5217   -2.5976 H         1 ATP        -0.0393
     34 H5'2        1.1982   -0.4388   -1.9617 H         1 ATP        -0.0393
     35 H4'         3.8040   -0.1399   -0.4044 H         1 ATP        -0.0393
     36 H3'         1.6768   -1.7637    0.2732 H         1 ATP        -0.0393
     37 HO3'        2.2231   -1.2979    2.3952 H         1 ATP         0.2010
     38 H2'         0.0002   -0.0084   -0.0014 H         1 ATP        -0.0393
     39 HO2'       -0.6132    0.5577    2.1063 H         1 ATP         0.2010
     40 H1'         1.7718    1.9211    1.6015 H         1 ATP        -0.0393
     41 H8         -0.2991    1.7413   -1.9611 H         1 ATP         0.0000
     42 HN61       -2.5167    5.6603   -1.4447 H         1 ATP         0.2048
     43 HN62       -2.7159    6.9882   -0.3270 H         1 ATP         0.2048
     44 H2          0.1059    5.8491    3.2340 H         1 ATP        -0.1292
     45 H45        -1.4532    6.9099    1.7401 H         1 ATP         0.2048
@<TRIPOS>BOND
     1    1    2 2
     2    1    3 1
     3    1    4 1
     4    1    8 1
     5    5    6 2
     6    5    7 1
     7    5    8 1
     8    5   12 1
     9    7   32 1
    10    9   10 2
    11    9   11 1
    12    9   12 1
    13    9   13 1
    14   13   14 1
    15   14   15 1
    16   14   33 1
    17   14   34 1
    18   15   16 1
    19   15   17 1
    20   15   35 1
    21   16   21 1
    22   17   18 1
    23   17   19 1
    24   17   36 1
    25   18   37 1
    26   19   20 1
    27   19   21 1
    28   19   38 1
    29   20   39 1
    30   21   22 1
    31   21   40 1
    32   22   23 ar
    33   22   31 ar
    34   23   24 ar
    35   23   41 1
    36   24   25 ar
    37   25   26 ar
    38   25   31 ar
    39   26   27 1
    40   26   28 ar
    41   27   42 1
    42   27   43 1
    43   28   29 ar
    44   28   45 1
    45   29   30 ar
    46   29   44 1
    47   30   31 ar
@<TRIPOS>SUBSTRUCTURE
     1 ATP         1 GROUP 0 A     ****
@<TRIPOS>MOLECULE
[[[5-(6-amino-1,8-dihydropurine-6,8-diylium-7-id-9-yl)-3,4-dihydroxy-tetrahydrofuran-2-yl]methoxy-oxido-phosphoryl]oxy-hydroxy-phosphoryl] phosphate
   45    47     1     0     0
SMALL
USER_CHARGES

@<TRIPOS>ATOM
      1 PG          9.0191   -2.0808   -1.4108 P.3       1 ATP        -1.1921
      2 O1G         9.1505   -2.0038    0.1068 O.co2     1 ATP         0.3195
      3 O2G         9.8171   -1.0208   -2.1630 O.co2     1 ATP         0.3195
      4 O3G         9.1534   -3.4882   -1.9829 O.co2     1 ATP         0.3195
      5 PB          6.0737   -2.3662   -1.2089 P.3       1 ATP        -0.9715
      6 O1B         5.8958   -3.7911   -1.6431 O.2       1 ATP         0.2707
      7 O2B         6.1047   -2.1394    0.3917 O.3       1 ATP         0.0326
      8 O3B         7.4490   -1.6717   -1.7015 O.3       1 ATP         0.4672
      9 PA          4.4649   -0.9309   -3.2223 P.3       1 ATP        -1.1062
     10 O1A         3.8324   -2.1423   -3.8720 O.co2     1 ATP         0.3195
     11 O2A         5.5992   -0.1862   -3.8920 O.co2     1 ATP         0.3195
     12 O3A         4.9329   -1.3398   -1.7134 O.3       1 ATP         0.4672
     13 O5'         3.2903    0.1346   -2.8241 O.3       1 ATP         0.1618
     14 C5'         2.2816   -0.2918   -1.9206 C.3       1 ATP         0.1504
     15 C4'         2.7248    0.0226   -0.4980 C.3       1 ATP         0.1111
     16 O4'         2.4697    1.4219   -0.2462 O.3       1 ATP        -0.1436
     17 C3'         1.9404   -0.7419    0.5596 C.3       1 ATP         0.1111
     18 O3'         2.7418   -0.8086    1.7389 O.3       1 ATP        -0.2728
     19 C2'         0.7477    0.1630    0.7858 C.3       1 ATP         0.1111
     20 O2'         0.1373   -0.0577    2.0407 O.3       1 ATP        -0.2728
     21 C1'         1.3733    1.5427    0.6747 C.3       1 ATP         0.2693
     22 N9          0.4520    2.5240    0.1767 N.pl3     1 ATP        -0.3222
     23 C8          0.5793    3.3338   -1.1209 C.ar      1 ATP         0.1640
     24 N7         -0.4807    4.1508   -1.2458 N.2       1 ATP        -0.1640
     25 C5         -1.1921    3.8572   -0.1126 C.ar      1 ATP         0.0820
     26 C6         -2.4855    4.5203    0.2163 C.ar      1 ATP         0.1640
     27 N6         -2.9873    5.4319   -0.6020 N.pl3     1 ATP        -0.4916
     28 N1         -3.0414    4.1119    1.3596 N.pl3     1 ATP        -0.4390
     29 C2         -2.4169    3.1071    2.1904 C.ar      1 ATP         0.5691
     30 N3         -1.2928    2.5191    1.9210 N.ar      1 ATP        -0.4283
     31 C4         -0.7202    2.9326    0.7534 C.ar      1 ATP         0.2226
     32 HOB2        6.7995   -2.5866    0.9203 H         1 ATP         0.2010
     33 H5'1        1.3514    0.2330   -2.1577 H         1 ATP        -0.0393
     34 H5'2        2.1280   -1.3678   -2.0460 H         1 ATP        -0.0393
     35 H4'         3.8040   -0.1399   -0.4044 H         1 ATP        -0.0393
     36 H3'         1.6768   -1.7637    0.2732 H         1 ATP        -0.0393
     37 HO3'        3.5553   -1.2733    1.4913 H         1 ATP         0.2010
     38 H2'         0.0002   -0.0084   -0.0014 H         1 ATP        -0.0393
     39 HO2'        0.8091    0.1203    2.7213 H         1 ATP         0.2010
     40 H1'         1.7718    1.9211    1.6015 H         1 ATP        -0.0393
     41 H8          1.3565    3.3309   -1.8916 H         1 ATP         0.0000
     42 HN61       -2.4952    5.6785   -1.4487 H         1 ATP         0.2048
     43 HN62       -3.8637    5.8828   -0.3819 H         1 ATP         0.2048
     44 H2         -2.9911    2.8734    3.1000 H         1 ATP        -0.1292
     45 H45        -3.9253    4.5332    1.6302 H         1 ATP         0.2048
@<TRIPOS>BOND
     1    1    2 2
     2    1    3 1
     3    1    4 1
     4    1    8 1
     5    5    6 2
     6    5    7 1
     7    5    8 1
     8    5   12 1
     9    7   32 1
    10    9   10 2
    11    9   11 1
    12    9   12 1
    13    9   13 1
    14   13   14 1
    15   14   15 1
    16   14   33 1
    17   14   34 1
    18   15   16 1
    19   15   17 1
    20   15   35 1
    21   16   21 1
    22   17   18 1
    23   17   19 1
    24   17   36 1
    25   18   37 1
    26   19   20 1
    27   19   21 1
    28   19   38 1
    29   20   39 1
    30   21   22 1
    31   21   40 1
    32   22   23 ar
    33   22   31 ar
    34   23   24 ar
    35   23   41 1
    36   24   25 ar
    37   25   26 ar
    38   25   31 ar
    39   26   27 1
    40   26   28 ar
    41   27   42 1
    42   27   43 1
    43   28   29 ar
    44   28   45 1
    45   29   30 ar
    46   29   44 1
    47   30   31 ar
@<TRIPOS>SUBSTRUCTURE
     1 ATP         1 GROUP 0 A     ****
@<TRIPOS>MOLECULE
[[[5-(6-amino-1,8-dihydropurine-6,8-diylium-7-id-9-yl)-3,4-dihydroxy-tetrahydrofuran-2-yl]methoxy-oxido-phosphoryl]oxy-hydroxy-phosphoryl] phosphate
   45    47     1     0     0
SMALL
USER_CHARGES

@<TRIPOS>ATOM
      1 PG          6.3239    4.6381   -2.6777 P.3       1 ATP        -1.1921
      2 O1G         6.5915    5.5417   -1.4784 O.co2     1 ATP         0.3195
      3 O2G         6.7411    5.2357   -4.0175 O.co2     1 ATP         0.3195
      4 O3G         6.7507    3.1874   -2.4795 O.co2     1 ATP         0.3195
      5 PB          3.5868    4.0415   -1.7027 P.3       1 ATP        -0.9715
      6 O1B         3.8733    4.4063   -0.2760 O.2       1 ATP         0.2707
      7 O2B         2.1954    4.6203   -2.2887 O.3       1 ATP         0.0326
      8 O3B         4.6796    4.5691   -2.7722 O.3       1 ATP         0.4672
      9 PA          3.2070    1.6613   -3.4034 P.3       1 ATP        -1.1062
     10 O1A         4.3719    1.8979   -4.3397 O.co2     1 ATP         0.3195
     11 O2A         1.7852    1.9476   -3.8350 O.co2     1 ATP         0.3195
     12 O3A         3.4957    2.4580   -2.0089 O.3       1 ATP         0.4672
     13 O5'         3.2903    0.1346   -2.8241 O.3       1 ATP         0.1618
     14 C5'         2.2816   -0.2918   -1.9206 C.3       1 ATP         0.1504
     15 C4'         2.7248    0.0226   -0.4980 C.3       1 ATP         0.1111
     16 O4'         2.4697    1.4219   -0.2462 O.3       1 ATP        -0.1436
     17 C3'         1.9404   -0.7419    0.5596 C.3       1 ATP         0.1111
     18 O3'         2.7418   -0.8086    1.7389 O.3       1 ATP        -0.2728
     19 C2'         0.7477    0.1630    0.7858 C.3       1 ATP         0.1111
     20 O2'         0.1373   -0.0577    2.0407 O.3       1 ATP        -0.2728
     21 C1'         1.3733    1.5427    0.6747 C.3       1 ATP         0.2693
     22 N9          0.4520    2.5240    0.1767 N.pl3     1 ATP        -0.3222
     23 C8         -0.3054    2.4845   -1.1576 C.ar      1 ATP         0.1640
     24 N7         -1.0755    3.5806   -1.2691 N.2       1 ATP        -0.1640
     25 C5         -0.8043    4.2306   -0.0942 C.ar      1 ATP         0.0820
     26 C6         -1.4324    5.5335    0.2646 C.ar      1 ATP         0.1640
     27 N6         -2.2885    6.1054   -0.5675 N.pl3     1 ATP        -0.4916
     28 N1         -1.0537    6.0229    1.4478 N.pl3     1 ATP        -0.4390
     29 C2         -0.1096    5.3242    2.2908 C.ar      1 ATP         0.5691
     30 N3          0.4468    4.1904    1.9960 N.ar      1 ATP        -0.4283
     31 C4          0.0631    3.6855    0.7877 C.ar      1 ATP         0.2226
     32 HOB2        2.0577    5.5912   -2.3101 H         1 ATP         0.2010
     33 H5'1        1.3514    0.2330   -2.1577 H         1 ATP        -0.0393
     34 H5'2        2.1280   -1.3678   -2.0460 H         1 ATP        -0.0393
     35 H4'         3.8040   -0.1399   -0.4044 H         1 ATP        -0.0393
     36 H3'         1.6768   -1.7637    0.2732 H         1 ATP        -0.0393
     37 HO3'        2.2231   -1.2979    2.3952 H         1 ATP         0.2010
     38 H2'         0.0002   -0.0084   -0.0014 H         1 ATP        -0.0393
     39 HO2'       -0.6132    0.5577    2.1063 H         1 ATP         0.2010
     40 H1'         1.7718    1.9211    1.6015 H         1 ATP        -0.0393
     41 H8         -0.2991    1.7413   -1.9611 H         1 ATP         0.0000
     42 HN61       -2.5167    5.6603   -1.4447 H         1 ATP         0.2048
     43 HN62       -2.7159    6.9882   -0.3270 H         1 ATP         0.2048
     44 H2          0.1059    5.8491    3.2340 H         1 ATP        -0.1292
     45 H45        -1.4532    6.9099    1.7401 H         1 ATP         0.2048
@<TRIPOS>BOND
     1    1    2 2
     2    1    3 1
     3    1    4 1
     4    1    8 1
     5    5    6 2
     6    5    7 1
     7    5    8 1
     8    5   12 1
     9    7   32 1
    10    9   10 2
    11    9   11 1
    12    9   12 1
    13    9   13 1
    14   13   14 1
    15   14   15 1
    16   14   33 1
    17   14   34 1
    18   15   16 1
    19   15   17 1
    20   15   35 1
    21   16   21 1
    22   17   18 1
    23   17   19 1
    24   17   36 1
    25   18   37 1
    26   19   20 1
    27   19   21 1
    28   19   38 1
    29   20   39 1
    30   21   22 1
    31   21   40 1
    32   22   23 ar
    33   22   31 ar
    34   23   24 ar
    35   23   41 1
    36   24   25 ar
    37   25   26 ar
    38   25   31 ar
    39   26   27 1
    40   26   28 ar
    41   27   42 1
    42   27   43 1
    43   28   29 ar
    44   28   45 1
    45   29   30 ar
    46   29   44 1
    47   30   31 ar
@<TRIPOS>SUBSTRUCTURE
     1 ATP         1 GROUP 0 A     ****
@<TRIPOS>MOLECULE
[[[5-(6-amino-1,8-dihydropurine-6,8-diylium-7-id-9-yl)-3,4-dihydroxy-tetrahydrofuran-2-yl]methoxy-oxido-phosphoryl]oxy-hydroxy-phosphoryl] phosphate
   45    47     1     0     0
SMALL
USER_CHARGES

@<TRIPOS>ATOM
      1 PG          1.0431    5.0031   -5.3847 P.3       1 ATP        -1.1921
      2 O1G        -0.4435    5.1009   -5.7114 O.co2     1 ATP         0.3195
      3 O2G         1.9643    5.3185   -6.5587 O.co2     1 ATP         0.3195
      4 O3G         1.4448    5.6752   -4.0759 O.co2     1 ATP         0.3195
      5 PB          0.6392    2.4058   -4.0104 P.3       1 ATP        -0.9715
      6 O1B         0.8842    2.7982   -2.5833 O.2       1 ATP         0.2707
      7 O2B        -0.9170    2.3529   -4.4459 O.3       1 ATP         0.0326
      8 O3B         1.2913    3.3968   -5.1099 O.3       1 ATP         0.4672
      9 PA          2.7180    0.3539   -4.4230 P.3       1 ATP        -1.1062
     10 O1A         3.6120    1.3016   -5.1928 O.co2     1 ATP         0.3195
     11 O2A         2.6578   -1.1184   -4.7669 O.co2     1 ATP         0.3195
     12 O3A         1.1997    0.9517   -4.4359 O.3       1 ATP         0.4672
     13 O5'         3.0213    0.5153   -2.8245 O.3       1 ATP         0.1618
     14 C5'         2.2816   -0.2918   -1.9206 C.3       1 ATP         0.1504
     15 C4'         2.7248    0.0226   -0.4980 C.3       1 ATP         0.1111
     16 O4'         2.4697    1.4219   -0.2462 O.3       1 ATP        -0.1436
     17 C3'         1.9404   -0.7419    0.5596 C.3       1 ATP         0.1111
     18 O3'         2.7418   -0.8086    1.7389 O.3       1 ATP        -0.2728
     19 C2'         0.7477    0.1630    0.7858 C.3       1 ATP         0.1111
     20 O2'         0.1373   -0.0577    2.0407 O.3       1 ATP        -0.2728
     21 C1'         1.3733    1.5427    0.6747 C.3       1 ATP         0.2693
     22 N9          0.4520    2.5240    0.1767 N.pl3     1 ATP        -0.3222
     23 C8         -1.0247    2.3053   -0.1800 C.ar      1 ATP         0.1640
     24 N7         -1.5580    3.4612   -0.6116 N.2       1 ATP        -0.1640
     25 C5         -0.4873    4.3110   -0.5222 C.ar      1 ATP         0.0820
     26 C6         -0.5728    5.7505   -0.8981 C.ar      1 ATP         0.1640
     27 N6         -1.7163    6.2514   -1.3385 N.pl3     1 ATP        -0.4916
     28 N1          0.5667    6.4301   -0.7475 N.pl3     1 ATP        -0.4390
     29 C2          1.7697    5.7952   -0.2579 C.ar      1 ATP         0.5691
     30 N3          1.8633    4.5450    0.0742 N.ar      1 ATP        -0.4283
     31 C4          0.7014    3.8457   -0.0776 C.ar      1 ATP         0.2226
     32 HOB2       -1.4558    3.1699   -4.3790 H         1 ATP         0.2010
     33 H5'1        1.2163   -0.0770   -2.0471 H         1 ATP        -0.0393
     34 H5'2        2.4655   -1.3443   -2.1563 H         1 ATP        -0.0393
     35 H4'         3.8040   -0.1399   -0.4044 H         1 ATP        -0.0393
     36 H3'         1.6768   -1.7637    0.2732 H         1 ATP        -0.0393
     37 HO3'        2.2231   -1.2979    2.3952 H         1 ATP         0.2010
     38 H2'         0.0002   -0.0084   -0.0014 H         1 ATP        -0.0393
     39 HO2'       -0.1554   -0.9852    2.0577 H         1 ATP         0.2010
     40 H1'         1.7718    1.9211    1.6015 H         1 ATP        -0.0393
     41 H8         -1.6458    1.4054   -0.1318 H         1 ATP         0.0000
     42 HN61       -2.5307    5.6598   -1.4199 H         1 ATP         0.2048
     43 HN62       -1.7773    7.2266   -1.5938 H         1 ATP         0.2048
     44 H2          2.6279    6.4808   -0.1872 H         1 ATP        -0.1292
     45 H45         0.5621    7.4166   -0.9900 H         1 ATP         0.2048
@<TRIPOS>BOND
     1    1    2 2
     2    1    3 1
     3    1    4 1
     4    1    8 1
     5    5    6 2
     6    5    7 1
     7    5    8 1
     8    5   12 1
     9    7   32 1
    10    9   10 2
    11    9   11 1
    12    9   12 1
    13    9   13 1
    14   13   14 1
    15   14   15 1
    16   14   33 1
    17   14   34 1
    18   15   16 1
    19   15   17 1
    20   15   35 1
    21   16   21 1
    22   17   18 1
    23   17   19 1
    24   17   36 1
    25   18   37 1
    26   19   20 1
    27   19   21 1
    28   19   38 1
    29   20   39 1
    30   21   22 1
    31   21   40 1
    32   22   23 ar
    33   22   31 ar
    34   23   24 ar
    35   23   41 1
    36   24   25 ar
    37   25   26 ar
    38   25   31 ar
    39   26   27 1
    40   26   28 ar
    41   27   42 1
    42   27   43 1
    43   28   29 ar
    44   28   45 1
    45   29   30 ar
    46   29   44 1
    47   30   31 ar
@<TRIPOS>SUBSTRUCTURE
     1 ATP         1 GROUP 0 A     ****
@<TRIPOS>MOLECULE
[[[5-(6-amino-1,8-dihydropurine-6,8-diylium-7-id-9-yl)-3,4-dihydroxy-tetrahydrofuran-2-yl]methoxy-oxido-phosphoryl]oxy-hydroxy-phosphoryl] phosphate
   45    47     1     0     0
SMALL
USER_CHARGES

@<TRIPOS>ATOM
      1 PG         -1.1798    0.8053   -5.7112 P.3       1 ATP        -1.1921
      2 O1G        -1.3820   -0.6937   -5.5155 O.co2     1 ATP         0.3195
      3 O2G        -2.0559    1.4186   -6.7987 O.co2     1 ATP         0.3195
      4 O3G        -1.1368    1.6085   -4.4153 O.co2     1 ATP         0.3195
      5 PB          1.7682    0.4788   -5.6911 P.3       1 ATP        -0.9715
      6 O1B         1.8897   -0.9872   -5.3965 O.2       1 ATP         0.2707
      7 O2B         2.8369    1.0505   -6.7612 O.3       1 ATP         0.0326
      8 O3B         0.3475    0.9310   -6.3185 O.3       1 ATP         0.4672
      9 PA          3.2070    1.6613   -3.4034 P.3       1 ATP        -1.1062
     10 O1A         2.7783    2.5894   -2.2878 O.co2     1 ATP         0.3195
     11 O2A         4.4455    1.9448   -4.2250 O.co2     1 ATP         0.3195
     12 O3A         1.9462    1.4588   -4.4194 O.3       1 ATP         0.4672
     13 O5'         3.2903    0.1346   -2.8241 O.3       1 ATP         0.1618
     14 C5'         2.2816   -0.2918   -1.9206 C.3       1 ATP         0.1504
     15 C4'         2.7248    0.0226   -0.4980 C.3       1 ATP         0.1111
     16 O4'         2.4697    1.4219   -0.2462 O.3       1 ATP        -0.1436
     17 C3'         1.9404   -0.7419    0.5596 C.3       1 ATP         0.1111
     18 O3'         2.7418   -0.8086    1.7389 O.3       1 ATP        -0.2728
     19 C2'         0.7477    0.1630    0.7858 C.3       1 ATP         0.1111
     20 O2'         0.1373   -0.0577    2.0407 O.3       1 ATP        -0.2728
     21 C1'         1.3733    1.5427    0.6747 C.3       1 ATP         0.2693
     22 N9          0.4520    2.5240    0.1767 N.pl3     1 ATP        -0.3222
     23 C8         -0.7463    2.2774   -0.7501 C.ar      1 ATP         0.1640
     24 N7         -1.3714    3.4419   -0.9948 N.2       1 ATP        -0.1640
     25 C5         -0.6104    4.3223   -0.2723 C.ar      1 ATP         0.0820
     26 C6         -0.9062    5.7820   -0.2194 C.ar      1 ATP         0.1640
     27 N6         -1.9385    6.2713   -0.8881 N.pl3     1 ATP        -0.4916
     28 N1         -0.0613    6.4906    0.5336 N.pl3     1 ATP        -0.4390
     29 C2          1.0416    5.8662    1.2291 C.ar      1 ATP         0.5691
     30 N3          1.3146    4.5989    1.1954 N.ar      1 ATP        -0.4283
     31 C4          0.4541    3.8697    0.4273 C.ar      1 ATP         0.2226
     32 HOB2        3.7942    0.9764   -6.5607 H         1 ATP         0.2010
     33 H5'1        1.3514    0.2330   -2.1577 H         1 ATP        -0.0393
     34 H5'2        2.1280   -1.3678   -2.0460 H         1 ATP        -0.0393
     35 H4'         3.8040   -0.1399   -0.4044 H         1 ATP        -0.0393
     36 H3'         1.6768   -1.7637    0.2732 H         1 ATP        -0.0393
     37 HO3'        2.2231   -1.2979    2.3952 H         1 ATP         0.2010
     38 H2'         0.0002   -0.0084   -0.0014 H         1 ATP        -0.0393
     39 HO2'       -0.6132    0.5577    2.1063 H         1 ATP         0.2010
     40 H1'         1.7718    1.9211    1.6015 H         1 ATP        -0.0393
     41 H8         -1.1244    1.3534   -1.1987 H         1 ATP         0.0000
     42 HN61       -2.5259    5.6573   -1.4336 H         1 ATP         0.2048
     43 HN62       -2.1416    7.2600   -0.8539 H         1 ATP         0.2048
     44 H2          1.6509    6.5764    1.8088 H         1 ATP        -0.1292
     45 H45        -0.2190    7.4917    0.6033 H         1 ATP         0.2048
@<TRIPOS>BOND
     1    1    2 2
     2    1    3 1
     3    1    4 1
     4    1    8 1
     5    5    6 2
     6    5    7 1
     7    5    8 1
     8    5   12 1
     9    7   32 1
    10    9   10 2
    11    9   11 1
    12    9   12 1
    13    9   13 1
    14   13   14 1
    15   14   15 1
    16   14   33 1
    17   14   34 1
    18   15   16 1
    19   15   17 1
    20   15   35 1
    21   16   21 1
    22   17   18 1
    23   17   19 1
    24   17   36 1
    25   18   37 1
    26   19   20 1
    27   19   21 1
    28   19   38 1
    29   20   39 1
    30   21   22 1
    31   21   40 1
    32   22   23 ar
    33   22   31 ar
    34   23   24 ar
    35   23   41 1
    36   24   25 ar
    37   25   26 ar
    38   25   31 ar
    39   26   27 1
    40   26   28 ar
    41   27   42 1
    42   27   43 1
    43   28   29 ar
    44   28   45 1
    45   29   30 ar
    46   29   44 1
    47   30   31 ar
@<TRIPOS>SUBSTRUCTURE
     1 ATP         1 GROUP 0 A     ****
@<TRIPOS>MOLECULE
[[[5-(6-amino-1,8-dihydropurine-6,8-diylium-7-id-9-yl)-3,4-dihydroxy-tetrahydrofuran-2-yl]methoxy-oxido-phosphoryl]oxy-hydroxy-phosphoryl] phosphate
   45    47     1     0     0
SMALL
USER_CHARGES

@<TRIPOS>ATOM
      1 PG          8.5264   -0.9559   -0.5512 P.3       1 ATP        -1.1921
      2 O1G         9.4555   -0.0966   -1.4025 O.co2     1 ATP         0.3195
      3 O2G         8.9874   -2.4001   -0.3839 O.co2     1 ATP         0.3195
      4 O3G         8.0657   -0.2922    0.7424 O.co2     1 ATP         0.3195
      5 PB          6.1474    0.0586   -2.0035 P.3       1 ATP        -0.9715
      6 O1B         5.4989    0.8930   -0.9387 O.2       1 ATP         0.2707
      7 O2B         7.0662    0.8808   -3.0494 O.3       1 ATP         0.0326
      8 O3B         7.1534   -1.0829   -1.4546 O.3       1 ATP         0.4672
      9 PA          3.9458   -0.2356   -3.9447 P.3       1 ATP        -1.1062
     10 O1A         3.1973   -1.4387   -4.4759 O.co2     1 ATP         0.3195
     11 O2A         4.5250    0.8020   -4.8814 O.co2     1 ATP         0.3195
     12 O3A         5.1327   -0.7615   -2.9560 O.3       1 ATP         0.4672
     13 O5'         3.0213    0.5153   -2.8245 O.3       1 ATP         0.1618
     14 C5'         2.2816   -0.2918   -1.9206 C.3       1 ATP         0.1504
     15 C4'         2.7248    0.0226   -0.4980 C.3       1 ATP         0.1111
     16 O4'         2.4697    1.4219   -0.2462 O.3       1 ATP        -0.1436
     17 C3'         1.9404   -0.7419    0.5596 C.3       1 ATP         0.1111
     18 O3'         2.7418   -0.8086    1.7389 O.3       1 ATP        -0.2728
     19 C2'         0.7477    0.1630    0.7858 C.3       1 ATP         0.1111
     20 O2'         0.1373   -0.0577    2.0407 O.3       1 ATP        -0.2728
     21 C1'         1.3733    1.5427    0.6747 C.3       1 ATP         0.2693
     22 N9          0.4520    2.5240    0.1767 N.pl3     1 ATP        -0.3222
     23 C8          0.1798    2.8712   -1.2933 C.ar      1 ATP         0.1640
     24 N7         -0.7494    3.8400   -1.3610 N.2       1 ATP        -0.1640
     25 C5         -1.0173    4.0603   -0.0358 C.ar      1 ATP         0.0820
     26 C6         -2.0105    5.0717    0.4241 C.ar      1 ATP         0.1640
     27 N6         -2.6723    5.7982   -0.4628 N.pl3     1 ATP        -0.4916
     28 N1         -2.1445    5.1522    1.7502 N.pl3     1 ATP        -0.4390
     29 C2         -1.3755    4.3143    2.6426 C.ar      1 ATP         0.5691
     30 N3         -0.5075    3.4292    2.2616 N.ar      1 ATP        -0.4283
     31 C4         -0.3667    3.3425    0.9070 C.ar      1 ATP         0.2226
     32 HOB2        6.6530    1.5883   -3.5888 H         1 ATP         0.2010
     33 H5'1        1.2163   -0.0770   -2.0471 H         1 ATP        -0.0393
     34 H5'2        2.4655   -1.3443   -2.1563 H         1 ATP        -0.0393
     35 H4'         3.8040   -0.1399   -0.4044 H         1 ATP        -0.0393
     36 H3'         1.6768   -1.7637    0.2732 H         1 ATP        -0.0393
     37 HO3'        2.2231   -1.2979    2.3952 H         1 ATP         0.2010
     38 H2'         0.0002   -0.0084   -0.0014 H         1 ATP        -0.0393
     39 HO2'       -0.6132    0.5577    2.1063 H         1 ATP         0.2010
     40 H1'         1.7718    1.9211    1.6015 H         1 ATP        -0.0393
     41 H8          0.6089    2.4651   -2.2147 H         1 ATP         0.0000
     42 HN61       -2.5055    5.6680   -1.4503 H         1 ATP         0.2048
     43 HN62       -3.3462    6.4841   -0.1542 H         1 ATP         0.2048
     44 H2         -1.5932    4.4937    3.7066 H         1 ATP        -0.1292
     45 H45        -2.8098    5.8270    2.1160 H         1 ATP         0.2048
@<TRIPOS>BOND
     1    1    2 2
     2    1    3 1
     3    1    4 1
     4    1    8 1
     5    5    6 2
     6    5    7 1
     7    5    8 1
     8    5   12 1
     9    7   32 1
    10    9   10 2
    11    9   11 1
    12    9   12 1
    13    9   13 1
    14   13   14 1
    15   14   15 1
    16   14   33 1
    17   14   34 1
    18   15   16 1
    19   15   17 1
    20   15   35 1
    21   16   21 1
    22   17   18 1
    23   17   19 1
    24   17   36 1
    25   18   37 1
    26   19   20 1
    27   19   21 1
    28   19   38 1
    29   20   39 1
    30   21   22 1
    31   21   40 1
    32   22   23 ar
    33   22   31 ar
    34   23   24 ar
    35   23   41 1
    36   24   25 ar
    37   25   26 ar
    38   25   31 ar
    39   26   27 1
    40   26   28 ar
    41   27   42 1
    42   27   43 1
    43   28   29 ar
    44   28   45 1
    45   29   30 ar
    46   29   44 1
    47   30   31 ar
@<TRIPOS>SUBSTRUCTURE
     1 ATP         1 GROUP 0 A     ****
@<TRIPOS>MOLECULE
[[[5-(6-amino-1,8-dihydropurine-6,8-diylium-7-id-9-yl)-3,4-dihydroxy-tetrahydrofuran-2-yl]methoxy-oxido-phosphoryl]oxy-hydroxy-phosphoryl] phosphate
   45    47     1     0     0
SMALL
USER_CHARGES

@<TRIPOS>ATOM
      1 PG         -0.4044    0.4678   -7.7104 P.3       1 ATP        -1.1921
      2 O1G         0.5710    0.8675   -8.8128 O.co2     1 ATP         0.3195
      3 O2G        -1.7043    1.2656   -7.7051 O.co2     1 ATP         0.3195
      4 O3G        -0.5933   -1.0374   -7.5533 O.co2     1 ATP         0.3195
      5 PB          1.7682    0.4788   -5.6911 P.3       1 ATP        -0.9715
      6 O1B         1.8897   -0.9872   -5.3965 O.2       1 ATP         0.2707
      7 O2B         2.8369    1.0505   -6.7612 O.3       1 ATP         0.0326
      8 O3B         0.3475    0.9310   -6.3185 O.3       1 ATP         0.4672
      9 PA          3.2070    1.6613   -3.4034 P.3       1 ATP        -1.1062
     10 O1A         2.7783    2.5894   -2.2878 O.co2     1 ATP         0.3195
     11 O2A         4.4455    1.9448   -4.2250 O.co2     1 ATP         0.3195
     12 O3A         1.9462    1.4588   -4.4194 O.3       1 ATP         0.4672
     13 O5'         3.2903    0.1346   -2.8241 O.3       1 ATP         0.1618
     14 C5'         2.2816   -0.2918   -1.9206 C.3       1 ATP         0.1504
     15 C4'         2.7248    0.0226   -0.4980 C.3       1 ATP         0.1111
     16 O4'         2.4697    1.4219   -0.2462 O.3       1 ATP        -0.1436
     17 C3'         1.9404   -0.7419    0.5596 C.3       1 ATP         0.1111
     18 O3'         2.7418   -0.8086    1.7389 O.3       1 ATP        -0.2728
     19 C2'         0.7477    0.1630    0.7858 C.3       1 ATP         0.1111
     20 O2'         0.1373   -0.0577    2.0407 O.3       1 ATP        -0.2728
     21 C1'         1.3733    1.5427    0.6747 C.3       1 ATP         0.2693
     22 N9          0.4520    2.5240    0.1767 N.pl3     1 ATP        -0.3222
     23 C8         -0.3054    2.4845   -1.1576 C.ar      1 ATP         0.1640
     24 N7         -1.0755    3.5806   -1.2691 N.2       1 ATP        -0.1640
     25 C5         -0.8043    4.2306   -0.0942 C.ar      1 ATP         0.0820
     26 C6         -1.4324    5.5335    0.2646 C.ar      1 ATP         0.1640
     27 N6         -2.2885    6.1054   -0.5675 N.pl3     1 ATP        -0.4916
     28 N1         -1.0537    6.0229    1.4478 N.pl3     1 ATP        -0.4390
     29 C2         -0.1096    5.3242    2.2908 C.ar      1 ATP         0.5691
     30 N3          0.4468    4.1904    1.9960 N.ar      1 ATP        -0.4283
     31 C4          0.0631    3.6855    0.7877 C.ar      1 ATP         0.2226
     32 HOB2        2.8092    2.0024   -6.9963 H         1 ATP         0.2010
     33 H5'1        1.3514    0.2330   -2.1577 H         1 ATP        -0.0393
     34 H5'2        2.1280   -1.3678   -2.0460 H         1 ATP        -0.0393
     35 H4'         3.8040   -0.1399   -0.4044 H         1 ATP        -0.0393
     36 H3'         1.6768   -1.7637    0.2732 H         1 ATP        -0.0393
     37 HO3'        3.5553   -1.2733    1.4913 H         1 ATP         0.2010
     38 H2'         0.0002   -0.0084   -0.0014 H         1 ATP        -0.0393
     39 HO2'       -0.6132    0.5577    2.1063 H         1 ATP         0.2010
     40 H1'         1.7718    1.9211    1.6015 H         1 ATP        -0.0393
     41 H8         -0.2991    1.7413   -1.9611 H         1 ATP         0.0000
     42 HN61       -2.5167    5.6603   -1.4447 H         1 ATP         0.2048
     43 HN62       -2.7159    6.9882   -0.3270 H         1 ATP         0.2048
     44 H2          0.1059    5.8491    3.2340 H         1 ATP        -0.1292
     45 H45        -1.4532    6.9099    1.7401 H         1 ATP         0.2048
@<TRIPOS>BOND
     1    1    2 2
     2    1    3 1
     3    1    4 1
     4    1    8 1
     5    5    6 2
     6    5    7 1
     7    5    8 1
     8    5   12 1
     9    7   32 1
    10    9   10 2
    11    9   11 1
    12    9   12 1
    13    9   13 1
    14   13   14 1
    15   14   15 1
    16   14   33 1
    17   14   34 1
    18   15   16 1
    19   15   17 1
    20   15   35 1
    21   16   21 1
    22   17   18 1
    23   17   19 1
    24   17   36 1
    25   18   37 1
    26   19   20 1
    27   19   21 1
    28   19   38 1
    29   20   39 1
    30   21   22 1
    31   21   40 1
    32   22   23 ar
    33   22   31 ar
    34   23   24 ar
    35   23   41 1
    36   24   25 ar
    37   25   26 ar
    38   25   31 ar
    39   26   27 1
    40   26   28 ar
    41   27   42 1
    42   27   43 1
    43   28   29 ar
    44   28   45 1
    45   29   30 ar
    46   29   44 1
    47   30   31 ar
@<TRIPOS>SUBSTRUCTURE
     1 ATP         1 GROUP 0 A     ****
@<TRIPOS>MOLECULE
[[[5-(6-amino-1,8-dihydropurine-6,8-diylium-7-id-9-yl)-3,4-dihydroxy-tetrahydrofuran-2-yl]methoxy-oxido-phosphoryl]oxy-hydroxy-phosphoryl] phosphate
   45    47     1     0     0
SMALL
USER_CHARGES

@<TRIPOS>ATOM
      1 PG          1.4863    6.0922   -2.1276 P.3       1 ATP        -1.1921
      2 O1G         1.8330    6.7710   -0.8064 O.co2     1 ATP         0.3195
      3 O2G        -0.0079    5.8831   -2.3510 O.co2     1 ATP         0.3195
      4 O3G         2.2272    6.6540   -3.3365 O.co2     1 ATP         0.3195
      5 PB          3.5868    4.0415   -1.7027 P.3       1 ATP        -0.9715
      6 O1B         4.6493    4.7836   -2.4584 O.2       1 ATP         0.2707
      7 O2B         3.7220    4.1079   -0.0929 O.3       1 ATP         0.0326
      8 O3B         2.0777    4.5623   -1.9629 O.3       1 ATP         0.4672
      9 PA          3.2070    1.6613   -3.4034 P.3       1 ATP        -1.1062
     10 O1A         4.3719    1.8979   -4.3397 O.co2     1 ATP         0.3195
     11 O2A         1.7852    1.9476   -3.8350 O.co2     1 ATP         0.3195
     12 O3A         3.4957    2.4580   -2.0089 O.3       1 ATP         0.4672
     13 O5'         3.2903    0.1346   -2.8241 O.3       1 ATP         0.1618
     14 C5'         2.2816   -0.2918   -1.9206 C.3       1 ATP         0.1504
     15 C4'         2.7248    0.0226   -0.4980 C.3       1 ATP         0.1111
     16 O4'         2.4697    1.4219   -0.2462 O.3       1 ATP        -0.1436
     17 C3'         1.9404   -0.7419    0.5596 C.3       1 ATP         0.1111
     18 O3'         2.7418   -0.8086    1.7389 O.3       1 ATP        -0.2728
     19 C2'         0.7477    0.1630    0.7858 C.3       1 ATP         0.1111
     20 O2'         0.1373   -0.0577    2.0407 O.3       1 ATP        -0.2728
     21 C1'         1.3733    1.5427    0.6747 C.3       1 ATP         0.2693
     22 N9          0.4520    2.5240    0.1767 N.pl3     1 ATP        -0.3222
     23 C8         -0.3054    2.4845   -1.1576 C.ar      1 ATP         0.1640
     24 N7         -1.0755    3.5806   -1.2691 N.2       1 ATP        -0.1640
     25 C5         -0.8043    4.2306   -0.0942 C.ar      1 ATP         0.0820
     26 C6         -1.4324    5.5335    0.2646 C.ar      1 ATP         0.1640
     27 N6         -2.2885    6.1054   -0.5675 N.pl3     1 ATP        -0.4916
     28 N1         -1.0537    6.0229    1.4478 N.pl3     1 ATP        -0.4390
     29 C2         -0.1096    5.3242    2.2908 C.ar      1 ATP         0.5691
     30 N3          0.4468    4.1904    1.9960 N.ar      1 ATP        -0.4283
     31 C4          0.0631    3.6855    0.7877 C.ar      1 ATP         0.2226
     32 HOB2        4.5348    3.7567    0.3293 H         1 ATP         0.2010
     33 H5'1        1.3514    0.2330   -2.1577 H         1 ATP        -0.0393
     34 H5'2        2.1280   -1.3678   -2.0460 H         1 ATP        -0.0393
     35 H4'         3.8040   -0.1399   -0.4044 H         1 ATP        -0.0393
     36 H3'         1.6768   -1.7637    0.2732 H         1 ATP        -0.0393
     37 HO3'        2.2231   -1.2979    2.3952 H         1 ATP         0.2010
     38 H2'         0.0002   -0.0084   -0.0014 H         1 ATP        -0.0393
     39 HO2'       -0.6132    0.5577    2.1063 H         1 ATP         0.2010
     40 H1'         1.7718    1.9211    1.6015 H         1 ATP        -0.0393
     41 H8         -0.2991    1.7413   -1.9611 H         1 ATP         0.0000
     42 HN61       -2.5167    5.6603   -1.4447 H         1 ATP         0.2048
     43 HN62       -2.7159    6.9882   -0.3270 H         1 ATP         0.2048
     44 H2          0.1059    5.8491    3.2340 H         1 ATP        -0.1292
     45 H45        -1.4532    6.9099    1.7401 H         1 ATP         0.2048
@<TRIPOS>BOND
     1    1    2 2
     2    1    3 1
     3    1    4 1
     4    1    8 1
     5    5    6 2
     6    5    7 1
     7    5    8 1
     8    5   12 1
     9    7   32 1
    10    9   10 2
    11    9   11 1
    12    9   12 1
    13    9   13 1
    14   13   14 1
    15   14   15 1
    16   14   33 1
    17   14   34 1
    18   15   16 1
    19   15   17 1
    20   15   35 1
    21   16   21 1
    22   17   18 1
    23   17   19 1
    24   17   36 1
    25   18   37 1
    26   19   20 1
    27   19   21 1
    28   19   38 1
    29   20   39 1
    30   21   22 1
    31   21   40 1
    32   22   23 ar
    33   22   31 ar
    34   23   24 ar
    35   23   41 1
    36   24   25 ar
    37   25   26 ar
    38   25   31 ar
    39   26   27 1
    40   26   28 ar
    41   27   42 1
    42   27   43 1
    43   28   29 ar
    44   28   45 1
    45   29   30 ar
    46   29   44 1
    47   30   31 ar
@<TRIPOS>SUBSTRUCTURE
     1 ATP         1 GROUP 0 A     ****
@<TRIPOS>MOLECULE
[[[5-(6-amino-1,8-dihydropurine-6,8-diylium-7-id-9-yl)-3,4-dihydroxy-tetrahydrofuran-2-yl]methoxy-oxido-phosphoryl]oxy-hydroxy-phosphoryl] phosphate
   45    47     1     0     0
SMALL
USER_CHARGES

@<TRIPOS>ATOM
      1 PG          0.1828    1.2804   -8.3997 P.3       1 ATP        -1.1921
      2 O1G        -0.4210   -0.0712   -8.7668 O.co2     1 ATP         0.3195
      3 O2G         1.4329    1.6443   -9.1942 O.co2     1 ATP         0.3195
      4 O3G        -0.8334    2.4113   -8.2793 O.co2     1 ATP         0.3195
      5 PB         -0.0442    0.6715   -5.5056 P.3       1 ATP        -0.9715
      6 O1B        -1.1243    1.6293   -5.0975 O.2       1 ATP         0.2707
      7 O2B        -0.5462   -0.8361   -5.8044 O.3       1 ATP         0.0326
      8 O3B         0.7406    1.0694   -6.8629 O.3       1 ATP         0.4672
      9 PA          2.1937    1.5414   -3.7917 P.3       1 ATP        -1.1062
     10 O1A         1.4180    2.5139   -2.9301 O.co2     1 ATP         0.3195
     11 O2A         3.1111    2.0296   -4.8916 O.co2     1 ATP         0.3195
     12 O3A         1.1443    0.4675   -4.4307 O.3       1 ATP         0.4672
     13 O5'         3.0213    0.5153   -2.8245 O.3       1 ATP         0.1618
     14 C5'         2.2816   -0.2918   -1.9206 C.3       1 ATP         0.1504
     15 C4'         2.7248    0.0226   -0.4980 C.3       1 ATP         0.1111
     16 O4'         2.4697    1.4219   -0.2462 O.3       1 ATP        -0.1436
     17 C3'         1.9404   -0.7419    0.5596 C.3       1 ATP         0.1111
     18 O3'         2.7418   -0.8086    1.7389 O.3       1 ATP        -0.2728
     19 C2'         0.7477    0.1630    0.7858 C.3       1 ATP         0.1111
     20 O2'         0.1373   -0.0577    2.0407 O.3       1 ATP        -0.2728
     21 C1'         1.3733    1.5427    0.6747 C.3       1 ATP         0.2693
     22 N9          0.4520    2.5240    0.1767 N.pl3     1 ATP        -0.3222
     23 C8         -0.3054    2.4845   -1.1576 C.ar      1 ATP         0.1640
     24 N7         -1.0755    3.5806   -1.2691 N.2       1 ATP        -0.1640
     25 C5         -0.8043    4.2306   -0.0942 C.ar      1 ATP         0.0820
     26 C6         -1.4324    5.5335    0.2646 C.ar      1 ATP         0.1640
     27 N6         -2.2885    6.1054   -0.5675 N.pl3     1 ATP        -0.4916
     28 N1         -1.0537    6.0229    1.4478 N.pl3     1 ATP        -0.4390
     29 C2         -0.1096    5.3242    2.2908 C.ar      1 ATP         0.5691
     30 N3          0.4468    4.1904    1.9960 N.ar      1 ATP        -0.4283
     31 C4          0.0631    3.6855    0.7877 C.ar      1 ATP         0.2226
     32 HOB2       -0.9852   -1.3404   -5.0866 H         1 ATP         0.2010
     33 H5'1        1.2163   -0.0770   -2.0471 H         1 ATP        -0.0393
     34 H5'2        2.4655   -1.3443   -2.1563 H         1 ATP        -0.0393
     35 H4'         3.8040   -0.1399   -0.4044 H         1 ATP        -0.0393
     36 H3'         1.6768   -1.7637    0.2732 H         1 ATP        -0.0393
     37 HO3'        2.2231   -1.2979    2.3952 H         1 ATP         0.2010
     38 H2'         0.0002   -0.0084   -0.0014 H         1 ATP        -0.0393
     39 HO2'       -0.1554   -0.9852    2.0577 H         1 ATP         0.2010
     40 H1'         1.7718    1.9211    1.6015 H         1 ATP        -0.0393
     41 H8         -0.2991    1.7413   -1.9611 H         1 ATP         0.0000
     42 HN61       -2.5167    5.6603   -1.4447 H         1 ATP         0.2048
     43 HN62       -2.7159    6.9882   -0.3270 H         1 ATP         0.2048
     44 H2          0.1059    5.8491    3.2340 H         1 ATP        -0.1292
     45 H45        -1.4532    6.9099    1.7401 H         1 ATP         0.2048
@<TRIPOS>BOND
     1    1    2 2
     2    1    3 1
     3    1    4 1
     4    1    8 1
     5    5    6 2
     6    5    7 1
     7    5    8 1
     8    5   12 1
     9    7   32 1
    10    9   10 2
    11    9   11 1
    12    9   12 1
    13    9   13 1
    14   13   14 1
    15   14   15 1
    16   14   33 1
    17   14   34 1
    18   15   16 1
    19   15   17 1
    20   15   35 1
    21   16   21 1
    22   17   18 1
    23   17   19 1
    24   17   36 1
    25   18   37 1
    26   19   20 1
    27   19   21 1
    28   19   38 1
    29   20   39 1
    30   21   22 1
    31   21   40 1
    32   22   23 ar
    33   22   31 ar
    34   23   24 ar
    35   23   41 1
    36   24   25 ar
    37   25   26 ar
    38   25   31 ar
    39   26   27 1
    40   26   28 ar
    41   27   42 1
    42   27   43 1
    43   28   29 ar
    44   28   45 1
    45   29   30 ar
    46   29   44 1
    47   30   31 ar
@<TRIPOS>SUBSTRUCTURE
     1 ATP         1 GROUP 0 A     ****
@<TRIPOS>MOLECULE
[[[5-(6-amino-1,8-dihydropurine-6,8-diylium-7-id-9-yl)-3,4-dihydroxy-tetrahydrofuran-2-yl]methoxy-oxido-phosphoryl]oxy-hydroxy-phosphoryl] phosphate
   45    47     1     0     0
SMALL
USER_CHARGES

@<TRIPOS>ATOM
      1 PG          7.1408   -4.3771   -0.7943 P.3       1 ATP        -1.1921
      2 O1G         8.4680   -3.6301   -0.7114 O.co2     1 ATP         0.3195
      3 O2G         7.1959   -5.6625   -1.6135 O.co2     1 ATP         0.3195
      4 O3G         6.4127   -4.5153    0.5386 O.co2     1 ATP         0.3195
      5 PB          5.6882   -1.8652   -1.4095 P.3       1 ATP        -0.9715
      6 O1B         4.9043   -1.6733   -0.1449 O.2       1 ATP         0.2707
      7 O2B         7.0656   -1.0226   -1.4930 O.3       1 ATP         0.0326
      8 O3B         6.1732   -3.3835   -1.6853 O.3       1 ATP         0.4672
      9 PA          3.5344   -2.0410   -3.4175 P.3       1 ATP        -1.1062
     10 O1A         3.6462   -3.5464   -3.5211 O.co2     1 ATP         0.3195
     11 O2A         3.1788   -1.1977   -4.6226 O.co2     1 ATP         0.3195
     12 O3A         4.9172   -1.4640   -2.7711 O.3       1 ATP         0.4672
     13 O5'         2.5245   -1.6648   -2.1878 O.3       1 ATP         0.1618
     14 C5'         2.2816   -0.2918   -1.9206 C.3       1 ATP         0.1504
     15 C4'         2.7248    0.0226   -0.4980 C.3       1 ATP         0.1111
     16 O4'         2.4697    1.4219   -0.2462 O.3       1 ATP        -0.1436
     17 C3'         1.9404   -0.7419    0.5596 C.3       1 ATP         0.1111
     18 O3'         2.7418   -0.8086    1.7389 O.3       1 ATP        -0.2728
     19 C2'         0.7477    0.1630    0.7858 C.3       1 ATP         0.1111
     20 O2'         0.1373   -0.0577    2.0407 O.3       1 ATP        -0.2728
     21 C1'         1.3733    1.5427    0.6747 C.3       1 ATP         0.2693
     22 N9          0.4520    2.5240    0.1767 N.pl3     1 ATP        -0.3222
     23 C8          0.1798    2.8712   -1.2933 C.ar      1 ATP         0.1640
     24 N7         -0.7494    3.8400   -1.3610 N.2       1 ATP        -0.1640
     25 C5         -1.0173    4.0603   -0.0358 C.ar      1 ATP         0.0820
     26 C6         -2.0105    5.0717    0.4241 C.ar      1 ATP         0.1640
     27 N6         -2.6723    5.7982   -0.4628 N.pl3     1 ATP        -0.4916
     28 N1         -2.1445    5.1522    1.7502 N.pl3     1 ATP        -0.4390
     29 C2         -1.3755    4.3143    2.6426 C.ar      1 ATP         0.5691
     30 N3         -0.5075    3.4292    2.2616 N.ar      1 ATP        -0.4283
     31 C4         -0.3667    3.3425    0.9070 C.ar      1 ATP         0.2226
     32 HOB2        7.7579   -1.1779   -0.8156 H         1 ATP         0.2010
     33 H5'1        2.8432    0.3119   -2.6398 H         1 ATP        -0.0393
     34 H5'2        1.2128   -0.0927   -2.0428 H         1 ATP        -0.0393
     35 H4'         3.8040   -0.1399   -0.4044 H         1 ATP        -0.0393
     36 H3'         1.6768   -1.7637    0.2732 H         1 ATP        -0.0393
     37 HO3'        2.2231   -1.2979    2.3952 H         1 ATP         0.2010
     38 H2'         0.0002   -0.0084   -0.0014 H         1 ATP        -0.0393
     39 HO2'       -0.6132    0.5577    2.1063 H         1 ATP         0.2010
     40 H1'         1.7718    1.9211    1.6015 H         1 ATP        -0.0393
     41 H8          0.6089    2.4651   -2.2147 H         1 ATP         0.0000
     42 HN61       -2.5055    5.6680   -1.4503 H         1 ATP         0.2048
     43 HN62       -3.3462    6.4841   -0.1542 H         1 ATP         0.2048
     44 H2         -1.5932    4.4937    3.7066 H         1 ATP        -0.1292
     45 H45        -2.8098    5.8270    2.1160 H         1 ATP         0.2048
@<TRIPOS>BOND
     1    1    2 2
     2    1    3 1
     3    1    4 1
     4    1    8 1
     5    5    6 2
     6    5    7 1
     7    5    8 1
     8    5   12 1
     9    7   32 1
    10    9   10 2
    11    9   11 1
    12    9   12 1
    13    9   13 1
    14   13   14 1
    15   14   15 1
    16   14   33 1
    17   14   34 1
    18   15   16 1
    19   15   17 1
    20   15   35 1
    21   16   21 1
    22   17   18 1
    23   17   19 1
    24   17   36 1
    25   18   37 1
    26   19   20 1
    27   19   21 1
    28   19   38 1
    29   20   39 1
    30   21   22 1
    31   21   40 1
    32   22   23 ar
    33   22   31 ar
    34   23   24 ar
    35   23   41 1
    36   24   25 ar
    37   25   26 ar
    38   25   31 ar
    39   26   27 1
    40   26   28 ar
    41   27   42 1
    42   27   43 1
    43   28   29 ar
    44   28   45 1
    45   29   30 ar
    46   29   44 1
    47   30   31 ar
@<TRIPOS>SUBSTRUCTURE
     1 ATP         1 GROUP 0 A     ****
@<TRIPOS>MOLECULE
[[[5-(6-amino-1,8-dihydropurine-6,8-diylium-7-id-9-yl)-3,4-dihydroxy-tetrahydrofuran-2-yl]methoxy-oxido-phosphoryl]oxy-hydroxy-phosphoryl] phosphate
   45    47     1     0     0
SMALL
USER_CHARGES

@<TRIPOS>ATOM
      1 PG         -1.2282    1.9681   -5.2173 P.3       1 ATP        -1.1921
      2 O1G        -2.1102    1.2376   -6.2247 O.co2     1 ATP         0.3195
      3 O2G        -1.5184    3.4606   -5.0974 O.co2     1 ATP         0.3195
      4 O3G        -1.0745    1.2510   -3.8800 O.co2     1 ATP         0.3195
      5 PB          1.2029    0.6475   -6.2867 P.3       1 ATP        -0.9715
      6 O1B         0.4652   -0.5004   -6.9102 O.2       1 ATP         0.2707
      7 O2B         2.3434    1.3130   -7.2198 O.3       1 ATP         0.0326
      8 O3B         0.2782    1.9122   -5.8844 O.3       1 ATP         0.4672
      9 PA          2.8924    1.2553   -3.9461 P.3       1 ATP        -1.1062
     10 O1A         1.9883    2.2894   -3.3114 O.co2     1 ATP         0.3195
     11 O2A         4.1399    1.6630   -4.6993 O.co2     1 ATP         0.3195
     12 O3A         1.9880    0.3054   -4.9170 O.3       1 ATP         0.4672
     13 O5'         3.2903    0.1346   -2.8241 O.3       1 ATP         0.1618
     14 C5'         2.2816   -0.2918   -1.9206 C.3       1 ATP         0.1504
     15 C4'         2.7248    0.0226   -0.4980 C.3       1 ATP         0.1111
     16 O4'         2.4697    1.4219   -0.2462 O.3       1 ATP        -0.1436
     17 C3'         1.9404   -0.7419    0.5596 C.3       1 ATP         0.1111
     18 O3'         2.7418   -0.8086    1.7389 O.3       1 ATP        -0.2728
     19 C2'         0.7477    0.1630    0.7858 C.3       1 ATP         0.1111
     20 O2'         0.1373   -0.0577    2.0407 O.3       1 ATP        -0.2728
     21 C1'         1.3733    1.5427    0.6747 C.3       1 ATP         0.2693
     22 N9          0.4520    2.5240    0.1767 N.pl3     1 ATP        -0.3222
     23 C8          0.5793    3.3338   -1.1209 C.ar      1 ATP         0.1640
     24 N7         -0.4807    4.1508   -1.2458 N.2       1 ATP        -0.1640
     25 C5         -1.1921    3.8572   -0.1126 C.ar      1 ATP         0.0820
     26 C6         -2.4855    4.5203    0.2163 C.ar      1 ATP         0.1640
     27 N6         -2.9873    5.4319   -0.6020 N.pl3     1 ATP        -0.4916
     28 N1         -3.0414    4.1119    1.3596 N.pl3     1 ATP        -0.4390
     29 C2         -2.4169    3.1071    2.1904 C.ar      1 ATP         0.5691
     30 N3         -1.2928    2.5191    1.9210 N.ar      1 ATP        -0.4283
     31 C4         -0.7202    2.9326    0.7534 C.ar      1 ATP         0.2226
     32 HOB2        3.0884    0.7546   -7.5287 H         1 ATP         0.2010
     33 H5'1        1.3514    0.2330   -2.1577 H         1 ATP        -0.0393
     34 H5'2        2.1280   -1.3678   -2.0460 H         1 ATP        -0.0393
     35 H4'         3.8040   -0.1399   -0.4044 H         1 ATP        -0.0393
     36 H3'         1.6768   -1.7637    0.2732 H         1 ATP        -0.0393
     37 HO3'        3.5553   -1.2733    1.4913 H         1 ATP         0.2010
     38 H2'         0.0002   -0.0084   -0.0014 H         1 ATP        -0.0393
     39 HO2'       -0.1554   -0.9852    2.0577 H         1 ATP         0.2010
     40 H1'         1.7718    1.9211    1.6015 H         1 ATP        -0.0393
     41 H8          1.3565    3.3309   -1.8916 H         1 ATP         0.0000
     42 HN61       -2.4952    5.6785   -1.4487 H         1 ATP         0.2048
     43 HN62       -3.8637    5.8828   -0.3819 H         1 ATP         0.2048
     44 H2         -2.9911    2.8734    3.1000 H         1 ATP        -0.1292
     45 H45        -3.9253    4.5332    1.6302 H         1 ATP         0.2048
@<TRIPOS>BOND
     1    1    2 2
     2    1    3 1
     3    1    4 1
     4    1    8 1
     5    5    6 2
     6    5    7 1
     7    5    8 1
     8    5   12 1
     9    7   32 1
    10    9   10 2
    11    9   11 1
    12    9   12 1
    13    9   13 1
    14   13   14 1
    15   14   15 1
    16   14   33 1
    17   14   34 1
    18   15   16 1
    19   15   17 1
    20   15   35 1
    21   16   21 1
    22   17   18 1
    23   17   19 1
    24   17   36 1
    25   18   37 1
    26   19   20 1
    27   19   21 1
    28   19   38 1
    29   20   39 1
    30   21   22 1
    31   21   40 1
    32   22   23 ar
    33   22   31 ar
    34   23   24 ar
    35   23   41 1
    36   24   25 ar
    37   25   26 ar
    38   25   31 ar
    39   26   27 1
    40   26   28 ar
    41   27   42 1
    42   27   43 1
    43   28   29 ar
    44   28   45 1
    45   29   30 ar
    46   29   44 1
    47   30   31 ar
@<TRIPOS>SUBSTRUCTURE
     1 ATP         1 GROUP 0 A     ****
