@<TRIPOS>MOLECULE
[[[3,4-dihydroxy-5-(6-imino-1~{H}-purin-9-yl)tetrahydrofuran-2-yl]methoxy-hydroxy-phosphoryl]oxy-oxido-phosphoryl] hydrogen phosphate
   45    47     1     0     0
SMALL
USER_CHARGES

@<TRIPOS>ATOM
      1 PG         -5.4320    0.4923    2.0012 P.3       1 ATP         1.5414
      2 O1G        -5.7150   -0.3757    0.7954 O.co2     1 ATP        -0.8562
      3 O2G        -6.5575    1.0036    2.8726 O.co2     1 ATP        -0.8562
      4 O3G        -4.3488   -0.2767    2.9507 O.3       1 ATP        -0.7907
      5 PB         -4.8447    3.0127    0.5644 P.3       1 ATP         1.6574
      6 O1B        -5.0425    2.4948   -0.8429 O.co2     1 ATP        -0.8530
      7 O2B        -5.8924    3.8748    1.2327 O.co2     1 ATP        -0.8530
      8 O3B        -4.5035    1.7510    1.5408 O.3       1 ATP        -0.8003
      9 PA         -2.5925    4.4094    1.8827 P.3       1 ATP         1.7415
     10 O1A        -3.4550    5.1144    2.8891 O.2       1 ATP        -0.8661
     11 O2A        -1.4926    5.3570    1.1685 O.3       1 ATP        -0.8077
     12 O3A        -3.4080    3.7839    0.6336 O.3       1 ATP        -0.7685
     13 O5'        -1.7334    3.1724    2.4743 O.3       1 ATP        -0.5590
     14 C5'        -0.8811    2.4285    1.6206 C.3       1 ATP         0.1960
     15 C4'        -0.1994    1.3333    2.4288 C.3       1 ATP         0.0976
     16 O4'        -1.1285    0.2356    2.5840 O.3       1 ATP        -0.3865
     17 C3'         1.0324    0.7610    1.7344 C.3       1 ATP         0.0901
     18 O3'         1.9175    0.2377    2.7247 O.3       1 ATP        -0.5889
     19 C2'         0.4468   -0.3802    0.9263 C.3       1 ATP         0.0574
     20 O2'         1.3993   -1.3703    0.5961 O.3       1 ATP        -0.5923
     21 C1'        -0.6159   -0.9100    1.8769 C.3       1 ATP         0.2452
     22 N9         -1.7127   -1.6108    1.2130 N.pl3     1 ATP        -0.1834
     23 C8         -2.5485   -1.0808    0.2609 C.ar      1 ATP         0.4338
     24 N7         -3.4476   -1.9486   -0.1593 N.2       1 ATP        -0.6101
     25 C5         -3.1762   -3.0816    0.5530 C.ar      1 ATP         0.2154
     26 C6         -3.8510   -4.3579    0.5006 C.ar      1 ATP         0.6130
     27 N6         -4.8468   -4.5293   -0.2961 N.2       1 ATP        -0.8165
     28 N1         -3.2499   -5.2342    1.3937 N.pl3     1 ATP        -0.8617
     29 C2         -2.1646   -4.9275    2.2116 C.ar      1 ATP         0.6151
     30 N3         -1.5382   -3.7840    2.2778 N.2       1 ATP        -0.5797
     31 C4         -2.1054   -2.9018    1.4120 C.ar      1 ATP         0.0328
     32 HOG3       -4.0606    0.1618    3.7796 H         1 ATP         0.4197
     33 HOA2       -0.8196    5.8045    1.7244 H         1 ATP         0.4550
     34 H5'1       -1.4795    1.9922    0.8142 H         1 ATP         0.0431
     35 H5'2       -0.1362    3.1035    1.1868 H         1 ATP         0.0431
     36 H4'         0.0402    1.7079    3.4342 H         1 ATP         0.1325
     37 H3'         1.5907    1.4859    1.1353 H         1 ATP         0.0782
     38 HO3'        2.6839   -0.1150    2.2479 H         1 ATP         0.4062
     39 H2'        -0.0017    0.0018    0.0005 H         1 ATP         0.0689
     40 HO2'        2.0953   -0.9375    0.0709 H         1 ATP         0.4089
     41 H1'        -0.1998   -1.6319    2.6178 H         1 ATP         0.1098
     42 H8         -2.4515   -0.0599   -0.0829 H         1 ATP         0.0929
     43 HN62       -5.1990   -5.4882   -0.2005 H         1 ATP         0.3678
     44 H2         -1.8555   -5.7783    2.8388 H         1 ATP         0.0383
     45 H45        -3.6312   -6.1750    1.4526 H         1 ATP         0.4286
@<TRIPOS>BOND
     1    1    2 2
     2    1    3 1
     3    1    4 1
     4    1    8 1
     5    4   32 1
     6    5    6 2
     7    5    7 1
     8    5    8 1
     9    5   12 1
    10    9   10 2
    11    9   11 1
    12    9   12 1
    13    9   13 1
    14   11   33 1
    15   13   14 1
    16   14   15 1
    17   14   34 1
    18   14   35 1
    19   15   16 1
    20   15   17 1
    21   15   36 1
    22   16   21 1
    23   17   18 1
    24   17   19 1
    25   17   37 1
    26   18   38 1
    27   19   20 1
    28   19   21 1
    29   19   39 1
    30   20   40 1
    31   21   22 1
    32   21   41 1
    33   22   23 ar
    34   22   31 ar
    35   23   24 ar
    36   23   42 1
    37   24   25 ar
    38   25   26 ar
    39   25   31 ar
    40   26   27 2
    41   26   28 ar
    42   27   43 1
    43   28   29 ar
    44   28   45 1
    45   29   30 ar
    46   29   44 1
    47   30   31 ar
@<TRIPOS>SUBSTRUCTURE
     1 ATP         1 GROUP 0 A     ****
@<TRIPOS>MOLECULE
[[[3,4-dihydroxy-5-(6-imino-1~{H}-purin-9-yl)tetrahydrofuran-2-yl]methoxy-hydroxy-phosphoryl]oxy-oxido-phosphoryl] hydrogen phosphate
   45    47     1     0     0
SMALL
USER_CHARGES

@<TRIPOS>ATOM
      1 PG         -2.7434    2.2890   -2.7982 P.3       1 ATP         1.5414
      2 O1G        -2.0236    1.5052   -1.7235 O.co2     1 ATP        -0.8562
      3 O2G        -2.0004    3.2772   -3.6694 O.co2     1 ATP        -0.8562
      4 O3G        -3.5347    1.2374   -3.7647 O.3       1 ATP        -0.7907
      5 PB         -4.1117    4.2370   -1.0390 P.3       1 ATP         1.6574
      6 O1B        -3.2641    5.3903   -1.5282 O.co2     1 ATP        -0.8530
      7 O2B        -5.5572    4.4437   -0.6446 O.co2     1 ATP        -0.8530
      8 O3B        -4.0350    3.0318   -2.1359 O.3       1 ATP        -0.8003
      9 PA         -2.9690    4.0281    1.6835 P.3       1 ATP         1.7415
     10 O1A        -4.1648    4.3954    2.5134 O.2       1 ATP        -0.8661
     11 O2A        -1.9470    5.2523    1.4099 O.3       1 ATP        -0.8077
     12 O3A        -3.3299    3.5086    0.1947 O.3       1 ATP        -0.7685
     13 O5'        -2.0397    2.8622    2.3122 O.3       1 ATP        -0.5590
     14 C5'        -0.8811    2.4285    1.6206 C.3       1 ATP         0.1960
     15 C4'        -0.1994    1.3333    2.4288 C.3       1 ATP         0.0976
     16 O4'        -1.1285    0.2356    2.5840 O.3       1 ATP        -0.3865
     17 C3'         1.0324    0.7610    1.7344 C.3       1 ATP         0.0901
     18 O3'         1.9175    0.2377    2.7247 O.3       1 ATP        -0.5889
     19 C2'         0.4468   -0.3802    0.9263 C.3       1 ATP         0.0574
     20 O2'         1.3993   -1.3703    0.5961 O.3       1 ATP        -0.5923
     21 C1'        -0.6159   -0.9100    1.8769 C.3       1 ATP         0.2452
     22 N9         -1.7127   -1.6108    1.2130 N.pl3     1 ATP        -0.1834
     23 C8         -1.7690   -2.9583    0.9549 C.ar      1 ATP         0.4338
     24 N7         -2.8827   -3.3076    0.3418 N.2       1 ATP        -0.6101
     25 C5         -3.5683   -2.1351    0.2017 C.ar      1 ATP         0.2154
     26 C6         -4.8617   -1.9185   -0.4044 C.ar      1 ATP         0.6130
     27 N6         -5.5166   -2.9094   -0.8993 N.2       1 ATP        -0.8165
     28 N1         -5.1837   -0.5701   -0.3344 N.pl3     1 ATP        -0.8617
     29 C2         -4.3821    0.4180    0.2330 C.ar      1 ATP         0.6151
     30 N3         -3.2117    0.2488    0.7860 N.2       1 ATP        -0.5797
     31 C4         -2.8672   -1.0657    0.7327 C.ar      1 ATP         0.0328
     32 HOG3       -4.0539    1.5945   -4.5166 H         1 ATP         0.4197
     33 HOA2       -1.5253    5.6979    2.1752 H         1 ATP         0.4550
     34 H5'1       -1.1761    2.0499    0.6365 H         1 ATP         0.0431
     35 H5'2       -0.2073    3.2811    1.4874 H         1 ATP         0.0431
     36 H4'         0.0402    1.7079    3.4342 H         1 ATP         0.1325
     37 H3'         1.5907    1.4859    1.1353 H         1 ATP         0.0782
     38 HO3'        2.6839   -0.1150    2.2479 H         1 ATP         0.4062
     39 H2'        -0.0017    0.0018    0.0005 H         1 ATP         0.0689
     40 HO2'        2.0953   -0.9375    0.0709 H         1 ATP         0.4089
     41 H1'        -0.1998   -1.6319    2.6178 H         1 ATP         0.1098
     42 H8         -0.9697   -3.6300    1.2371 H         1 ATP         0.0929
     43 HN62       -6.4060   -2.5723   -1.2840 H         1 ATP         0.3678
     44 H2         -4.8409    1.4176    0.1757 H         1 ATP         0.0383
     45 H45        -6.0768   -0.2826   -0.7263 H         1 ATP         0.4286
@<TRIPOS>BOND
     1    1    2 2
     2    1    3 1
     3    1    4 1
     4    1    8 1
     5    4   32 1
     6    5    6 2
     7    5    7 1
     8    5    8 1
     9    5   12 1
    10    9   10 2
    11    9   11 1
    12    9   12 1
    13    9   13 1
    14   11   33 1
    15   13   14 1
    16   14   15 1
    17   14   34 1
    18   14   35 1
    19   15   16 1
    20   15   17 1
    21   15   36 1
    22   16   21 1
    23   17   18 1
    24   17   19 1
    25   17   37 1
    26   18   38 1
    27   19   20 1
    28   19   21 1
    29   19   39 1
    30   20   40 1
    31   21   22 1
    32   21   41 1
    33   22   23 ar
    34   22   31 ar
    35   23   24 ar
    36   23   42 1
    37   24   25 ar
    38   25   26 ar
    39   25   31 ar
    40   26   27 2
    41   26   28 ar
    42   27   43 1
    43   28   29 ar
    44   28   45 1
    45   29   30 ar
    46   29   44 1
    47   30   31 ar
@<TRIPOS>SUBSTRUCTURE
     1 ATP         1 GROUP 0 A     ****
@<TRIPOS>MOLECULE
[[[3,4-dihydroxy-5-(6-imino-1~{H}-purin-9-yl)tetrahydrofuran-2-yl]methoxy-hydroxy-phosphoryl]oxy-oxido-phosphoryl] hydrogen phosphate
   45    47     1     0     0
SMALL
USER_CHARGES

@<TRIPOS>ATOM
      1 PG         -2.7434    2.2890   -2.7982 P.3       1 ATP         1.5414
      2 O1G        -2.0236    1.5052   -1.7235 O.co2     1 ATP        -0.8562
      3 O2G        -2.0004    3.2772   -3.6694 O.co2     1 ATP        -0.8562
      4 O3G        -3.5347    1.2374   -3.7647 O.3       1 ATP        -0.7907
      5 PB         -4.1117    4.2370   -1.0390 P.3       1 ATP         1.6574
      6 O1B        -3.2641    5.3903   -1.5282 O.co2     1 ATP        -0.8530
      7 O2B        -5.5572    4.4437   -0.6446 O.co2     1 ATP        -0.8530
      8 O3B        -4.0350    3.0318   -2.1359 O.3       1 ATP        -0.8003
      9 PA         -2.9690    4.0281    1.6835 P.3       1 ATP         1.7415
     10 O1A        -4.1648    4.3954    2.5134 O.2       1 ATP        -0.8661
     11 O2A        -1.9470    5.2523    1.4099 O.3       1 ATP        -0.8077
     12 O3A        -3.3299    3.5086    0.1947 O.3       1 ATP        -0.7685
     13 O5'        -2.0397    2.8622    2.3122 O.3       1 ATP        -0.5590
     14 C5'        -0.8811    2.4285    1.6206 C.3       1 ATP         0.1960
     15 C4'        -0.1994    1.3333    2.4288 C.3       1 ATP         0.0976
     16 O4'        -1.1285    0.2356    2.5840 O.3       1 ATP        -0.3865
     17 C3'         1.0324    0.7610    1.7344 C.3       1 ATP         0.0901
     18 O3'         1.9175    0.2377    2.7247 O.3       1 ATP        -0.5889
     19 C2'         0.4468   -0.3802    0.9263 C.3       1 ATP         0.0574
     20 O2'         1.3993   -1.3703    0.5961 O.3       1 ATP        -0.5923
     21 C1'        -0.6159   -0.9100    1.8769 C.3       1 ATP         0.2452
     22 N9         -1.7127   -1.6108    1.2130 N.pl3     1 ATP        -0.1834
     23 C8         -2.8662   -1.0361    0.7388 C.ar      1 ATP         0.4338
     24 N7         -3.6774   -1.9166    0.1867 N.2       1 ATP        -0.6101
     25 C5         -3.0159   -3.1045    0.3122 C.ar      1 ATP         0.2154
     26 C6         -3.4377   -4.4169   -0.1199 C.ar      1 ATP         0.6130
     27 N6         -4.5720   -4.5691   -0.7080 N.2       1 ATP        -0.8165
     28 N1         -2.4600   -5.3463    0.2071 N.pl3     1 ATP        -0.8617
     29 C2         -1.2595   -5.0554    0.8515 C.ar      1 ATP         0.6151
     30 N3         -0.8555   -3.8803    1.2516 N.2       1 ATP        -0.5797
     31 C4         -1.7946   -2.9457    0.9448 C.ar      1 ATP         0.0328
     32 HOG3       -4.0539    1.5945   -4.5166 H         1 ATP         0.4197
     33 HOA2       -1.5253    5.6979    2.1752 H         1 ATP         0.4550
     34 H5'1       -1.1761    2.0499    0.6365 H         1 ATP         0.0431
     35 H5'2       -0.2073    3.2811    1.4874 H         1 ATP         0.0431
     36 H4'         0.0402    1.7079    3.4342 H         1 ATP         0.1325
     37 H3'         1.5907    1.4859    1.1353 H         1 ATP         0.0782
     38 HO3'        2.6839   -0.1150    2.2479 H         1 ATP         0.4062
     39 H2'        -0.0017    0.0018    0.0005 H         1 ATP         0.0689
     40 HO2'        2.0953   -0.9375    0.0709 H         1 ATP         0.4089
     41 H1'        -0.1998   -1.6319    2.6178 H         1 ATP         0.1098
     42 H8         -3.0558    0.0252    0.8256 H         1 ATP         0.0929
     43 HN62       -4.7047   -5.5592   -0.9421 H         1 ATP         0.3678
     44 H2         -0.6372   -5.9505    1.0077 H         1 ATP         0.0383
     45 H45        -2.6338   -6.3155   -0.0469 H         1 ATP         0.4286
@<TRIPOS>BOND
     1    1    2 2
     2    1    3 1
     3    1    4 1
     4    1    8 1
     5    4   32 1
     6    5    6 2
     7    5    7 1
     8    5    8 1
     9    5   12 1
    10    9   10 2
    11    9   11 1
    12    9   12 1
    13    9   13 1
    14   11   33 1
    15   13   14 1
    16   14   15 1
    17   14   34 1
    18   14   35 1
    19   15   16 1
    20   15   17 1
    21   15   36 1
    22   16   21 1
    23   17   18 1
    24   17   19 1
    25   17   37 1
    26   18   38 1
    27   19   20 1
    28   19   21 1
    29   19   39 1
    30   20   40 1
    31   21   22 1
    32   21   41 1
    33   22   23 ar
    34   22   31 ar
    35   23   24 ar
    36   23   42 1
    37   24   25 ar
    38   25   26 ar
    39   25   31 ar
    40   26   27 2
    41   26   28 ar
    42   27   43 1
    43   28   29 ar
    44   28   45 1
    45   29   30 ar
    46   29   44 1
    47   30   31 ar
@<TRIPOS>SUBSTRUCTURE
     1 ATP         1 GROUP 0 A     ****
@<TRIPOS>MOLECULE
[[[3,4-dihydroxy-5-(6-imino-1~{H}-purin-9-yl)tetrahydrofuran-2-yl]methoxy-hydroxy-phosphoryl]oxy-oxido-phosphoryl] hydrogen phosphate
   45    47     1     0     0
SMALL
USER_CHARGES

@<TRIPOS>ATOM
      1 PG         -5.8497    1.2600   -1.0613 P.3       1 ATP         1.5414
      2 O1G        -4.8628    2.2044   -1.7107 O.co2     1 ATP        -0.8562
      3 O2G        -7.2926    1.6639   -0.8556 O.co2     1 ATP        -0.8562
      4 O3G        -5.8178   -0.1589   -1.8688 O.3       1 ATP        -0.7907
      5 PB         -4.9323    1.5676    1.7362 P.3       1 ATP         1.6574
      6 O1B        -6.1905    2.2984    2.1493 O.co2     1 ATP        -0.8530
      7 O2B        -4.2107    0.6513    2.6993 O.co2     1 ATP        -0.8530
      8 O3B        -5.2347    0.7469    0.3590 O.3       1 ATP        -0.8003
      9 PA         -3.0705    3.8640    1.8808 P.3       1 ATP         1.7415
     10 O1A        -3.8861    4.6226    2.8874 O.2       1 ATP        -0.8661
     11 O2A        -2.5428    4.7593    0.6407 O.3       1 ATP        -0.8077
     12 O3A        -3.8686    2.6596    1.1535 O.3       1 ATP        -0.7685
     13 O5'        -1.7334    3.1724    2.4743 O.3       1 ATP        -0.5590
     14 C5'        -0.8811    2.4285    1.6206 C.3       1 ATP         0.1960
     15 C4'        -0.1994    1.3333    2.4288 C.3       1 ATP         0.0976
     16 O4'        -1.1285    0.2356    2.5840 O.3       1 ATP        -0.3865
     17 C3'         1.0324    0.7610    1.7344 C.3       1 ATP         0.0901
     18 O3'         1.9175    0.2377    2.7247 O.3       1 ATP        -0.5889
     19 C2'         0.4468   -0.3802    0.9263 C.3       1 ATP         0.0574
     20 O2'         1.3993   -1.3703    0.5961 O.3       1 ATP        -0.5923
     21 C1'        -0.6159   -0.9100    1.8769 C.3       1 ATP         0.2452
     22 N9         -1.7127   -1.6108    1.2130 N.pl3     1 ATP        -0.1834
     23 C8         -2.5485   -1.0808    0.2609 C.ar      1 ATP         0.4338
     24 N7         -3.4476   -1.9486   -0.1593 N.2       1 ATP        -0.6101
     25 C5         -3.1762   -3.0816    0.5530 C.ar      1 ATP         0.2154
     26 C6         -3.8510   -4.3579    0.5006 C.ar      1 ATP         0.6130
     27 N6         -4.8468   -4.5293   -0.2961 N.2       1 ATP        -0.8165
     28 N1         -3.2499   -5.2342    1.3937 N.pl3     1 ATP        -0.8617
     29 C2         -2.1646   -4.9275    2.2116 C.ar      1 ATP         0.6151
     30 N3         -1.5382   -3.7840    2.2778 N.2       1 ATP        -0.5797
     31 C4         -2.1054   -2.9018    1.4120 C.ar      1 ATP         0.0328
     32 HOG3       -6.4081   -0.8815   -1.5660 H         1 ATP         0.4197
     33 HOA2       -1.9622    5.5283    0.8243 H         1 ATP         0.4550
     34 H5'1       -1.4795    1.9922    0.8142 H         1 ATP         0.0431
     35 H5'2       -0.1362    3.1035    1.1868 H         1 ATP         0.0431
     36 H4'         0.0402    1.7079    3.4342 H         1 ATP         0.1325
     37 H3'         1.5907    1.4859    1.1353 H         1 ATP         0.0782
     38 HO3'        2.6839   -0.1150    2.2479 H         1 ATP         0.4062
     39 H2'        -0.0017    0.0018    0.0005 H         1 ATP         0.0689
     40 HO2'        2.0953   -0.9375    0.0709 H         1 ATP         0.4089
     41 H1'        -0.1998   -1.6319    2.6178 H         1 ATP         0.1098
     42 H8         -2.4515   -0.0599   -0.0829 H         1 ATP         0.0929
     43 HN62       -5.1990   -5.4882   -0.2005 H         1 ATP         0.3678
     44 H2         -1.8555   -5.7783    2.8388 H         1 ATP         0.0383
     45 H45        -3.6312   -6.1750    1.4526 H         1 ATP         0.4286
@<TRIPOS>BOND
     1    1    2 2
     2    1    3 1
     3    1    4 1
     4    1    8 1
     5    4   32 1
     6    5    6 2
     7    5    7 1
     8    5    8 1
     9    5   12 1
    10    9   10 2
    11    9   11 1
    12    9   12 1
    13    9   13 1
    14   11   33 1
    15   13   14 1
    16   14   15 1
    17   14   34 1
    18   14   35 1
    19   15   16 1
    20   15   17 1
    21   15   36 1
    22   16   21 1
    23   17   18 1
    24   17   19 1
    25   17   37 1
    26   18   38 1
    27   19   20 1
    28   19   21 1
    29   19   39 1
    30   20   40 1
    31   21   22 1
    32   21   41 1
    33   22   23 ar
    34   22   31 ar
    35   23   24 ar
    36   23   42 1
    37   24   25 ar
    38   25   26 ar
    39   25   31 ar
    40   26   27 2
    41   26   28 ar
    42   27   43 1
    43   28   29 ar
    44   28   45 1
    45   29   30 ar
    46   29   44 1
    47   30   31 ar
@<TRIPOS>SUBSTRUCTURE
     1 ATP         1 GROUP 0 A     ****
@<TRIPOS>MOLECULE
[[[3,4-dihydroxy-5-(6-imino-1~{H}-purin-9-yl)tetrahydrofuran-2-yl]methoxy-hydroxy-phosphoryl]oxy-oxido-phosphoryl] hydrogen phosphate
   45    47     1     0     0
SMALL
USER_CHARGES

@<TRIPOS>ATOM
      1 PG         -4.5976    2.9594   -3.6645 P.3       1 ATP         1.5414
      2 O1G        -3.8212    3.9358   -4.5198 O.co2     1 ATP        -0.8562
      3 O2G        -6.1095    2.9836   -3.6343 O.co2     1 ATP        -0.8562
      4 O3G        -4.1099    1.4454   -4.0335 O.3       1 ATP        -0.7907
      5 PB         -4.1117    4.2370   -1.0390 P.3       1 ATP         1.6574
      6 O1B        -3.2641    5.3903   -1.5282 O.co2     1 ATP        -0.8530
      7 O2B        -5.5572    4.4437   -0.6446 O.co2     1 ATP        -0.8530
      8 O3B        -4.0350    3.0318   -2.1359 O.3       1 ATP        -0.8003
      9 PA         -2.9690    4.0281    1.6835 P.3       1 ATP         1.7415
     10 O1A        -4.1648    4.3954    2.5134 O.2       1 ATP        -0.8661
     11 O2A        -1.9470    5.2523    1.4099 O.3       1 ATP        -0.8077
     12 O3A        -3.3299    3.5086    0.1947 O.3       1 ATP        -0.7685
     13 O5'        -2.0397    2.8622    2.3122 O.3       1 ATP        -0.5590
     14 C5'        -0.8811    2.4285    1.6206 C.3       1 ATP         0.1960
     15 C4'        -0.1994    1.3333    2.4288 C.3       1 ATP         0.0976
     16 O4'        -1.1285    0.2356    2.5840 O.3       1 ATP        -0.3865
     17 C3'         1.0324    0.7610    1.7344 C.3       1 ATP         0.0901
     18 O3'         1.9175    0.2377    2.7247 O.3       1 ATP        -0.5889
     19 C2'         0.4468   -0.3802    0.9263 C.3       1 ATP         0.0574
     20 O2'         1.3993   -1.3703    0.5961 O.3       1 ATP        -0.5923
     21 C1'        -0.6159   -0.9100    1.8769 C.3       1 ATP         0.2452
     22 N9         -1.7127   -1.6108    1.2130 N.pl3     1 ATP        -0.1834
     23 C8         -1.7690   -2.9583    0.9549 C.ar      1 ATP         0.4338
     24 N7         -2.8827   -3.3076    0.3418 N.2       1 ATP        -0.6101
     25 C5         -3.5683   -2.1351    0.2017 C.ar      1 ATP         0.2154
     26 C6         -4.8617   -1.9185   -0.4044 C.ar      1 ATP         0.6130
     27 N6         -5.5166   -2.9094   -0.8993 N.2       1 ATP        -0.8165
     28 N1         -5.1837   -0.5701   -0.3344 N.pl3     1 ATP        -0.8617
     29 C2         -4.3821    0.4180    0.2330 C.ar      1 ATP         0.6151
     30 N3         -3.2117    0.2488    0.7860 N.2       1 ATP        -0.5797
     31 C4         -2.8672   -1.0657    0.7327 C.ar      1 ATP         0.0328
     32 HOG3       -4.5239    0.6931   -3.5591 H         1 ATP         0.4197
     33 HOA2       -2.2754    6.0480    0.9395 H         1 ATP         0.4550
     34 H5'1       -1.1761    2.0499    0.6365 H         1 ATP         0.0431
     35 H5'2       -0.2073    3.2811    1.4874 H         1 ATP         0.0431
     36 H4'         0.0402    1.7079    3.4342 H         1 ATP         0.1325
     37 H3'         1.5907    1.4859    1.1353 H         1 ATP         0.0782
     38 HO3'        2.1521    0.9800    3.3017 H         1 ATP         0.4062
     39 H2'        -0.0017    0.0018    0.0005 H         1 ATP         0.0689
     40 HO2'        0.9369   -2.0558    0.0825 H         1 ATP         0.4089
     41 H1'        -0.1998   -1.6319    2.6178 H         1 ATP         0.1098
     42 H8         -0.9697   -3.6300    1.2371 H         1 ATP         0.0929
     43 HN62       -6.4060   -2.5723   -1.2840 H         1 ATP         0.3678
     44 H2         -4.8409    1.4176    0.1757 H         1 ATP         0.0383
     45 H45        -6.0768   -0.2826   -0.7263 H         1 ATP         0.4286
@<TRIPOS>BOND
     1    1    2 2
     2    1    3 1
     3    1    4 1
     4    1    8 1
     5    4   32 1
     6    5    6 2
     7    5    7 1
     8    5    8 1
     9    5   12 1
    10    9   10 2
    11    9   11 1
    12    9   12 1
    13    9   13 1
    14   11   33 1
    15   13   14 1
    16   14   15 1
    17   14   34 1
    18   14   35 1
    19   15   16 1
    20   15   17 1
    21   15   36 1
    22   16   21 1
    23   17   18 1
    24   17   19 1
    25   17   37 1
    26   18   38 1
    27   19   20 1
    28   19   21 1
    29   19   39 1
    30   20   40 1
    31   21   22 1
    32   21   41 1
    33   22   23 ar
    34   22   31 ar
    35   23   24 ar
    36   23   42 1
    37   24   25 ar
    38   25   26 ar
    39   25   31 ar
    40   26   27 2
    41   26   28 ar
    42   27   43 1
    43   28   29 ar
    44   28   45 1
    45   29   30 ar
    46   29   44 1
    47   30   31 ar
@<TRIPOS>SUBSTRUCTURE
     1 ATP         1 GROUP 0 A     ****
@<TRIPOS>MOLECULE
[[[3,4-dihydroxy-5-(6-imino-1~{H}-purin-9-yl)tetrahydrofuran-2-yl]methoxy-hydroxy-phosphoryl]oxy-oxido-phosphoryl] hydrogen phosphate
   45    47     1     0     0
SMALL
USER_CHARGES

@<TRIPOS>ATOM
      1 PG         -4.2964   -0.3673    3.8842 P.3       1 ATP         1.5414
      2 O1G        -4.5150   -1.6380    3.0935 O.co2     1 ATP        -0.8562
      3 O2G        -5.3149    0.1019    4.8991 O.co2     1 ATP        -0.8562
      4 O3G        -2.8386   -0.4555    4.6144 O.3       1 ATP        -0.7907
      5 PB         -4.9323    1.5676    1.7362 P.3       1 ATP         1.6574
      6 O1B        -5.2364    0.5660    0.6444 O.co2     1 ATP        -0.8530
      7 O2B        -6.0436    2.3041    2.4506 O.co2     1 ATP        -0.8530
      8 O3B        -3.9781    0.8516    2.8491 O.3       1 ATP        -0.8003
      9 PA         -3.0705    3.8640    1.8808 P.3       1 ATP         1.7415
     10 O1A        -3.8861    4.6226    2.8874 O.2       1 ATP        -0.8661
     11 O2A        -2.5428    4.7593    0.6407 O.3       1 ATP        -0.8077
     12 O3A        -3.8686    2.6596    1.1535 O.3       1 ATP        -0.7685
     13 O5'        -1.7334    3.1724    2.4743 O.3       1 ATP        -0.5590
     14 C5'        -0.8811    2.4285    1.6206 C.3       1 ATP         0.1960
     15 C4'        -0.1994    1.3333    2.4288 C.3       1 ATP         0.0976
     16 O4'        -1.1285    0.2356    2.5840 O.3       1 ATP        -0.3865
     17 C3'         1.0324    0.7610    1.7344 C.3       1 ATP         0.0901
     18 O3'         1.9175    0.2377    2.7247 O.3       1 ATP        -0.5889
     19 C2'         0.4468   -0.3802    0.9263 C.3       1 ATP         0.0574
     20 O2'         1.3993   -1.3703    0.5961 O.3       1 ATP        -0.5923
     21 C1'        -0.6159   -0.9100    1.8769 C.3       1 ATP         0.2452
     22 N9         -1.7127   -1.6108    1.2130 N.pl3     1 ATP        -0.1834
     23 C8         -2.5485   -1.0808    0.2609 C.ar      1 ATP         0.4338
     24 N7         -3.4476   -1.9486   -0.1593 N.2       1 ATP        -0.6101
     25 C5         -3.1762   -3.0816    0.5530 C.ar      1 ATP         0.2154
     26 C6         -3.8510   -4.3579    0.5006 C.ar      1 ATP         0.6130
     27 N6         -4.8468   -4.5293   -0.2961 N.2       1 ATP        -0.8165
     28 N1         -3.2499   -5.2342    1.3937 N.pl3     1 ATP        -0.8617
     29 C2         -2.1646   -4.9275    2.2116 C.ar      1 ATP         0.6151
     30 N3         -1.5382   -3.7840    2.2778 N.2       1 ATP        -0.5797
     31 C4         -2.1054   -2.9018    1.4120 C.ar      1 ATP         0.0328
     32 HOG3       -2.5483    0.2993    5.1696 H         1 ATP         0.4197
     33 HOA2       -3.1996    5.2056    0.0648 H         1 ATP         0.4550
     34 H5'1       -1.4795    1.9922    0.8142 H         1 ATP         0.0431
     35 H5'2       -0.1362    3.1035    1.1868 H         1 ATP         0.0431
     36 H4'         0.0402    1.7079    3.4342 H         1 ATP         0.1325
     37 H3'         1.5907    1.4859    1.1353 H         1 ATP         0.0782
     38 HO3'        2.1521    0.9800    3.3017 H         1 ATP         0.4062
     39 H2'        -0.0017    0.0018    0.0005 H         1 ATP         0.0689
     40 HO2'        0.9369   -2.0558    0.0825 H         1 ATP         0.4089
     41 H1'        -0.1998   -1.6319    2.6178 H         1 ATP         0.1098
     42 H8         -2.4515   -0.0599   -0.0829 H         1 ATP         0.0929
     43 HN62       -5.1990   -5.4882   -0.2005 H         1 ATP         0.3678
     44 H2         -1.8555   -5.7783    2.8388 H         1 ATP         0.0383
     45 H45        -3.6312   -6.1750    1.4526 H         1 ATP         0.4286
@<TRIPOS>BOND
     1    1    2 2
     2    1    3 1
     3    1    4 1
     4    1    8 1
     5    4   32 1
     6    5    6 2
     7    5    7 1
     8    5    8 1
     9    5   12 1
    10    9   10 2
    11    9   11 1
    12    9   12 1
    13    9   13 1
    14   11   33 1
    15   13   14 1
    16   14   15 1
    17   14   34 1
    18   14   35 1
    19   15   16 1
    20   15   17 1
    21   15   36 1
    22   16   21 1
    23   17   18 1
    24   17   19 1
    25   17   37 1
    26   18   38 1
    27   19   20 1
    28   19   21 1
    29   19   39 1
    30   20   40 1
    31   21   22 1
    32   21   41 1
    33   22   23 ar
    34   22   31 ar
    35   23   24 ar
    36   23   42 1
    37   24   25 ar
    38   25   26 ar
    39   25   31 ar
    40   26   27 2
    41   26   28 ar
    42   27   43 1
    43   28   29 ar
    44   28   45 1
    45   29   30 ar
    46   29   44 1
    47   30   31 ar
@<TRIPOS>SUBSTRUCTURE
     1 ATP         1 GROUP 0 A     ****
@<TRIPOS>MOLECULE
[[[3,4-dihydroxy-5-(6-imino-1~{H}-purin-9-yl)tetrahydrofuran-2-yl]methoxy-hydroxy-phosphoryl]oxy-oxido-phosphoryl] hydrogen phosphate
   45    47     1     0     0
SMALL
USER_CHARGES

@<TRIPOS>ATOM
      1 PG         -6.9035    5.2074   -0.8758 P.3       1 ATP         1.5414
      2 O1G        -7.4935    4.3318   -1.9587 O.co2     1 ATP        -0.8562
      3 O2G        -6.6317    6.6743   -1.1241 O.co2     1 ATP        -0.8562
      4 O3G        -7.8280    5.0701    0.4630 O.3       1 ATP        -0.7907
      5 PB         -4.1117    4.2370   -1.0390 P.3       1 ATP         1.6574
      6 O1B        -4.3135    3.2230   -2.1429 O.co2     1 ATP        -0.8530
      7 O2B        -3.4508    5.5693   -1.3149 O.co2     1 ATP        -0.8530
      8 O3B        -5.5458    4.5047   -0.3087 O.3       1 ATP        -0.8003
      9 PA         -2.9690    4.0281    1.6835 P.3       1 ATP         1.7415
     10 O1A        -4.1648    4.3954    2.5134 O.2       1 ATP        -0.8661
     11 O2A        -1.9470    5.2523    1.4099 O.3       1 ATP        -0.8077
     12 O3A        -3.3299    3.5086    0.1947 O.3       1 ATP        -0.7685
     13 O5'        -2.0397    2.8622    2.3122 O.3       1 ATP        -0.5590
     14 C5'        -0.8811    2.4285    1.6206 C.3       1 ATP         0.1960
     15 C4'        -0.1994    1.3333    2.4288 C.3       1 ATP         0.0976
     16 O4'        -1.1285    0.2356    2.5840 O.3       1 ATP        -0.3865
     17 C3'         1.0324    0.7610    1.7344 C.3       1 ATP         0.0901
     18 O3'         1.9175    0.2377    2.7247 O.3       1 ATP        -0.5889
     19 C2'         0.4468   -0.3802    0.9263 C.3       1 ATP         0.0574
     20 O2'         1.3993   -1.3703    0.5961 O.3       1 ATP        -0.5923
     21 C1'        -0.6159   -0.9100    1.8769 C.3       1 ATP         0.2452
     22 N9         -1.7127   -1.6108    1.2130 N.pl3     1 ATP        -0.1834
     23 C8         -1.7690   -2.9583    0.9549 C.ar      1 ATP         0.4338
     24 N7         -2.8827   -3.3076    0.3418 N.2       1 ATP        -0.6101
     25 C5         -3.5683   -2.1351    0.2017 C.ar      1 ATP         0.2154
     26 C6         -4.8617   -1.9185   -0.4044 C.ar      1 ATP         0.6130
     27 N6         -5.5166   -2.9094   -0.8993 N.2       1 ATP        -0.8165
     28 N1         -5.1837   -0.5701   -0.3344 N.pl3     1 ATP        -0.8617
     29 C2         -4.3821    0.4180    0.2330 C.ar      1 ATP         0.6151
     30 N3         -3.2117    0.2488    0.7860 N.2       1 ATP        -0.5797
     31 C4         -2.8672   -1.0657    0.7327 C.ar      1 ATP         0.0328
     32 HOG3       -7.5736    5.5819    1.2603 H         1 ATP         0.4197
     33 HOA2       -1.5253    5.6979    2.1752 H         1 ATP         0.4550
     34 H5'1       -1.1761    2.0499    0.6365 H         1 ATP         0.0431
     35 H5'2       -0.2073    3.2811    1.4874 H         1 ATP         0.0431
     36 H4'         0.0402    1.7079    3.4342 H         1 ATP         0.1325
     37 H3'         1.5907    1.4859    1.1353 H         1 ATP         0.0782
     38 HO3'        2.6839   -0.1150    2.2479 H         1 ATP         0.4062
     39 H2'        -0.0017    0.0018    0.0005 H         1 ATP         0.0689
     40 HO2'        2.0953   -0.9375    0.0709 H         1 ATP         0.4089
     41 H1'        -0.1998   -1.6319    2.6178 H         1 ATP         0.1098
     42 H8         -0.9697   -3.6300    1.2371 H         1 ATP         0.0929
     43 HN62       -6.4060   -2.5723   -1.2840 H         1 ATP         0.3678
     44 H2         -4.8409    1.4176    0.1757 H         1 ATP         0.0383
     45 H45        -6.0768   -0.2826   -0.7263 H         1 ATP         0.4286
@<TRIPOS>BOND
     1    1    2 2
     2    1    3 1
     3    1    4 1
     4    1    8 1
     5    4   32 1
     6    5    6 2
     7    5    7 1
     8    5    8 1
     9    5   12 1
    10    9   10 2
    11    9   11 1
    12    9   12 1
    13    9   13 1
    14   11   33 1
    15   13   14 1
    16   14   15 1
    17   14   34 1
    18   14   35 1
    19   15   16 1
    20   15   17 1
    21   15   36 1
    22   16   21 1
    23   17   18 1
    24   17   19 1
    25   17   37 1
    26   18   38 1
    27   19   20 1
    28   19   21 1
    29   19   39 1
    30   20   40 1
    31   21   22 1
    32   21   41 1
    33   22   23 ar
    34   22   31 ar
    35   23   24 ar
    36   23   42 1
    37   24   25 ar
    38   25   26 ar
    39   25   31 ar
    40   26   27 2
    41   26   28 ar
    42   27   43 1
    43   28   29 ar
    44   28   45 1
    45   29   30 ar
    46   29   44 1
    47   30   31 ar
@<TRIPOS>SUBSTRUCTURE
     1 ATP         1 GROUP 0 A     ****
@<TRIPOS>MOLECULE
[[[3,4-dihydroxy-5-(6-imino-1~{H}-purin-9-yl)tetrahydrofuran-2-yl]methoxy-hydroxy-phosphoryl]oxy-oxido-phosphoryl] hydrogen phosphate
   45    47     1     0     0
SMALL
USER_CHARGES

@<TRIPOS>ATOM
      1 PG         -7.5070    2.2909    3.0050 P.3       1 ATP         1.5414
      2 O1G        -7.2411    1.6993    4.3714 O.co2     1 ATP        -0.8562
      3 O2G        -8.4272    1.5994    2.0240 O.co2     1 ATP        -0.8562
      4 O3G        -8.0154    3.8307    3.1968 O.3       1 ATP        -0.7907
      5 PB         -4.9323    1.5676    1.7362 P.3       1 ATP         1.6574
      6 O1B        -4.3057    0.8777    2.9276 O.co2     1 ATP        -0.8530
      7 O2B        -5.4941    0.7706    0.5799 O.co2     1 ATP        -0.8530
      8 O3B        -6.0817    2.5934    2.2731 O.3       1 ATP        -0.8003
      9 PA         -3.0705    3.8640    1.8808 P.3       1 ATP         1.7415
     10 O1A        -3.8861    4.6226    2.8874 O.2       1 ATP        -0.8661
     11 O2A        -2.5428    4.7593    0.6407 O.3       1 ATP        -0.8077
     12 O3A        -3.8686    2.6596    1.1535 O.3       1 ATP        -0.7685
     13 O5'        -1.7334    3.1724    2.4743 O.3       1 ATP        -0.5590
     14 C5'        -0.8811    2.4285    1.6206 C.3       1 ATP         0.1960
     15 C4'        -0.1994    1.3333    2.4288 C.3       1 ATP         0.0976
     16 O4'        -1.1285    0.2356    2.5840 O.3       1 ATP        -0.3865
     17 C3'         1.0324    0.7610    1.7344 C.3       1 ATP         0.0901
     18 O3'         1.9175    0.2377    2.7247 O.3       1 ATP        -0.5889
     19 C2'         0.4468   -0.3802    0.9263 C.3       1 ATP         0.0574
     20 O2'         1.3993   -1.3703    0.5961 O.3       1 ATP        -0.5923
     21 C1'        -0.6159   -0.9100    1.8769 C.3       1 ATP         0.2452
     22 N9         -1.7127   -1.6108    1.2130 N.pl3     1 ATP        -0.1834
     23 C8         -2.5485   -1.0808    0.2609 C.ar      1 ATP         0.4338
     24 N7         -3.4476   -1.9486   -0.1593 N.2       1 ATP        -0.6101
     25 C5         -3.1762   -3.0816    0.5530 C.ar      1 ATP         0.2154
     26 C6         -3.8510   -4.3579    0.5006 C.ar      1 ATP         0.6130
     27 N6         -4.8468   -4.5293   -0.2961 N.2       1 ATP        -0.8165
     28 N1         -3.2499   -5.2342    1.3937 N.pl3     1 ATP        -0.8617
     29 C2         -2.1646   -4.9275    2.2116 C.ar      1 ATP         0.6151
     30 N3         -1.5382   -3.7840    2.2778 N.2       1 ATP        -0.5797
     31 C4         -2.1054   -2.9018    1.4120 C.ar      1 ATP         0.0328
     32 HOG3       -8.2307    4.3543    2.3957 H         1 ATP         0.4197
     33 HOA2       -1.9622    5.5283    0.8243 H         1 ATP         0.4550
     34 H5'1       -1.4795    1.9922    0.8142 H         1 ATP         0.0431
     35 H5'2       -0.1362    3.1035    1.1868 H         1 ATP         0.0431
     36 H4'         0.0402    1.7079    3.4342 H         1 ATP         0.1325
     37 H3'         1.5907    1.4859    1.1353 H         1 ATP         0.0782
     38 HO3'        2.6839   -0.1150    2.2479 H         1 ATP         0.4062
     39 H2'        -0.0017    0.0018    0.0005 H         1 ATP         0.0689
     40 HO2'        2.0953   -0.9375    0.0709 H         1 ATP         0.4089
     41 H1'        -0.1998   -1.6319    2.6178 H         1 ATP         0.1098
     42 H8         -2.4515   -0.0599   -0.0829 H         1 ATP         0.0929
     43 HN62       -5.1990   -5.4882   -0.2005 H         1 ATP         0.3678
     44 H2         -1.8555   -5.7783    2.8388 H         1 ATP         0.0383
     45 H45        -3.6312   -6.1750    1.4526 H         1 ATP         0.4286
@<TRIPOS>BOND
     1    1    2 2
     2    1    3 1
     3    1    4 1
     4    1    8 1
     5    4   32 1
     6    5    6 2
     7    5    7 1
     8    5    8 1
     9    5   12 1
    10    9   10 2
    11    9   11 1
    12    9   12 1
    13    9   13 1
    14   11   33 1
    15   13   14 1
    16   14   15 1
    17   14   34 1
    18   14   35 1
    19   15   16 1
    20   15   17 1
    21   15   36 1
    22   16   21 1
    23   17   18 1
    24   17   19 1
    25   17   37 1
    26   18   38 1
    27   19   20 1
    28   19   21 1
    29   19   39 1
    30   20   40 1
    31   21   22 1
    32   21   41 1
    33   22   23 ar
    34   22   31 ar
    35   23   24 ar
    36   23   42 1
    37   24   25 ar
    38   25   26 ar
    39   25   31 ar
    40   26   27 2
    41   26   28 ar
    42   27   43 1
    43   28   29 ar
    44   28   45 1
    45   29   30 ar
    46   29   44 1
    47   30   31 ar
@<TRIPOS>SUBSTRUCTURE
     1 ATP         1 GROUP 0 A     ****
@<TRIPOS>MOLECULE
[[[3,4-dihydroxy-5-(6-imino-1~{H}-purin-9-yl)tetrahydrofuran-2-yl]methoxy-hydroxy-phosphoryl]oxy-oxido-phosphoryl] hydrogen phosphate
   45    47     1     0     0
SMALL
USER_CHARGES

@<TRIPOS>ATOM
      1 PG         -6.9035    5.2074   -0.8758 P.3       1 ATP         1.5414
      2 O1G        -7.4935    4.3318   -1.9587 O.co2     1 ATP        -0.8562
      3 O2G        -6.6317    6.6743   -1.1241 O.co2     1 ATP        -0.8562
      4 O3G        -7.8280    5.0701    0.4630 O.3       1 ATP        -0.7907
      5 PB         -4.1117    4.2370   -1.0390 P.3       1 ATP         1.6574
      6 O1B        -4.3135    3.2230   -2.1429 O.co2     1 ATP        -0.8530
      7 O2B        -3.4508    5.5693   -1.3149 O.co2     1 ATP        -0.8530
      8 O3B        -5.5458    4.5047   -0.3087 O.3       1 ATP        -0.8003
      9 PA         -2.9690    4.0281    1.6835 P.3       1 ATP         1.7415
     10 O1A        -4.1648    4.3954    2.5134 O.2       1 ATP        -0.8661
     11 O2A        -1.9470    5.2523    1.4099 O.3       1 ATP        -0.8077
     12 O3A        -3.3299    3.5086    0.1947 O.3       1 ATP        -0.7685
     13 O5'        -2.0397    2.8622    2.3122 O.3       1 ATP        -0.5590
     14 C5'        -0.8811    2.4285    1.6206 C.3       1 ATP         0.1960
     15 C4'        -0.1994    1.3333    2.4288 C.3       1 ATP         0.0976
     16 O4'        -1.1285    0.2356    2.5840 O.3       1 ATP        -0.3865
     17 C3'         1.0324    0.7610    1.7344 C.3       1 ATP         0.0901
     18 O3'         1.9175    0.2377    2.7247 O.3       1 ATP        -0.5889
     19 C2'         0.4468   -0.3802    0.9263 C.3       1 ATP         0.0574
     20 O2'         1.3993   -1.3703    0.5961 O.3       1 ATP        -0.5923
     21 C1'        -0.6159   -0.9100    1.8769 C.3       1 ATP         0.2452
     22 N9         -1.7127   -1.6108    1.2130 N.pl3     1 ATP        -0.1834
     23 C8         -2.8662   -1.0361    0.7388 C.ar      1 ATP         0.4338
     24 N7         -3.6774   -1.9166    0.1867 N.2       1 ATP        -0.6101
     25 C5         -3.0159   -3.1045    0.3122 C.ar      1 ATP         0.2154
     26 C6         -3.4377   -4.4169   -0.1199 C.ar      1 ATP         0.6130
     27 N6         -4.5720   -4.5691   -0.7080 N.2       1 ATP        -0.8165
     28 N1         -2.4600   -5.3463    0.2071 N.pl3     1 ATP        -0.8617
     29 C2         -1.2595   -5.0554    0.8515 C.ar      1 ATP         0.6151
     30 N3         -0.8555   -3.8803    1.2516 N.2       1 ATP        -0.5797
     31 C4         -1.7946   -2.9457    0.9448 C.ar      1 ATP         0.0328
     32 HOG3       -7.5736    5.5819    1.2603 H         1 ATP         0.4197
     33 HOA2       -1.5253    5.6979    2.1752 H         1 ATP         0.4550
     34 H5'1       -1.1761    2.0499    0.6365 H         1 ATP         0.0431
     35 H5'2       -0.2073    3.2811    1.4874 H         1 ATP         0.0431
     36 H4'         0.0402    1.7079    3.4342 H         1 ATP         0.1325
     37 H3'         1.5907    1.4859    1.1353 H         1 ATP         0.0782
     38 HO3'        2.6839   -0.1150    2.2479 H         1 ATP         0.4062
     39 H2'        -0.0017    0.0018    0.0005 H         1 ATP         0.0689
     40 HO2'        2.0953   -0.9375    0.0709 H         1 ATP         0.4089
     41 H1'        -0.1998   -1.6319    2.6178 H         1 ATP         0.1098
     42 H8         -3.0558    0.0252    0.8256 H         1 ATP         0.0929
     43 HN62       -4.7047   -5.5592   -0.9421 H         1 ATP         0.3678
     44 H2         -0.6372   -5.9505    1.0077 H         1 ATP         0.0383
     45 H45        -2.6338   -6.3155   -0.0469 H         1 ATP         0.4286
@<TRIPOS>BOND
     1    1    2 2
     2    1    3 1
     3    1    4 1
     4    1    8 1
     5    4   32 1
     6    5    6 2
     7    5    7 1
     8    5    8 1
     9    5   12 1
    10    9   10 2
    11    9   11 1
    12    9   12 1
    13    9   13 1
    14   11   33 1
    15   13   14 1
    16   14   15 1
    17   14   34 1
    18   14   35 1
    19   15   16 1
    20   15   17 1
    21   15   36 1
    22   16   21 1
    23   17   18 1
    24   17   19 1
    25   17   37 1
    26   18   38 1
    27   19   20 1
    28   19   21 1
    29   19   39 1
    30   20   40 1
    31   21   22 1
    32   21   41 1
    33   22   23 ar
    34   22   31 ar
    35   23   24 ar
    36   23   42 1
    37   24   25 ar
    38   25   26 ar
    39   25   31 ar
    40   26   27 2
    41   26   28 ar
    42   27   43 1
    43   28   29 ar
    44   28   45 1
    45   29   30 ar
    46   29   44 1
    47   30   31 ar
@<TRIPOS>SUBSTRUCTURE
     1 ATP         1 GROUP 0 A     ****
@<TRIPOS>MOLECULE
[[[3,4-dihydroxy-5-(6-imino-1~{H}-purin-9-yl)tetrahydrofuran-2-yl]methoxy-hydroxy-phosphoryl]oxy-oxido-phosphoryl] hydrogen phosphate
   45    47     1     0     0
SMALL
USER_CHARGES

@<TRIPOS>ATOM
      1 PG         -4.5976    2.9594   -3.6645 P.3       1 ATP         1.5414
      2 O1G        -3.8212    3.9358   -4.5198 O.co2     1 ATP        -0.8562
      3 O2G        -6.1095    2.9836   -3.6343 O.co2     1 ATP        -0.8562
      4 O3G        -4.1099    1.4454   -4.0335 O.3       1 ATP        -0.7907
      5 PB         -4.1117    4.2370   -1.0390 P.3       1 ATP         1.6574
      6 O1B        -3.2641    5.3903   -1.5282 O.co2     1 ATP        -0.8530
      7 O2B        -5.5572    4.4437   -0.6446 O.co2     1 ATP        -0.8530
      8 O3B        -4.0350    3.0318   -2.1359 O.3       1 ATP        -0.8003
      9 PA         -2.9690    4.0281    1.6835 P.3       1 ATP         1.7415
     10 O1A        -4.1648    4.3954    2.5134 O.2       1 ATP        -0.8661
     11 O2A        -1.9470    5.2523    1.4099 O.3       1 ATP        -0.8077
     12 O3A        -3.3299    3.5086    0.1947 O.3       1 ATP        -0.7685
     13 O5'        -2.0397    2.8622    2.3122 O.3       1 ATP        -0.5590
     14 C5'        -0.8811    2.4285    1.6206 C.3       1 ATP         0.1960
     15 C4'        -0.1994    1.3333    2.4288 C.3       1 ATP         0.0976
     16 O4'        -1.1285    0.2356    2.5840 O.3       1 ATP        -0.3865
     17 C3'         1.0324    0.7610    1.7344 C.3       1 ATP         0.0901
     18 O3'         1.9175    0.2377    2.7247 O.3       1 ATP        -0.5889
     19 C2'         0.4468   -0.3802    0.9263 C.3       1 ATP         0.0574
     20 O2'         1.3993   -1.3703    0.5961 O.3       1 ATP        -0.5923
     21 C1'        -0.6159   -0.9100    1.8769 C.3       1 ATP         0.2452
     22 N9         -1.7127   -1.6108    1.2130 N.pl3     1 ATP        -0.1834
     23 C8         -2.8662   -1.0361    0.7388 C.ar      1 ATP         0.4338
     24 N7         -3.6774   -1.9166    0.1867 N.2       1 ATP        -0.6101
     25 C5         -3.0159   -3.1045    0.3122 C.ar      1 ATP         0.2154
     26 C6         -3.4377   -4.4169   -0.1199 C.ar      1 ATP         0.6130
     27 N6         -4.5720   -4.5691   -0.7080 N.2       1 ATP        -0.8165
     28 N1         -2.4600   -5.3463    0.2071 N.pl3     1 ATP        -0.8617
     29 C2         -1.2595   -5.0554    0.8515 C.ar      1 ATP         0.6151
     30 N3         -0.8555   -3.8803    1.2516 N.2       1 ATP        -0.5797
     31 C4         -1.7946   -2.9457    0.9448 C.ar      1 ATP         0.0328
     32 HOG3       -4.5239    0.6931   -3.5591 H         1 ATP         0.4197
     33 HOA2       -2.2754    6.0480    0.9395 H         1 ATP         0.4550
     34 H5'1       -1.1761    2.0499    0.6365 H         1 ATP         0.0431
     35 H5'2       -0.2073    3.2811    1.4874 H         1 ATP         0.0431
     36 H4'         0.0402    1.7079    3.4342 H         1 ATP         0.1325
     37 H3'         1.5907    1.4859    1.1353 H         1 ATP         0.0782
     38 HO3'        2.1521    0.9800    3.3017 H         1 ATP         0.4062
     39 H2'        -0.0017    0.0018    0.0005 H         1 ATP         0.0689
     40 HO2'        0.9369   -2.0558    0.0825 H         1 ATP         0.4089
     41 H1'        -0.1998   -1.6319    2.6178 H         1 ATP         0.1098
     42 H8         -3.0558    0.0252    0.8256 H         1 ATP         0.0929
     43 HN62       -4.7047   -5.5592   -0.9421 H         1 ATP         0.3678
     44 H2         -0.6372   -5.9505    1.0077 H         1 ATP         0.0383
     45 H45        -2.6338   -6.3155   -0.0469 H         1 ATP         0.4286
@<TRIPOS>BOND
     1    1    2 2
     2    1    3 1
     3    1    4 1
     4    1    8 1
     5    4   32 1
     6    5    6 2
     7    5    7 1
     8    5    8 1
     9    5   12 1
    10    9   10 2
    11    9   11 1
    12    9   12 1
    13    9   13 1
    14   11   33 1
    15   13   14 1
    16   14   15 1
    17   14   34 1
    18   14   35 1
    19   15   16 1
    20   15   17 1
    21   15   36 1
    22   16   21 1
    23   17   18 1
    24   17   19 1
    25   17   37 1
    26   18   38 1
    27   19   20 1
    28   19   21 1
    29   19   39 1
    30   20   40 1
    31   21   22 1
    32   21   41 1
    33   22   23 ar
    34   22   31 ar
    35   23   24 ar
    36   23   42 1
    37   24   25 ar
    38   25   26 ar
    39   25   31 ar
    40   26   27 2
    41   26   28 ar
    42   27   43 1
    43   28   29 ar
    44   28   45 1
    45   29   30 ar
    46   29   44 1
    47   30   31 ar
@<TRIPOS>SUBSTRUCTURE
     1 ATP         1 GROUP 0 A     ****
@<TRIPOS>MOLECULE
[[[3,4-dihydroxy-5-(6-imino-1~{H}-purin-9-yl)tetrahydrofuran-2-yl]methoxy-hydroxy-phosphoryl]oxy-oxido-phosphoryl] hydrogen phosphate
   45    47     1     0     0
SMALL
USER_CHARGES

@<TRIPOS>ATOM
      1 PG         -3.2011    6.7497   -2.3115 P.3       1 ATP         1.5414
      2 O1G        -4.4082    7.6001   -1.9842 O.co2     1 ATP        -0.8562
      3 O2G        -2.9844    6.2121   -3.7085 O.co2     1 ATP        -0.8562
      4 O3G        -1.8582    7.5569   -1.8518 O.3       1 ATP        -0.7907
      5 PB         -4.1117    4.2370   -1.0390 P.3       1 ATP         1.6574
      6 O1B        -5.4451    4.7385   -0.5309 O.co2     1 ATP        -0.8530
      7 O2B        -4.0263    3.3496   -2.2608 O.co2     1 ATP        -0.8530
      8 O3B        -3.1200    5.5153   -1.2493 O.3       1 ATP        -0.8003
      9 PA         -2.9690    4.0281    1.6835 P.3       1 ATP         1.7415
     10 O1A        -4.1648    4.3954    2.5134 O.2       1 ATP        -0.8661
     11 O2A        -1.9470    5.2523    1.4099 O.3       1 ATP        -0.8077
     12 O3A        -3.3299    3.5086    0.1947 O.3       1 ATP        -0.7685
     13 O5'        -2.0397    2.8622    2.3122 O.3       1 ATP        -0.5590
     14 C5'        -0.8811    2.4285    1.6206 C.3       1 ATP         0.1960
     15 C4'        -0.1994    1.3333    2.4288 C.3       1 ATP         0.0976
     16 O4'        -1.1285    0.2356    2.5840 O.3       1 ATP        -0.3865
     17 C3'         1.0324    0.7610    1.7344 C.3       1 ATP         0.0901
     18 O3'         1.9175    0.2377    2.7247 O.3       1 ATP        -0.5889
     19 C2'         0.4468   -0.3802    0.9263 C.3       1 ATP         0.0574
     20 O2'         1.3993   -1.3703    0.5961 O.3       1 ATP        -0.5923
     21 C1'        -0.6159   -0.9100    1.8769 C.3       1 ATP         0.2452
     22 N9         -1.7127   -1.6108    1.2130 N.pl3     1 ATP        -0.1834
     23 C8         -2.8662   -1.0361    0.7388 C.ar      1 ATP         0.4338
     24 N7         -3.6774   -1.9166    0.1867 N.2       1 ATP        -0.6101
     25 C5         -3.0159   -3.1045    0.3122 C.ar      1 ATP         0.2154
     26 C6         -3.4377   -4.4169   -0.1199 C.ar      1 ATP         0.6130
     27 N6         -4.5720   -4.5691   -0.7080 N.2       1 ATP        -0.8165
     28 N1         -2.4600   -5.3463    0.2071 N.pl3     1 ATP        -0.8617
     29 C2         -1.2595   -5.0554    0.8515 C.ar      1 ATP         0.6151
     30 N3         -0.8555   -3.8803    1.2516 N.2       1 ATP        -0.5797
     31 C4         -1.7946   -2.9457    0.9448 C.ar      1 ATP         0.0328
     32 HOG3       -0.9857    7.1332   -1.9987 H         1 ATP         0.4197
     33 HOA2       -2.2754    6.0480    0.9395 H         1 ATP         0.4550
     34 H5'1       -1.1761    2.0499    0.6365 H         1 ATP         0.0431
     35 H5'2       -0.2073    3.2811    1.4874 H         1 ATP         0.0431
     36 H4'         0.0402    1.7079    3.4342 H         1 ATP         0.1325
     37 H3'         1.5907    1.4859    1.1353 H         1 ATP         0.0782
     38 HO3'        2.6839   -0.1150    2.2479 H         1 ATP         0.4062
     39 H2'        -0.0017    0.0018    0.0005 H         1 ATP         0.0689
     40 HO2'        2.0953   -0.9375    0.0709 H         1 ATP         0.4089
     41 H1'        -0.1998   -1.6319    2.6178 H         1 ATP         0.1098
     42 H8         -3.0558    0.0252    0.8256 H         1 ATP         0.0929
     43 HN62       -4.7047   -5.5592   -0.9421 H         1 ATP         0.3678
     44 H2         -0.6372   -5.9505    1.0077 H         1 ATP         0.0383
     45 H45        -2.6338   -6.3155   -0.0469 H         1 ATP         0.4286
@<TRIPOS>BOND
     1    1    2 2
     2    1    3 1
     3    1    4 1
     4    1    8 1
     5    4   32 1
     6    5    6 2
     7    5    7 1
     8    5    8 1
     9    5   12 1
    10    9   10 2
    11    9   11 1
    12    9   12 1
    13    9   13 1
    14   11   33 1
    15   13   14 1
    16   14   15 1
    17   14   34 1
    18   14   35 1
    19   15   16 1
    20   15   17 1
    21   15   36 1
    22   16   21 1
    23   17   18 1
    24   17   19 1
    25   17   37 1
    26   18   38 1
    27   19   20 1
    28   19   21 1
    29   19   39 1
    30   20   40 1
    31   21   22 1
    32   21   41 1
    33   22   23 ar
    34   22   31 ar
    35   23   24 ar
    36   23   42 1
    37   24   25 ar
    38   25   26 ar
    39   25   31 ar
    40   26   27 2
    41   26   28 ar
    42   27   43 1
    43   28   29 ar
    44   28   45 1
    45   29   30 ar
    46   29   44 1
    47   30   31 ar
@<TRIPOS>SUBSTRUCTURE
     1 ATP         1 GROUP 0 A     ****
@<TRIPOS>MOLECULE
[[[3,4-dihydroxy-5-(6-imino-1~{H}-purin-9-yl)tetrahydrofuran-2-yl]methoxy-hydroxy-phosphoryl]oxy-oxido-phosphoryl] hydrogen phosphate
   45    47     1     0     0
SMALL
USER_CHARGES

@<TRIPOS>ATOM
      1 PG         -3.2011    6.7497   -2.3115 P.3       1 ATP         1.5414
      2 O1G        -4.4082    7.6001   -1.9842 O.co2     1 ATP        -0.8562
      3 O2G        -2.9844    6.2121   -3.7085 O.co2     1 ATP        -0.8562
      4 O3G        -1.8582    7.5569   -1.8518 O.3       1 ATP        -0.7907
      5 PB         -4.1117    4.2370   -1.0390 P.3       1 ATP         1.6574
      6 O1B        -5.4451    4.7385   -0.5309 O.co2     1 ATP        -0.8530
      7 O2B        -4.0263    3.3496   -2.2608 O.co2     1 ATP        -0.8530
      8 O3B        -3.1200    5.5153   -1.2493 O.3       1 ATP        -0.8003
      9 PA         -2.9690    4.0281    1.6835 P.3       1 ATP         1.7415
     10 O1A        -4.1648    4.3954    2.5134 O.2       1 ATP        -0.8661
     11 O2A        -1.9470    5.2523    1.4099 O.3       1 ATP        -0.8077
     12 O3A        -3.3299    3.5086    0.1947 O.3       1 ATP        -0.7685
     13 O5'        -2.0397    2.8622    2.3122 O.3       1 ATP        -0.5590
     14 C5'        -0.8811    2.4285    1.6206 C.3       1 ATP         0.1960
     15 C4'        -0.1994    1.3333    2.4288 C.3       1 ATP         0.0976
     16 O4'        -1.1285    0.2356    2.5840 O.3       1 ATP        -0.3865
     17 C3'         1.0324    0.7610    1.7344 C.3       1 ATP         0.0901
     18 O3'         1.9175    0.2377    2.7247 O.3       1 ATP        -0.5889
     19 C2'         0.4468   -0.3802    0.9263 C.3       1 ATP         0.0574
     20 O2'         1.3993   -1.3703    0.5961 O.3       1 ATP        -0.5923
     21 C1'        -0.6159   -0.9100    1.8769 C.3       1 ATP         0.2452
     22 N9         -1.7127   -1.6108    1.2130 N.pl3     1 ATP        -0.1834
     23 C8         -1.7690   -2.9583    0.9549 C.ar      1 ATP         0.4338
     24 N7         -2.8827   -3.3076    0.3418 N.2       1 ATP        -0.6101
     25 C5         -3.5683   -2.1351    0.2017 C.ar      1 ATP         0.2154
     26 C6         -4.8617   -1.9185   -0.4044 C.ar      1 ATP         0.6130
     27 N6         -5.5166   -2.9094   -0.8993 N.2       1 ATP        -0.8165
     28 N1         -5.1837   -0.5701   -0.3344 N.pl3     1 ATP        -0.8617
     29 C2         -4.3821    0.4180    0.2330 C.ar      1 ATP         0.6151
     30 N3         -3.2117    0.2488    0.7860 N.2       1 ATP        -0.5797
     31 C4         -2.8672   -1.0657    0.7327 C.ar      1 ATP         0.0328
     32 HOG3       -0.9857    7.1332   -1.9987 H         1 ATP         0.4197
     33 HOA2       -2.2754    6.0480    0.9395 H         1 ATP         0.4550
     34 H5'1       -1.1761    2.0499    0.6365 H         1 ATP         0.0431
     35 H5'2       -0.2073    3.2811    1.4874 H         1 ATP         0.0431
     36 H4'         0.0402    1.7079    3.4342 H         1 ATP         0.1325
     37 H3'         1.5907    1.4859    1.1353 H         1 ATP         0.0782
     38 HO3'        2.6839   -0.1150    2.2479 H         1 ATP         0.4062
     39 H2'        -0.0017    0.0018    0.0005 H         1 ATP         0.0689
     40 HO2'        2.0953   -0.9375    0.0709 H         1 ATP         0.4089
     41 H1'        -0.1998   -1.6319    2.6178 H         1 ATP         0.1098
     42 H8         -0.9697   -3.6300    1.2371 H         1 ATP         0.0929
     43 HN62       -6.4060   -2.5723   -1.2840 H         1 ATP         0.3678
     44 H2         -4.8409    1.4176    0.1757 H         1 ATP         0.0383
     45 H45        -6.0768   -0.2826   -0.7263 H         1 ATP         0.4286
@<TRIPOS>BOND
     1    1    2 2
     2    1    3 1
     3    1    4 1
     4    1    8 1
     5    4   32 1
     6    5    6 2
     7    5    7 1
     8    5    8 1
     9    5   12 1
    10    9   10 2
    11    9   11 1
    12    9   12 1
    13    9   13 1
    14   11   33 1
    15   13   14 1
    16   14   15 1
    17   14   34 1
    18   14   35 1
    19   15   16 1
    20   15   17 1
    21   15   36 1
    22   16   21 1
    23   17   18 1
    24   17   19 1
    25   17   37 1
    26   18   38 1
    27   19   20 1
    28   19   21 1
    29   19   39 1
    30   20   40 1
    31   21   22 1
    32   21   41 1
    33   22   23 ar
    34   22   31 ar
    35   23   24 ar
    36   23   42 1
    37   24   25 ar
    38   25   26 ar
    39   25   31 ar
    40   26   27 2
    41   26   28 ar
    42   27   43 1
    43   28   29 ar
    44   28   45 1
    45   29   30 ar
    46   29   44 1
    47   30   31 ar
@<TRIPOS>SUBSTRUCTURE
     1 ATP         1 GROUP 0 A     ****
@<TRIPOS>MOLECULE
[[[3,4-dihydroxy-5-(6-imino-1~{H}-purin-9-yl)tetrahydrofuran-2-yl]methoxy-hydroxy-phosphoryl]oxy-oxido-phosphoryl] hydrogen phosphate
   45    47     1     0     0
SMALL
USER_CHARGES

@<TRIPOS>ATOM
      1 PG         -1.7167    4.7216   -2.5727 P.3       1 ATP         1.5414
      2 O1G        -1.4236    3.3408   -3.1160 O.co2     1 ATP        -0.8562
      3 O2G        -0.7381    5.4201   -1.6552 O.co2     1 ATP        -0.8562
      4 O3G        -2.0499    5.7123   -3.8272 O.3       1 ATP        -0.7907
      5 PB         -3.7139    3.9441   -0.5310 P.3       1 ATP         1.6574
      6 O1B        -5.1195    4.4118   -0.2257 O.co2     1 ATP        -0.8530
      7 O2B        -3.3921    2.4716   -0.6576 O.co2     1 ATP        -0.8530
      8 O3B        -3.1884    4.7124   -1.8708 O.3       1 ATP        -0.8003
      9 PA         -2.5525    4.3888    2.1550 P.3       1 ATP         1.7415
     10 O1A        -3.7892    4.7207    2.9387 O.2       1 ATP        -0.8661
     11 O2A        -1.2618    5.2871    2.5359 O.3       1 ATP        -0.8077
     12 O3A        -2.6994    4.6113    0.5595 O.3       1 ATP        -0.7685
     13 O5'        -2.0397    2.8622    2.3122 O.3       1 ATP        -0.5590
     14 C5'        -0.8811    2.4285    1.6206 C.3       1 ATP         0.1960
     15 C4'        -0.1994    1.3333    2.4288 C.3       1 ATP         0.0976
     16 O4'        -1.1285    0.2356    2.5840 O.3       1 ATP        -0.3865
     17 C3'         1.0324    0.7610    1.7344 C.3       1 ATP         0.0901
     18 O3'         1.9175    0.2377    2.7247 O.3       1 ATP        -0.5889
     19 C2'         0.4468   -0.3802    0.9263 C.3       1 ATP         0.0574
     20 O2'         1.3993   -1.3703    0.5961 O.3       1 ATP        -0.5923
     21 C1'        -0.6159   -0.9100    1.8769 C.3       1 ATP         0.2452
     22 N9         -1.7127   -1.6108    1.2130 N.pl3     1 ATP        -0.1834
     23 C8         -2.8662   -1.0361    0.7388 C.ar      1 ATP         0.4338
     24 N7         -3.6774   -1.9166    0.1867 N.2       1 ATP        -0.6101
     25 C5         -3.0159   -3.1045    0.3122 C.ar      1 ATP         0.2154
     26 C6         -3.4377   -4.4169   -0.1199 C.ar      1 ATP         0.6130
     27 N6         -4.5720   -4.5691   -0.7080 N.2       1 ATP        -0.8165
     28 N1         -2.4600   -5.3463    0.2071 N.pl3     1 ATP        -0.8617
     29 C2         -1.2595   -5.0554    0.8515 C.ar      1 ATP         0.6151
     30 N3         -0.8555   -3.8803    1.2516 N.2       1 ATP        -0.5797
     31 C4         -1.7946   -2.9457    0.9448 C.ar      1 ATP         0.0328
     32 HOG3       -2.2626    6.6509   -3.6369 H         1 ATP         0.4197
     33 HOA2       -0.9230    5.2641    3.4562 H         1 ATP         0.4550
     34 H5'1       -1.1761    2.0499    0.6365 H         1 ATP         0.0431
     35 H5'2       -0.2073    3.2811    1.4874 H         1 ATP         0.0431
     36 H4'         0.0402    1.7079    3.4342 H         1 ATP         0.1325
     37 H3'         1.5907    1.4859    1.1353 H         1 ATP         0.0782
     38 HO3'        2.6839   -0.1150    2.2479 H         1 ATP         0.4062
     39 H2'        -0.0017    0.0018    0.0005 H         1 ATP         0.0689
     40 HO2'        2.0953   -0.9375    0.0709 H         1 ATP         0.4089
     41 H1'        -0.1998   -1.6319    2.6178 H         1 ATP         0.1098
     42 H8         -3.0558    0.0252    0.8256 H         1 ATP         0.0929
     43 HN62       -4.7047   -5.5592   -0.9421 H         1 ATP         0.3678
     44 H2         -0.6372   -5.9505    1.0077 H         1 ATP         0.0383
     45 H45        -2.6338   -6.3155   -0.0469 H         1 ATP         0.4286
@<TRIPOS>BOND
     1    1    2 2
     2    1    3 1
     3    1    4 1
     4    1    8 1
     5    4   32 1
     6    5    6 2
     7    5    7 1
     8    5    8 1
     9    5   12 1
    10    9   10 2
    11    9   11 1
    12    9   12 1
    13    9   13 1
    14   11   33 1
    15   13   14 1
    16   14   15 1
    17   14   34 1
    18   14   35 1
    19   15   16 1
    20   15   17 1
    21   15   36 1
    22   16   21 1
    23   17   18 1
    24   17   19 1
    25   17   37 1
    26   18   38 1
    27   19   20 1
    28   19   21 1
    29   19   39 1
    30   20   40 1
    31   21   22 1
    32   21   41 1
    33   22   23 ar
    34   22   31 ar
    35   23   24 ar
    36   23   42 1
    37   24   25 ar
    38   25   26 ar
    39   25   31 ar
    40   26   27 2
    41   26   28 ar
    42   27   43 1
    43   28   29 ar
    44   28   45 1
    45   29   30 ar
    46   29   44 1
    47   30   31 ar
@<TRIPOS>SUBSTRUCTURE
     1 ATP         1 GROUP 0 A     ****
@<TRIPOS>MOLECULE
[[[3,4-dihydroxy-5-(6-imino-1~{H}-purin-9-yl)tetrahydrofuran-2-yl]methoxy-hydroxy-phosphoryl]oxy-oxido-phosphoryl] hydrogen phosphate
   45    47     1     0     0
SMALL
USER_CHARGES

@<TRIPOS>ATOM
      1 PG         -6.0453    1.9884   -1.9399 P.3       1 ATP         1.5414
      2 O1G        -7.3035    2.8278   -1.9280 O.co2     1 ATP        -0.8562
      3 O2G        -6.0851    0.5223   -1.5705 O.co2     1 ATP        -0.8562
      4 O3G        -5.3377    2.1357   -3.4041 O.3       1 ATP        -0.7907
      5 PB         -4.8447    3.0127    0.5644 P.3       1 ATP         1.6574
      6 O1B        -5.9345    3.9980    0.9237 O.co2     1 ATP        -0.8530
      7 O2B        -4.7214    1.6887    1.2853 O.co2     1 ATP        -0.8530
      8 O3B        -4.9053    2.7313   -1.0415 O.3       1 ATP        -0.8003
      9 PA         -2.5925    4.4094    1.8827 P.3       1 ATP         1.7415
     10 O1A        -3.4550    5.1144    2.8891 O.2       1 ATP        -0.8661
     11 O2A        -1.4926    5.3570    1.1685 O.3       1 ATP        -0.8077
     12 O3A        -3.4080    3.7839    0.6336 O.3       1 ATP        -0.7685
     13 O5'        -1.7334    3.1724    2.4743 O.3       1 ATP        -0.5590
     14 C5'        -0.8811    2.4285    1.6206 C.3       1 ATP         0.1960
     15 C4'        -0.1994    1.3333    2.4288 C.3       1 ATP         0.0976
     16 O4'        -1.1285    0.2356    2.5840 O.3       1 ATP        -0.3865
     17 C3'         1.0324    0.7610    1.7344 C.3       1 ATP         0.0901
     18 O3'         1.9175    0.2377    2.7247 O.3       1 ATP        -0.5889
     19 C2'         0.4468   -0.3802    0.9263 C.3       1 ATP         0.0574
     20 O2'         1.3993   -1.3703    0.5961 O.3       1 ATP        -0.5923
     21 C1'        -0.6159   -0.9100    1.8769 C.3       1 ATP         0.2452
     22 N9         -1.7127   -1.6108    1.2130 N.pl3     1 ATP        -0.1834
     23 C8         -2.5485   -1.0808    0.2609 C.ar      1 ATP         0.4338
     24 N7         -3.4476   -1.9486   -0.1593 N.2       1 ATP        -0.6101
     25 C5         -3.1762   -3.0816    0.5530 C.ar      1 ATP         0.2154
     26 C6         -3.8510   -4.3579    0.5006 C.ar      1 ATP         0.6130
     27 N6         -4.8468   -4.5293   -0.2961 N.2       1 ATP        -0.8165
     28 N1         -3.2499   -5.2342    1.3937 N.pl3     1 ATP        -0.8617
     29 C2         -2.1646   -4.9275    2.2116 C.ar      1 ATP         0.6151
     30 N3         -1.5382   -3.7840    2.2778 N.2       1 ATP        -0.5797
     31 C4         -2.1054   -2.9018    1.4120 C.ar      1 ATP         0.0328
     32 HOG3       -4.5037    1.6468   -3.5707 H         1 ATP         0.4197
     33 HOA2       -0.8196    5.8045    1.7244 H         1 ATP         0.4550
     34 H5'1       -1.4795    1.9922    0.8142 H         1 ATP         0.0431
     35 H5'2       -0.1362    3.1035    1.1868 H         1 ATP         0.0431
     36 H4'         0.0402    1.7079    3.4342 H         1 ATP         0.1325
     37 H3'         1.5907    1.4859    1.1353 H         1 ATP         0.0782
     38 HO3'        2.6839   -0.1150    2.2479 H         1 ATP         0.4062
     39 H2'        -0.0017    0.0018    0.0005 H         1 ATP         0.0689
     40 HO2'        0.9369   -2.0558    0.0825 H         1 ATP         0.4089
     41 H1'        -0.1998   -1.6319    2.6178 H         1 ATP         0.1098
     42 H8         -2.4515   -0.0599   -0.0829 H         1 ATP         0.0929
     43 HN62       -5.1990   -5.4882   -0.2005 H         1 ATP         0.3678
     44 H2         -1.8555   -5.7783    2.8388 H         1 ATP         0.0383
     45 H45        -3.6312   -6.1750    1.4526 H         1 ATP         0.4286
@<TRIPOS>BOND
     1    1    2 2
     2    1    3 1
     3    1    4 1
     4    1    8 1
     5    4   32 1
     6    5    6 2
     7    5    7 1
     8    5    8 1
     9    5   12 1
    10    9   10 2
    11    9   11 1
    12    9   12 1
    13    9   13 1
    14   11   33 1
    15   13   14 1
    16   14   15 1
    17   14   34 1
    18   14   35 1
    19   15   16 1
    20   15   17 1
    21   15   36 1
    22   16   21 1
    23   17   18 1
    24   17   19 1
    25   17   37 1
    26   18   38 1
    27   19   20 1
    28   19   21 1
    29   19   39 1
    30   20   40 1
    31   21   22 1
    32   21   41 1
    33   22   23 ar
    34   22   31 ar
    35   23   24 ar
    36   23   42 1
    37   24   25 ar
    38   25   26 ar
    39   25   31 ar
    40   26   27 2
    41   26   28 ar
    42   27   43 1
    43   28   29 ar
    44   28   45 1
    45   29   30 ar
    46   29   44 1
    47   30   31 ar
@<TRIPOS>SUBSTRUCTURE
     1 ATP         1 GROUP 0 A     ****
@<TRIPOS>MOLECULE
[[[3,4-dihydroxy-5-(6-imino-1~{H}-purin-9-yl)tetrahydrofuran-2-yl]methoxy-hydroxy-phosphoryl]oxy-oxido-phosphoryl] hydrogen phosphate
   45    47     1     0     0
SMALL
USER_CHARGES

@<TRIPOS>ATOM
      1 PG         -5.4740    4.1533   -2.3097 P.3       1 ATP         1.5414
      2 O1G        -6.6074    5.0688   -1.9035 O.co2     1 ATP        -0.8562
      3 O2G        -5.7175    2.9720   -3.2222 O.co2     1 ATP        -0.8562
      4 O3G        -4.2759    5.0623   -2.9457 O.3       1 ATP        -0.7907
      5 PB         -5.2177    2.6632    0.2351 P.3       1 ATP         1.6574
      6 O1B        -6.3138    3.3738    0.9976 O.co2     1 ATP        -0.8530
      7 O2B        -5.4304    1.2734   -0.3226 O.co2     1 ATP        -0.8530
      8 O3B        -4.7038    3.6377   -0.9682 O.3       1 ATP        -0.8003
      9 PA         -3.0705    3.8640    1.8808 P.3       1 ATP         1.7415
     10 O1A        -3.8861    4.6226    2.8874 O.2       1 ATP        -0.8661
     11 O2A        -2.5428    4.7593    0.6407 O.3       1 ATP        -0.8077
     12 O3A        -3.8686    2.6596    1.1535 O.3       1 ATP        -0.7685
     13 O5'        -1.7334    3.1724    2.4743 O.3       1 ATP        -0.5590
     14 C5'        -0.8811    2.4285    1.6206 C.3       1 ATP         0.1960
     15 C4'        -0.1994    1.3333    2.4288 C.3       1 ATP         0.0976
     16 O4'        -1.1285    0.2356    2.5840 O.3       1 ATP        -0.3865
     17 C3'         1.0324    0.7610    1.7344 C.3       1 ATP         0.0901
     18 O3'         1.9175    0.2377    2.7247 O.3       1 ATP        -0.5889
     19 C2'         0.4468   -0.3802    0.9263 C.3       1 ATP         0.0574
     20 O2'         1.3993   -1.3703    0.5961 O.3       1 ATP        -0.5923
     21 C1'        -0.6159   -0.9100    1.8769 C.3       1 ATP         0.2452
     22 N9         -1.7127   -1.6108    1.2130 N.pl3     1 ATP        -0.1834
     23 C8         -2.8662   -1.0361    0.7388 C.ar      1 ATP         0.4338
     24 N7         -3.6774   -1.9166    0.1867 N.2       1 ATP        -0.6101
     25 C5         -3.0159   -3.1045    0.3122 C.ar      1 ATP         0.2154
     26 C6         -3.4377   -4.4169   -0.1199 C.ar      1 ATP         0.6130
     27 N6         -4.5720   -4.5691   -0.7080 N.2       1 ATP        -0.8165
     28 N1         -2.4600   -5.3463    0.2071 N.pl3     1 ATP        -0.8617
     29 C2         -1.2595   -5.0554    0.8515 C.ar      1 ATP         0.6151
     30 N3         -0.8555   -3.8803    1.2516 N.2       1 ATP        -0.5797
     31 C4         -1.7946   -2.9457    0.9448 C.ar      1 ATP         0.0328
     32 HOG3       -3.4636    4.6106   -3.2593 H         1 ATP         0.4197
     33 HOA2       -3.1996    5.2056    0.0648 H         1 ATP         0.4550
     34 H5'1       -1.4795    1.9922    0.8142 H         1 ATP         0.0431
     35 H5'2       -0.1362    3.1035    1.1868 H         1 ATP         0.0431
     36 H4'         0.0402    1.7079    3.4342 H         1 ATP         0.1325
     37 H3'         1.5907    1.4859    1.1353 H         1 ATP         0.0782
     38 HO3'        2.6839   -0.1150    2.2479 H         1 ATP         0.4062
     39 H2'        -0.0017    0.0018    0.0005 H         1 ATP         0.0689
     40 HO2'        2.0953   -0.9375    0.0709 H         1 ATP         0.4089
     41 H1'        -0.1998   -1.6319    2.6178 H         1 ATP         0.1098
     42 H8         -3.0558    0.0252    0.8256 H         1 ATP         0.0929
     43 HN62       -4.7047   -5.5592   -0.9421 H         1 ATP         0.3678
     44 H2         -0.6372   -5.9505    1.0077 H         1 ATP         0.0383
     45 H45        -2.6338   -6.3155   -0.0469 H         1 ATP         0.4286
@<TRIPOS>BOND
     1    1    2 2
     2    1    3 1
     3    1    4 1
     4    1    8 1
     5    4   32 1
     6    5    6 2
     7    5    7 1
     8    5    8 1
     9    5   12 1
    10    9   10 2
    11    9   11 1
    12    9   12 1
    13    9   13 1
    14   11   33 1
    15   13   14 1
    16   14   15 1
    17   14   34 1
    18   14   35 1
    19   15   16 1
    20   15   17 1
    21   15   36 1
    22   16   21 1
    23   17   18 1
    24   17   19 1
    25   17   37 1
    26   18   38 1
    27   19   20 1
    28   19   21 1
    29   19   39 1
    30   20   40 1
    31   21   22 1
    32   21   41 1
    33   22   23 ar
    34   22   31 ar
    35   23   24 ar
    36   23   42 1
    37   24   25 ar
    38   25   26 ar
    39   25   31 ar
    40   26   27 2
    41   26   28 ar
    42   27   43 1
    43   28   29 ar
    44   28   45 1
    45   29   30 ar
    46   29   44 1
    47   30   31 ar
@<TRIPOS>SUBSTRUCTURE
     1 ATP         1 GROUP 0 A     ****
@<TRIPOS>MOLECULE
[[[3,4-dihydroxy-5-(6-imino-1~{H}-purin-9-yl)tetrahydrofuran-2-yl]methoxy-hydroxy-phosphoryl]oxy-oxido-phosphoryl] hydrogen phosphate
   45    47     1     0     0
SMALL
USER_CHARGES

@<TRIPOS>ATOM
      1 PG         -4.9061    5.0169    2.4208 P.3       1 ATP         1.5414
      2 O1G        -5.0063    4.0619    3.5894 O.co2     1 ATP        -0.8562
      3 O2G        -4.7572    4.5020    1.0065 O.co2     1 ATP        -0.8562
      4 O3G        -6.1826    6.0338    2.4714 O.3       1 ATP        -0.7907
      5 PB         -2.1079    5.8866    2.8402 P.3       1 ATP         1.6574
      6 O1B        -1.4516    7.2442    2.9586 O.co2     1 ATP        -0.8530
      7 O2B        -1.8337    4.7967    3.8525 O.co2     1 ATP        -0.8530
      8 O3B        -3.7213    6.0964    2.7201 O.3       1 ATP        -0.8003
      9 PA         -0.4410    4.8279    0.6352 P.3       1 ATP         1.7415
     10 O1A         0.6017    5.9035    0.5369 O.2       1 ATP        -0.8661
     11 O2A        -0.9414    4.2532   -0.7921 O.3       1 ATP        -0.8077
     12 O3A        -1.8155    5.3004    1.3453 O.3       1 ATP        -0.7685
     13 O5'         0.0171    3.5129    1.4593 O.3       1 ATP        -0.5590
     14 C5'        -0.8811    2.4285    1.6206 C.3       1 ATP         0.1960
     15 C4'        -0.1994    1.3333    2.4288 C.3       1 ATP         0.0976
     16 O4'        -1.1285    0.2356    2.5840 O.3       1 ATP        -0.3865
     17 C3'         1.0324    0.7610    1.7344 C.3       1 ATP         0.0901
     18 O3'         1.9175    0.2377    2.7247 O.3       1 ATP        -0.5889
     19 C2'         0.4468   -0.3802    0.9263 C.3       1 ATP         0.0574
     20 O2'         1.3993   -1.3703    0.5961 O.3       1 ATP        -0.5923
     21 C1'        -0.6159   -0.9100    1.8769 C.3       1 ATP         0.2452
     22 N9         -1.7127   -1.6108    1.2130 N.pl3     1 ATP        -0.1834
     23 C8         -2.8662   -1.0361    0.7388 C.ar      1 ATP         0.4338
     24 N7         -3.6774   -1.9166    0.1867 N.2       1 ATP        -0.6101
     25 C5         -3.0159   -3.1045    0.3122 C.ar      1 ATP         0.2154
     26 C6         -3.4377   -4.4169   -0.1199 C.ar      1 ATP         0.6130
     27 N6         -4.5720   -4.5691   -0.7080 N.2       1 ATP        -0.8165
     28 N1         -2.4600   -5.3463    0.2071 N.pl3     1 ATP        -0.8617
     29 C2         -1.2595   -5.0554    0.8515 C.ar      1 ATP         0.6151
     30 N3         -0.8555   -3.8803    1.2516 N.2       1 ATP        -0.5797
     31 C4         -1.7946   -2.9457    0.9448 C.ar      1 ATP         0.0328
     32 HOG3       -6.2612    6.7191    1.7738 H         1 ATP         0.4197
     33 HOA2       -0.2861    3.8370   -1.3917 H         1 ATP         0.4550
     34 H5'1       -1.7775    2.7843    2.1389 H         1 ATP         0.0431
     35 H5'2       -1.1658    2.0534    0.6322 H         1 ATP         0.0431
     36 H4'         0.0402    1.7079    3.4342 H         1 ATP         0.1325
     37 H3'         1.5907    1.4859    1.1353 H         1 ATP         0.0782
     38 HO3'        2.6839   -0.1150    2.2479 H         1 ATP         0.4062
     39 H2'        -0.0017    0.0018    0.0005 H         1 ATP         0.0689
     40 HO2'        2.0953   -0.9375    0.0709 H         1 ATP         0.4089
     41 H1'        -0.1998   -1.6319    2.6178 H         1 ATP         0.1098
     42 H8         -3.0558    0.0252    0.8256 H         1 ATP         0.0929
     43 HN62       -4.7047   -5.5592   -0.9421 H         1 ATP         0.3678
     44 H2         -0.6372   -5.9505    1.0077 H         1 ATP         0.0383
     45 H45        -2.6338   -6.3155   -0.0469 H         1 ATP         0.4286
@<TRIPOS>BOND
     1    1    2 2
     2    1    3 1
     3    1    4 1
     4    1    8 1
     5    4   32 1
     6    5    6 2
     7    5    7 1
     8    5    8 1
     9    5   12 1
    10    9   10 2
    11    9   11 1
    12    9   12 1
    13    9   13 1
    14   11   33 1
    15   13   14 1
    16   14   15 1
    17   14   34 1
    18   14   35 1
    19   15   16 1
    20   15   17 1
    21   15   36 1
    22   16   21 1
    23   17   18 1
    24   17   19 1
    25   17   37 1
    26   18   38 1
    27   19   20 1
    28   19   21 1
    29   19   39 1
    30   20   40 1
    31   21   22 1
    32   21   41 1
    33   22   23 ar
    34   22   31 ar
    35   23   24 ar
    36   23   42 1
    37   24   25 ar
    38   25   26 ar
    39   25   31 ar
    40   26   27 2
    41   26   28 ar
    42   27   43 1
    43   28   29 ar
    44   28   45 1
    45   29   30 ar
    46   29   44 1
    47   30   31 ar
@<TRIPOS>SUBSTRUCTURE
     1 ATP         1 GROUP 0 A     ****
@<TRIPOS>MOLECULE
[[[3,4-dihydroxy-5-(6-imino-1~{H}-purin-9-yl)tetrahydrofuran-2-yl]methoxy-hydroxy-phosphoryl]oxy-oxido-phosphoryl] hydrogen phosphate
   45    47     1     0     0
SMALL
USER_CHARGES

@<TRIPOS>ATOM
      1 PG         -1.0662    5.6860    5.3568 P.3       1 ATP         1.5414
      2 O1G        -2.4002    5.5732    6.0607 O.co2     1 ATP        -0.8562
      3 O2G        -0.2011    6.9155    5.5224 O.co2     1 ATP        -0.8562
      4 O3G        -0.1731    4.3695    5.7247 O.3       1 ATP        -0.7907
      5 PB         -2.0841    6.2607    2.6373 P.3       1 ATP         1.6574
      6 O1B        -3.5610    6.2246    2.9616 O.co2     1 ATP        -0.8530
      7 O2B        -1.3639    7.5738    2.4257 O.co2     1 ATP        -0.8530
      8 O3B        -1.2814    5.3988    3.7663 O.3       1 ATP        -0.8003
      9 PA         -0.4410    4.8279    0.6352 P.3       1 ATP         1.7415
     10 O1A         0.6017    5.9035    0.5369 O.2       1 ATP        -0.8661
     11 O2A        -0.9414    4.2532   -0.7921 O.3       1 ATP        -0.8077
     12 O3A        -1.8155    5.3004    1.3453 O.3       1 ATP        -0.7685
     13 O5'         0.0171    3.5129    1.4593 O.3       1 ATP        -0.5590
     14 C5'        -0.8811    2.4285    1.6206 C.3       1 ATP         0.1960
     15 C4'        -0.1994    1.3333    2.4288 C.3       1 ATP         0.0976
     16 O4'        -1.1285    0.2356    2.5840 O.3       1 ATP        -0.3865
     17 C3'         1.0324    0.7610    1.7344 C.3       1 ATP         0.0901
     18 O3'         1.9175    0.2377    2.7247 O.3       1 ATP        -0.5889
     19 C2'         0.4468   -0.3802    0.9263 C.3       1 ATP         0.0574
     20 O2'         1.3993   -1.3703    0.5961 O.3       1 ATP        -0.5923
     21 C1'        -0.6159   -0.9100    1.8769 C.3       1 ATP         0.2452
     22 N9         -1.7127   -1.6108    1.2130 N.pl3     1 ATP        -0.1834
     23 C8         -2.8662   -1.0361    0.7388 C.ar      1 ATP         0.4338
     24 N7         -3.6774   -1.9166    0.1867 N.2       1 ATP        -0.6101
     25 C5         -3.0159   -3.1045    0.3122 C.ar      1 ATP         0.2154
     26 C6         -3.4377   -4.4169   -0.1199 C.ar      1 ATP         0.6130
     27 N6         -4.5720   -4.5691   -0.7080 N.2       1 ATP        -0.8165
     28 N1         -2.4600   -5.3463    0.2071 N.pl3     1 ATP        -0.8617
     29 C2         -1.2595   -5.0554    0.8515 C.ar      1 ATP         0.6151
     30 N3         -0.8555   -3.8803    1.2516 N.2       1 ATP        -0.5797
     31 C4         -1.7946   -2.9457    0.9448 C.ar      1 ATP         0.0328
     32 HOG3        0.7268    4.2939    5.3413 H         1 ATP         0.4197
     33 HOA2       -0.2861    3.8370   -1.3917 H         1 ATP         0.4550
     34 H5'1       -1.7775    2.7843    2.1389 H         1 ATP         0.0431
     35 H5'2       -1.1658    2.0534    0.6322 H         1 ATP         0.0431
     36 H4'         0.0402    1.7079    3.4342 H         1 ATP         0.1325
     37 H3'         1.5907    1.4859    1.1353 H         1 ATP         0.0782
     38 HO3'        2.6839   -0.1150    2.2479 H         1 ATP         0.4062
     39 H2'        -0.0017    0.0018    0.0005 H         1 ATP         0.0689
     40 HO2'        2.0953   -0.9375    0.0709 H         1 ATP         0.4089
     41 H1'        -0.1998   -1.6319    2.6178 H         1 ATP         0.1098
     42 H8         -3.0558    0.0252    0.8256 H         1 ATP         0.0929
     43 HN62       -4.7047   -5.5592   -0.9421 H         1 ATP         0.3678
     44 H2         -0.6372   -5.9505    1.0077 H         1 ATP         0.0383
     45 H45        -2.6338   -6.3155   -0.0469 H         1 ATP         0.4286
@<TRIPOS>BOND
     1    1    2 2
     2    1    3 1
     3    1    4 1
     4    1    8 1
     5    4   32 1
     6    5    6 2
     7    5    7 1
     8    5    8 1
     9    5   12 1
    10    9   10 2
    11    9   11 1
    12    9   12 1
    13    9   13 1
    14   11   33 1
    15   13   14 1
    16   14   15 1
    17   14   34 1
    18   14   35 1
    19   15   16 1
    20   15   17 1
    21   15   36 1
    22   16   21 1
    23   17   18 1
    24   17   19 1
    25   17   37 1
    26   18   38 1
    27   19   20 1
    28   19   21 1
    29   19   39 1
    30   20   40 1
    31   21   22 1
    32   21   41 1
    33   22   23 ar
    34   22   31 ar
    35   23   24 ar
    36   23   42 1
    37   24   25 ar
    38   25   26 ar
    39   25   31 ar
    40   26   27 2
    41   26   28 ar
    42   27   43 1
    43   28   29 ar
    44   28   45 1
    45   29   30 ar
    46   29   44 1
    47   30   31 ar
@<TRIPOS>SUBSTRUCTURE
     1 ATP         1 GROUP 0 A     ****
@<TRIPOS>MOLECULE
[[[3,4-dihydroxy-5-(6-imino-1~{H}-purin-9-yl)tetrahydrofuran-2-yl]methoxy-hydroxy-phosphoryl]oxy-oxido-phosphoryl] hydrogen phosphate
   45    47     1     0     0
SMALL
USER_CHARGES

@<TRIPOS>ATOM
      1 PG         -3.8802    4.0927   -2.4613 P.3       1 ATP         1.5414
      2 O1G        -5.3144    4.5558   -2.5884 O.co2     1 ATP        -0.8562
      3 O2G        -3.5414    2.7944   -1.7634 O.co2     1 ATP        -0.8562
      4 O3G        -3.2080    4.0729   -3.9492 O.3       1 ATP        -0.7907
      5 PB         -3.0385    5.9477   -0.3137 P.3       1 ATP         1.6574
      6 O1B        -1.8849    6.9160   -0.1742 O.co2     1 ATP        -0.8530
      7 O2B        -4.4577    6.3771   -0.0148 O.co2     1 ATP        -0.8530
      8 O3B        -2.9924    5.2940   -1.8077 O.3       1 ATP        -0.8003
      9 PA         -2.5525    4.3888    2.1550 P.3       1 ATP         1.7415
     10 O1A        -3.7892    4.7207    2.9387 O.2       1 ATP        -0.8661
     11 O2A        -1.2618    5.2871    2.5359 O.3       1 ATP        -0.8077
     12 O3A        -2.6994    4.6113    0.5595 O.3       1 ATP        -0.7685
     13 O5'        -2.0397    2.8622    2.3122 O.3       1 ATP        -0.5590
     14 C5'        -0.8811    2.4285    1.6206 C.3       1 ATP         0.1960
     15 C4'        -0.1994    1.3333    2.4288 C.3       1 ATP         0.0976
     16 O4'        -1.1285    0.2356    2.5840 O.3       1 ATP        -0.3865
     17 C3'         1.0324    0.7610    1.7344 C.3       1 ATP         0.0901
     18 O3'         1.9175    0.2377    2.7247 O.3       1 ATP        -0.5889
     19 C2'         0.4468   -0.3802    0.9263 C.3       1 ATP         0.0574
     20 O2'         1.3993   -1.3703    0.5961 O.3       1 ATP        -0.5923
     21 C1'        -0.6159   -0.9100    1.8769 C.3       1 ATP         0.2452
     22 N9         -1.7127   -1.6108    1.2130 N.pl3     1 ATP        -0.1834
     23 C8         -2.8662   -1.0361    0.7388 C.ar      1 ATP         0.4338
     24 N7         -3.6774   -1.9166    0.1867 N.2       1 ATP        -0.6101
     25 C5         -3.0159   -3.1045    0.3122 C.ar      1 ATP         0.2154
     26 C6         -3.4377   -4.4169   -0.1199 C.ar      1 ATP         0.6130
     27 N6         -4.5720   -4.5691   -0.7080 N.2       1 ATP        -0.8165
     28 N1         -2.4600   -5.3463    0.2071 N.pl3     1 ATP        -0.8617
     29 C2         -1.2595   -5.0554    0.8515 C.ar      1 ATP         0.6151
     30 N3         -0.8555   -3.8803    1.2516 N.2       1 ATP        -0.5797
     31 C4         -1.7946   -2.9457    0.9448 C.ar      1 ATP         0.0328
     32 HOG3       -2.2719    3.7921   -4.0347 H         1 ATP         0.4197
     33 HOA2       -0.9230    5.2641    3.4562 H         1 ATP         0.4550
     34 H5'1       -1.1761    2.0499    0.6365 H         1 ATP         0.0431
     35 H5'2       -0.2073    3.2811    1.4874 H         1 ATP         0.0431
     36 H4'         0.0402    1.7079    3.4342 H         1 ATP         0.1325
     37 H3'         1.5907    1.4859    1.1353 H         1 ATP         0.0782
     38 HO3'        2.6839   -0.1150    2.2479 H         1 ATP         0.4062
     39 H2'        -0.0017    0.0018    0.0005 H         1 ATP         0.0689
     40 HO2'        2.0953   -0.9375    0.0709 H         1 ATP         0.4089
     41 H1'        -0.1998   -1.6319    2.6178 H         1 ATP         0.1098
     42 H8         -3.0558    0.0252    0.8256 H         1 ATP         0.0929
     43 HN62       -4.7047   -5.5592   -0.9421 H         1 ATP         0.3678
     44 H2         -0.6372   -5.9505    1.0077 H         1 ATP         0.0383
     45 H45        -2.6338   -6.3155   -0.0469 H         1 ATP         0.4286
@<TRIPOS>BOND
     1    1    2 2
     2    1    3 1
     3    1    4 1
     4    1    8 1
     5    4   32 1
     6    5    6 2
     7    5    7 1
     8    5    8 1
     9    5   12 1
    10    9   10 2
    11    9   11 1
    12    9   12 1
    13    9   13 1
    14   11   33 1
    15   13   14 1
    16   14   15 1
    17   14   34 1
    18   14   35 1
    19   15   16 1
    20   15   17 1
    21   15   36 1
    22   16   21 1
    23   17   18 1
    24   17   19 1
    25   17   37 1
    26   18   38 1
    27   19   20 1
    28   19   21 1
    29   19   39 1
    30   20   40 1
    31   21   22 1
    32   21   41 1
    33   22   23 ar
    34   22   31 ar
    35   23   24 ar
    36   23   42 1
    37   24   25 ar
    38   25   26 ar
    39   25   31 ar
    40   26   27 2
    41   26   28 ar
    42   27   43 1
    43   28   29 ar
    44   28   45 1
    45   29   30 ar
    46   29   44 1
    47   30   31 ar
@<TRIPOS>SUBSTRUCTURE
     1 ATP         1 GROUP 0 A     ****
@<TRIPOS>MOLECULE
[[[3,4-dihydroxy-5-(6-imino-1~{H}-purin-9-yl)tetrahydrofuran-2-yl]methoxy-hydroxy-phosphoryl]oxy-oxido-phosphoryl] hydrogen phosphate
   45    47     1     0     0
SMALL
USER_CHARGES

@<TRIPOS>ATOM
      1 PG         -6.4106    0.2266   -0.9491 P.3       1 ATP         1.5414
      2 O1G        -6.1425   -1.2524   -0.7810 O.co2     1 ATP        -0.8562
      3 O2G        -6.5214    0.8453   -2.3248 O.co2     1 ATP        -0.8562
      4 O3G        -7.7499    0.6108   -0.0978 O.3       1 ATP        -0.7907
      5 PB         -5.2177    2.6632    0.2351 P.3       1 ATP         1.6574
      6 O1B        -4.9153    3.3895   -1.0567 O.co2     1 ATP        -0.8530
      7 O2B        -6.3931    3.0640    1.0986 O.co2     1 ATP        -0.8530
      8 O3B        -5.3175    1.0649   -0.0767 O.3       1 ATP        -0.8003
      9 PA         -3.0705    3.8640    1.8808 P.3       1 ATP         1.7415
     10 O1A        -3.8861    4.6226    2.8874 O.2       1 ATP        -0.8661
     11 O2A        -2.5428    4.7593    0.6407 O.3       1 ATP        -0.8077
     12 O3A        -3.8686    2.6596    1.1535 O.3       1 ATP        -0.7685
     13 O5'        -1.7334    3.1724    2.4743 O.3       1 ATP        -0.5590
     14 C5'        -0.8811    2.4285    1.6206 C.3       1 ATP         0.1960
     15 C4'        -0.1994    1.3333    2.4288 C.3       1 ATP         0.0976
     16 O4'        -1.1285    0.2356    2.5840 O.3       1 ATP        -0.3865
     17 C3'         1.0324    0.7610    1.7344 C.3       1 ATP         0.0901
     18 O3'         1.9175    0.2377    2.7247 O.3       1 ATP        -0.5889
     19 C2'         0.4468   -0.3802    0.9263 C.3       1 ATP         0.0574
     20 O2'         1.3993   -1.3703    0.5961 O.3       1 ATP        -0.5923
     21 C1'        -0.6159   -0.9100    1.8769 C.3       1 ATP         0.2452
     22 N9         -1.7127   -1.6108    1.2130 N.pl3     1 ATP        -0.1834
     23 C8         -2.5485   -1.0808    0.2609 C.ar      1 ATP         0.4338
     24 N7         -3.4476   -1.9486   -0.1593 N.2       1 ATP        -0.6101
     25 C5         -3.1762   -3.0816    0.5530 C.ar      1 ATP         0.2154
     26 C6         -3.8510   -4.3579    0.5006 C.ar      1 ATP         0.6130
     27 N6         -4.8468   -4.5293   -0.2961 N.2       1 ATP        -0.8165
     28 N1         -3.2499   -5.2342    1.3937 N.pl3     1 ATP        -0.8617
     29 C2         -2.1646   -4.9275    2.2116 C.ar      1 ATP         0.6151
     30 N3         -1.5382   -3.7840    2.2778 N.2       1 ATP        -0.5797
     31 C4         -2.1054   -2.9018    1.4120 C.ar      1 ATP         0.0328
     32 HOG3       -8.0571    1.5424   -0.1062 H         1 ATP         0.4197
     33 HOA2       -1.9622    5.5283    0.8243 H         1 ATP         0.4550
     34 H5'1       -1.4795    1.9922    0.8142 H         1 ATP         0.0431
     35 H5'2       -0.1362    3.1035    1.1868 H         1 ATP         0.0431
     36 H4'         0.0402    1.7079    3.4342 H         1 ATP         0.1325
     37 H3'         1.5907    1.4859    1.1353 H         1 ATP         0.0782
     38 HO3'        2.6839   -0.1150    2.2479 H         1 ATP         0.4062
     39 H2'        -0.0017    0.0018    0.0005 H         1 ATP         0.0689
     40 HO2'        2.0953   -0.9375    0.0709 H         1 ATP         0.4089
     41 H1'        -0.1998   -1.6319    2.6178 H         1 ATP         0.1098
     42 H8         -2.4515   -0.0599   -0.0829 H         1 ATP         0.0929
     43 HN62       -5.1990   -5.4882   -0.2005 H         1 ATP         0.3678
     44 H2         -1.8555   -5.7783    2.8388 H         1 ATP         0.0383
     45 H45        -3.6312   -6.1750    1.4526 H         1 ATP         0.4286
@<TRIPOS>BOND
     1    1    2 2
     2    1    3 1
     3    1    4 1
     4    1    8 1
     5    4   32 1
     6    5    6 2
     7    5    7 1
     8    5    8 1
     9    5   12 1
    10    9   10 2
    11    9   11 1
    12    9   12 1
    13    9   13 1
    14   11   33 1
    15   13   14 1
    16   14   15 1
    17   14   34 1
    18   14   35 1
    19   15   16 1
    20   15   17 1
    21   15   36 1
    22   16   21 1
    23   17   18 1
    24   17   19 1
    25   17   37 1
    26   18   38 1
    27   19   20 1
    28   19   21 1
    29   19   39 1
    30   20   40 1
    31   21   22 1
    32   21   41 1
    33   22   23 ar
    34   22   31 ar
    35   23   24 ar
    36   23   42 1
    37   24   25 ar
    38   25   26 ar
    39   25   31 ar
    40   26   27 2
    41   26   28 ar
    42   27   43 1
    43   28   29 ar
    44   28   45 1
    45   29   30 ar
    46   29   44 1
    47   30   31 ar
@<TRIPOS>SUBSTRUCTURE
     1 ATP         1 GROUP 0 A     ****
@<TRIPOS>MOLECULE
[[[3,4-dihydroxy-5-(6-imino-1~{H}-purin-9-yl)tetrahydrofuran-2-yl]methoxy-hydroxy-phosphoryl]oxy-oxido-phosphoryl] hydrogen phosphate
   45    47     1     0     0
SMALL
USER_CHARGES

@<TRIPOS>ATOM
      1 PG         -0.8955    8.3695    3.9019 P.3       1 ATP         1.5414
      2 O1G        -0.1465    7.7568    5.0643 O.co2     1 ATP        -0.8562
      3 O2G        -2.1722    9.1494    4.1239 O.co2     1 ATP        -0.8562
      4 O3G         0.1407    9.3013    3.0509 O.3       1 ATP        -0.7907
      5 PB         -2.1079    5.8866    2.8402 P.3       1 ATP         1.6574
      6 O1B        -1.5247    4.9267    3.8532 O.co2     1 ATP        -0.8530
      7 O2B        -3.5551    6.3192    2.9187 O.co2     1 ATP        -0.8530
      8 O3B        -1.1657    7.2172    2.7804 O.3       1 ATP        -0.8003
      9 PA         -0.4410    4.8279    0.6352 P.3       1 ATP         1.7415
     10 O1A         0.6017    5.9035    0.5369 O.2       1 ATP        -0.8661
     11 O2A        -0.9414    4.2532   -0.7921 O.3       1 ATP        -0.8077
     12 O3A        -1.8155    5.3004    1.3453 O.3       1 ATP        -0.7685
     13 O5'         0.0171    3.5129    1.4593 O.3       1 ATP        -0.5590
     14 C5'        -0.8811    2.4285    1.6206 C.3       1 ATP         0.1960
     15 C4'        -0.1994    1.3333    2.4288 C.3       1 ATP         0.0976
     16 O4'        -1.1285    0.2356    2.5840 O.3       1 ATP        -0.3865
     17 C3'         1.0324    0.7610    1.7344 C.3       1 ATP         0.0901
     18 O3'         1.9175    0.2377    2.7247 O.3       1 ATP        -0.5889
     19 C2'         0.4468   -0.3802    0.9263 C.3       1 ATP         0.0574
     20 O2'         1.3993   -1.3703    0.5961 O.3       1 ATP        -0.5923
     21 C1'        -0.6159   -0.9100    1.8769 C.3       1 ATP         0.2452
     22 N9         -1.7127   -1.6108    1.2130 N.pl3     1 ATP        -0.1834
     23 C8         -2.8662   -1.0361    0.7388 C.ar      1 ATP         0.4338
     24 N7         -3.6774   -1.9166    0.1867 N.2       1 ATP        -0.6101
     25 C5         -3.0159   -3.1045    0.3122 C.ar      1 ATP         0.2154
     26 C6         -3.4377   -4.4169   -0.1199 C.ar      1 ATP         0.6130
     27 N6         -4.5720   -4.5691   -0.7080 N.2       1 ATP        -0.8165
     28 N1         -2.4600   -5.3463    0.2071 N.pl3     1 ATP        -0.8617
     29 C2         -1.2595   -5.0554    0.8515 C.ar      1 ATP         0.6151
     30 N3         -0.8555   -3.8803    1.2516 N.2       1 ATP        -0.5797
     31 C4         -1.7946   -2.9457    0.9448 C.ar      1 ATP         0.0328
     32 HOG3       -0.1971    9.7714    2.2588 H         1 ATP         0.4197
     33 HOA2       -0.2861    3.8370   -1.3917 H         1 ATP         0.4550
     34 H5'1       -1.7775    2.7843    2.1389 H         1 ATP         0.0431
     35 H5'2       -1.1658    2.0534    0.6322 H         1 ATP         0.0431
     36 H4'         0.0402    1.7079    3.4342 H         1 ATP         0.1325
     37 H3'         1.5907    1.4859    1.1353 H         1 ATP         0.0782
     38 HO3'        2.6839   -0.1150    2.2479 H         1 ATP         0.4062
     39 H2'        -0.0017    0.0018    0.0005 H         1 ATP         0.0689
     40 HO2'        2.0953   -0.9375    0.0709 H         1 ATP         0.4089
     41 H1'        -0.1998   -1.6319    2.6178 H         1 ATP         0.1098
     42 H8         -3.0558    0.0252    0.8256 H         1 ATP         0.0929
     43 HN62       -4.7047   -5.5592   -0.9421 H         1 ATP         0.3678
     44 H2         -0.6372   -5.9505    1.0077 H         1 ATP         0.0383
     45 H45        -2.6338   -6.3155   -0.0469 H         1 ATP         0.4286
@<TRIPOS>BOND
     1    1    2 2
     2    1    3 1
     3    1    4 1
     4    1    8 1
     5    4   32 1
     6    5    6 2
     7    5    7 1
     8    5    8 1
     9    5   12 1
    10    9   10 2
    11    9   11 1
    12    9   12 1
    13    9   13 1
    14   11   33 1
    15   13   14 1
    16   14   15 1
    17   14   34 1
    18   14   35 1
    19   15   16 1
    20   15   17 1
    21   15   36 1
    22   16   21 1
    23   17   18 1
    24   17   19 1
    25   17   37 1
    26   18   38 1
    27   19   20 1
    28   19   21 1
    29   19   39 1
    30   20   40 1
    31   21   22 1
    32   21   41 1
    33   22   23 ar
    34   22   31 ar
    35   23   24 ar
    36   23   42 1
    37   24   25 ar
    38   25   26 ar
    39   25   31 ar
    40   26   27 2
    41   26   28 ar
    42   27   43 1
    43   28   29 ar
    44   28   45 1
    45   29   30 ar
    46   29   44 1
    47   30   31 ar
@<TRIPOS>SUBSTRUCTURE
     1 ATP         1 GROUP 0 A     ****
@<TRIPOS>MOLECULE
[[[3,4-dihydroxy-5-(6-imino-1~{H}-purin-9-yl)tetrahydrofuran-2-yl]methoxy-hydroxy-phosphoryl]oxy-oxido-phosphoryl] hydrogen phosphate
   45    47     1     0     0
SMALL
USER_CHARGES

@<TRIPOS>ATOM
      1 PG         -4.8793    4.6379    0.1555 P.3       1 ATP         1.5414
      2 O1G        -4.2222    3.8633    1.2762 O.co2     1 ATP        -0.8562
      3 O2G        -5.4003    3.9320   -1.0764 O.co2     1 ATP        -0.8562
      4 O3G        -6.0857    5.5395    0.7864 O.3       1 ATP        -0.7907
      5 PB         -2.4287    5.7938   -1.0365 P.3       1 ATP         1.6574
      6 O1B        -2.5446    4.9477   -2.2849 O.co2     1 ATP        -0.8530
      7 O2B        -1.8633    7.1955   -1.0940 O.co2     1 ATP        -0.8530
      8 O3B        -3.8863    5.8463   -0.3054 O.3       1 ATP        -0.8003
      9 PA         -0.0705    4.4476    0.1413 P.3       1 ATP         1.7415
     10 O1A         0.9358    5.5605    0.0915 O.2       1 ATP        -0.8661
     11 O2A         0.0245    3.4081   -1.0950 O.3       1 ATP        -0.8077
     12 O3A        -1.6095    4.9430    0.0898 O.3       1 ATP        -0.7685
     13 O5'         0.0171    3.5129    1.4593 O.3       1 ATP        -0.5590
     14 C5'        -0.8811    2.4285    1.6206 C.3       1 ATP         0.1960
     15 C4'        -0.1994    1.3333    2.4288 C.3       1 ATP         0.0976
     16 O4'        -1.1285    0.2356    2.5840 O.3       1 ATP        -0.3865
     17 C3'         1.0324    0.7610    1.7344 C.3       1 ATP         0.0901
     18 O3'         1.9175    0.2377    2.7247 O.3       1 ATP        -0.5889
     19 C2'         0.4468   -0.3802    0.9263 C.3       1 ATP         0.0574
     20 O2'         1.3993   -1.3703    0.5961 O.3       1 ATP        -0.5923
     21 C1'        -0.6159   -0.9100    1.8769 C.3       1 ATP         0.2452
     22 N9         -1.7127   -1.6108    1.2130 N.pl3     1 ATP        -0.1834
     23 C8         -2.8662   -1.0361    0.7388 C.ar      1 ATP         0.4338
     24 N7         -3.6774   -1.9166    0.1867 N.2       1 ATP        -0.6101
     25 C5         -3.0159   -3.1045    0.3122 C.ar      1 ATP         0.2154
     26 C6         -3.4377   -4.4169   -0.1199 C.ar      1 ATP         0.6130
     27 N6         -4.5720   -4.5691   -0.7080 N.2       1 ATP        -0.8165
     28 N1         -2.4600   -5.3463    0.2071 N.pl3     1 ATP        -0.8617
     29 C2         -1.2595   -5.0554    0.8515 C.ar      1 ATP         0.6151
     30 N3         -0.8555   -3.8803    1.2516 N.2       1 ATP        -0.5797
     31 C4         -1.7946   -2.9457    0.9448 C.ar      1 ATP         0.0328
     32 HOG3       -6.6124    6.1037    0.1808 H         1 ATP         0.4197
     33 HOA2        0.8591    2.9119   -1.2342 H         1 ATP         0.4550
     34 H5'1       -1.7775    2.7843    2.1389 H         1 ATP         0.0431
     35 H5'2       -1.1658    2.0534    0.6322 H         1 ATP         0.0431
     36 H4'         0.0402    1.7079    3.4342 H         1 ATP         0.1325
     37 H3'         1.5907    1.4859    1.1353 H         1 ATP         0.0782
     38 HO3'        2.6839   -0.1150    2.2479 H         1 ATP         0.4062
     39 H2'        -0.0017    0.0018    0.0005 H         1 ATP         0.0689
     40 HO2'        2.0953   -0.9375    0.0709 H         1 ATP         0.4089
     41 H1'        -0.1998   -1.6319    2.6178 H         1 ATP         0.1098
     42 H8         -3.0558    0.0252    0.8256 H         1 ATP         0.0929
     43 HN62       -4.7047   -5.5592   -0.9421 H         1 ATP         0.3678
     44 H2         -0.6372   -5.9505    1.0077 H         1 ATP         0.0383
     45 H45        -2.6338   -6.3155   -0.0469 H         1 ATP         0.4286
@<TRIPOS>BOND
     1    1    2 2
     2    1    3 1
     3    1    4 1
     4    1    8 1
     5    4   32 1
     6    5    6 2
     7    5    7 1
     8    5    8 1
     9    5   12 1
    10    9   10 2
    11    9   11 1
    12    9   12 1
    13    9   13 1
    14   11   33 1
    15   13   14 1
    16   14   15 1
    17   14   34 1
    18   14   35 1
    19   15   16 1
    20   15   17 1
    21   15   36 1
    22   16   21 1
    23   17   18 1
    24   17   19 1
    25   17   37 1
    26   18   38 1
    27   19   20 1
    28   19   21 1
    29   19   39 1
    30   20   40 1
    31   21   22 1
    32   21   41 1
    33   22   23 ar
    34   22   31 ar
    35   23   24 ar
    36   23   42 1
    37   24   25 ar
    38   25   26 ar
    39   25   31 ar
    40   26   27 2
    41   26   28 ar
    42   27   43 1
    43   28   29 ar
    44   28   45 1
    45   29   30 ar
    46   29   44 1
    47   30   31 ar
@<TRIPOS>SUBSTRUCTURE
     1 ATP         1 GROUP 0 A     ****
@<TRIPOS>MOLECULE
[[[3,4-dihydroxy-5-(6-imino-1~{H}-purin-9-yl)tetrahydrofuran-2-yl]methoxy-hydroxy-phosphoryl]oxy-oxido-phosphoryl] hydrogen phosphate
   45    47     1     0     0
SMALL
USER_CHARGES

@<TRIPOS>ATOM
      1 PG         -4.9061    5.0169    2.4208 P.3       1 ATP         1.5414
      2 O1G        -5.0063    4.0619    3.5894 O.co2     1 ATP        -0.8562
      3 O2G        -4.7572    4.5020    1.0065 O.co2     1 ATP        -0.8562
      4 O3G        -6.1826    6.0338    2.4714 O.3       1 ATP        -0.7907
      5 PB         -2.1079    5.8866    2.8402 P.3       1 ATP         1.6574
      6 O1B        -1.4516    7.2442    2.9586 O.co2     1 ATP        -0.8530
      7 O2B        -1.8337    4.7967    3.8525 O.co2     1 ATP        -0.8530
      8 O3B        -3.7213    6.0964    2.7201 O.3       1 ATP        -0.8003
      9 PA         -0.4410    4.8279    0.6352 P.3       1 ATP         1.7415
     10 O1A         0.6017    5.9035    0.5369 O.2       1 ATP        -0.8661
     11 O2A        -0.9414    4.2532   -0.7921 O.3       1 ATP        -0.8077
     12 O3A        -1.8155    5.3004    1.3453 O.3       1 ATP        -0.7685
     13 O5'         0.0171    3.5129    1.4593 O.3       1 ATP        -0.5590
     14 C5'        -0.8811    2.4285    1.6206 C.3       1 ATP         0.1960
     15 C4'        -0.1994    1.3333    2.4288 C.3       1 ATP         0.0976
     16 O4'        -1.1285    0.2356    2.5840 O.3       1 ATP        -0.3865
     17 C3'         1.0324    0.7610    1.7344 C.3       1 ATP         0.0901
     18 O3'         1.9175    0.2377    2.7247 O.3       1 ATP        -0.5889
     19 C2'         0.4468   -0.3802    0.9263 C.3       1 ATP         0.0574
     20 O2'         1.3993   -1.3703    0.5961 O.3       1 ATP        -0.5923
     21 C1'        -0.6159   -0.9100    1.8769 C.3       1 ATP         0.2452
     22 N9         -1.7127   -1.6108    1.2130 N.pl3     1 ATP        -0.1834
     23 C8         -1.7690   -2.9583    0.9549 C.ar      1 ATP         0.4338
     24 N7         -2.8827   -3.3076    0.3418 N.2       1 ATP        -0.6101
     25 C5         -3.5683   -2.1351    0.2017 C.ar      1 ATP         0.2154
     26 C6         -4.8617   -1.9185   -0.4044 C.ar      1 ATP         0.6130
     27 N6         -5.5166   -2.9094   -0.8993 N.2       1 ATP        -0.8165
     28 N1         -5.1837   -0.5701   -0.3344 N.pl3     1 ATP        -0.8617
     29 C2         -4.3821    0.4180    0.2330 C.ar      1 ATP         0.6151
     30 N3         -3.2117    0.2488    0.7860 N.2       1 ATP        -0.5797
     31 C4         -2.8672   -1.0657    0.7327 C.ar      1 ATP         0.0328
     32 HOG3       -6.2612    6.7191    1.7738 H         1 ATP         0.4197
     33 HOA2       -0.2861    3.8370   -1.3917 H         1 ATP         0.4550
     34 H5'1       -1.7775    2.7843    2.1389 H         1 ATP         0.0431
     35 H5'2       -1.1658    2.0534    0.6322 H         1 ATP         0.0431
     36 H4'         0.0402    1.7079    3.4342 H         1 ATP         0.1325
     37 H3'         1.5907    1.4859    1.1353 H         1 ATP         0.0782
     38 HO3'        2.6839   -0.1150    2.2479 H         1 ATP         0.4062
     39 H2'        -0.0017    0.0018    0.0005 H         1 ATP         0.0689
     40 HO2'        2.0953   -0.9375    0.0709 H         1 ATP         0.4089
     41 H1'        -0.1998   -1.6319    2.6178 H         1 ATP         0.1098
     42 H8         -0.9697   -3.6300    1.2371 H         1 ATP         0.0929
     43 HN62       -6.4060   -2.5723   -1.2840 H         1 ATP         0.3678
     44 H2         -4.8409    1.4176    0.1757 H         1 ATP         0.0383
     45 H45        -6.0768   -0.2826   -0.7263 H         1 ATP         0.4286
@<TRIPOS>BOND
     1    1    2 2
     2    1    3 1
     3    1    4 1
     4    1    8 1
     5    4   32 1
     6    5    6 2
     7    5    7 1
     8    5    8 1
     9    5   12 1
    10    9   10 2
    11    9   11 1
    12    9   12 1
    13    9   13 1
    14   11   33 1
    15   13   14 1
    16   14   15 1
    17   14   34 1
    18   14   35 1
    19   15   16 1
    20   15   17 1
    21   15   36 1
    22   16   21 1
    23   17   18 1
    24   17   19 1
    25   17   37 1
    26   18   38 1
    27   19   20 1
    28   19   21 1
    29   19   39 1
    30   20   40 1
    31   21   22 1
    32   21   41 1
    33   22   23 ar
    34   22   31 ar
    35   23   24 ar
    36   23   42 1
    37   24   25 ar
    38   25   26 ar
    39   25   31 ar
    40   26   27 2
    41   26   28 ar
    42   27   43 1
    43   28   29 ar
    44   28   45 1
    45   29   30 ar
    46   29   44 1
    47   30   31 ar
@<TRIPOS>SUBSTRUCTURE
     1 ATP         1 GROUP 0 A     ****
@<TRIPOS>MOLECULE
[[[3,4-dihydroxy-5-(6-imino-1~{H}-purin-9-yl)tetrahydrofuran-2-yl]methoxy-hydroxy-phosphoryl]oxy-oxido-phosphoryl] hydrogen phosphate
   45    47     1     0     0
SMALL
USER_CHARGES

@<TRIPOS>ATOM
      1 PG         -3.7336    6.3795    3.7836 P.3       1 ATP         1.5414
      2 O1G        -3.4318    7.8187    4.1376 O.co2     1 ATP        -0.8562
      3 O2G        -2.8258    5.2595    4.2408 O.co2     1 ATP        -0.8562
      4 O3G        -5.2584    6.0379    4.2573 O.3       1 ATP        -0.7907
      5 PB         -2.8854    6.4674    0.9490 P.3       1 ATP         1.6574
      6 O1B        -3.5606    6.0775   -0.3471 O.co2     1 ATP        -0.8530
      7 O2B        -2.2158    7.8147    1.1051 O.co2     1 ATP        -0.8530
      8 O3B        -3.9470    6.2650    2.1712 O.3       1 ATP        -0.8003
      9 PA         -0.4410    4.8279    0.6352 P.3       1 ATP         1.7415
     10 O1A         0.6017    5.9035    0.5369 O.2       1 ATP        -0.8661
     11 O2A        -0.9414    4.2532   -0.7921 O.3       1 ATP        -0.8077
     12 O3A        -1.8155    5.3004    1.3453 O.3       1 ATP        -0.7685
     13 O5'         0.0171    3.5129    1.4593 O.3       1 ATP        -0.5590
     14 C5'        -0.8811    2.4285    1.6206 C.3       1 ATP         0.1960
     15 C4'        -0.1994    1.3333    2.4288 C.3       1 ATP         0.0976
     16 O4'        -1.1285    0.2356    2.5840 O.3       1 ATP        -0.3865
     17 C3'         1.0324    0.7610    1.7344 C.3       1 ATP         0.0901
     18 O3'         1.9175    0.2377    2.7247 O.3       1 ATP        -0.5889
     19 C2'         0.4468   -0.3802    0.9263 C.3       1 ATP         0.0574
     20 O2'         1.3993   -1.3703    0.5961 O.3       1 ATP        -0.5923
     21 C1'        -0.6159   -0.9100    1.8769 C.3       1 ATP         0.2452
     22 N9         -1.7127   -1.6108    1.2130 N.pl3     1 ATP        -0.1834
     23 C8         -2.8662   -1.0361    0.7388 C.ar      1 ATP         0.4338
     24 N7         -3.6774   -1.9166    0.1867 N.2       1 ATP        -0.6101
     25 C5         -3.0159   -3.1045    0.3122 C.ar      1 ATP         0.2154
     26 C6         -3.4377   -4.4169   -0.1199 C.ar      1 ATP         0.6130
     27 N6         -4.5720   -4.5691   -0.7080 N.2       1 ATP        -0.8165
     28 N1         -2.4600   -5.3463    0.2071 N.pl3     1 ATP        -0.8617
     29 C2         -1.2595   -5.0554    0.8515 C.ar      1 ATP         0.6151
     30 N3         -0.8555   -3.8803    1.2516 N.2       1 ATP        -0.5797
     31 C4         -1.7946   -2.9457    0.9448 C.ar      1 ATP         0.0328
     32 HOG3       -5.6060    5.1349    4.0959 H         1 ATP         0.4197
     33 HOA2       -0.2861    3.8370   -1.3917 H         1 ATP         0.4550
     34 H5'1       -1.7775    2.7843    2.1389 H         1 ATP         0.0431
     35 H5'2       -1.1658    2.0534    0.6322 H         1 ATP         0.0431
     36 H4'         0.0402    1.7079    3.4342 H         1 ATP         0.1325
     37 H3'         1.5907    1.4859    1.1353 H         1 ATP         0.0782
     38 HO3'        2.6839   -0.1150    2.2479 H         1 ATP         0.4062
     39 H2'        -0.0017    0.0018    0.0005 H         1 ATP         0.0689
     40 HO2'        2.0953   -0.9375    0.0709 H         1 ATP         0.4089
     41 H1'        -0.1998   -1.6319    2.6178 H         1 ATP         0.1098
     42 H8         -3.0558    0.0252    0.8256 H         1 ATP         0.0929
     43 HN62       -4.7047   -5.5592   -0.9421 H         1 ATP         0.3678
     44 H2         -0.6372   -5.9505    1.0077 H         1 ATP         0.0383
     45 H45        -2.6338   -6.3155   -0.0469 H         1 ATP         0.4286
@<TRIPOS>BOND
     1    1    2 2
     2    1    3 1
     3    1    4 1
     4    1    8 1
     5    4   32 1
     6    5    6 2
     7    5    7 1
     8    5    8 1
     9    5   12 1
    10    9   10 2
    11    9   11 1
    12    9   12 1
    13    9   13 1
    14   11   33 1
    15   13   14 1
    16   14   15 1
    17   14   34 1
    18   14   35 1
    19   15   16 1
    20   15   17 1
    21   15   36 1
    22   16   21 1
    23   17   18 1
    24   17   19 1
    25   17   37 1
    26   18   38 1
    27   19   20 1
    28   19   21 1
    29   19   39 1
    30   20   40 1
    31   21   22 1
    32   21   41 1
    33   22   23 ar
    34   22   31 ar
    35   23   24 ar
    36   23   42 1
    37   24   25 ar
    38   25   26 ar
    39   25   31 ar
    40   26   27 2
    41   26   28 ar
    42   27   43 1
    43   28   29 ar
    44   28   45 1
    45   29   30 ar
    46   29   44 1
    47   30   31 ar
@<TRIPOS>SUBSTRUCTURE
     1 ATP         1 GROUP 0 A     ****
@<TRIPOS>MOLECULE
[[[3,4-dihydroxy-5-(6-imino-1~{H}-purin-9-yl)tetrahydrofuran-2-yl]methoxy-hydroxy-phosphoryl]oxy-oxido-phosphoryl] hydrogen phosphate
   45    47     1     0     0
SMALL
USER_CHARGES

@<TRIPOS>ATOM
      1 PG         -5.7086    3.0033   -2.6680 P.3       1 ATP         1.5414
      2 O1G        -5.8985    1.5324   -2.9642 O.co2     1 ATP        -0.8562
      3 O2G        -5.2219    3.9554   -3.7377 O.co2     1 ATP        -0.8562
      4 O3G        -7.0987    3.5903   -2.0441 O.3       1 ATP        -0.7907
      5 PB         -4.3552    4.4878   -0.4938 P.3       1 ATP         1.6574
      6 O1B        -3.4889    5.3735   -1.3615 O.co2     1 ATP        -0.8530
      7 O2B        -5.5948    5.0303    0.1821 O.co2     1 ATP        -0.8530
      8 O3B        -4.7633    3.1594   -1.3486 O.3       1 ATP        -0.8003
      9 PA         -2.5925    4.4094    1.8827 P.3       1 ATP         1.7415
     10 O1A        -3.4550    5.1144    2.8891 O.2       1 ATP        -0.8661
     11 O2A        -1.4926    5.3570    1.1685 O.3       1 ATP        -0.8077
     12 O3A        -3.4080    3.7839    0.6336 O.3       1 ATP        -0.7685
     13 O5'        -1.7334    3.1724    2.4743 O.3       1 ATP        -0.5590
     14 C5'        -0.8811    2.4285    1.6206 C.3       1 ATP         0.1960
     15 C4'        -0.1994    1.3333    2.4288 C.3       1 ATP         0.0976
     16 O4'        -1.1285    0.2356    2.5840 O.3       1 ATP        -0.3865
     17 C3'         1.0324    0.7610    1.7344 C.3       1 ATP         0.0901
     18 O3'         1.9175    0.2377    2.7247 O.3       1 ATP        -0.5889
     19 C2'         0.4468   -0.3802    0.9263 C.3       1 ATP         0.0574
     20 O2'         1.3993   -1.3703    0.5961 O.3       1 ATP        -0.5923
     21 C1'        -0.6159   -0.9100    1.8769 C.3       1 ATP         0.2452
     22 N9         -1.7127   -1.6108    1.2130 N.pl3     1 ATP        -0.1834
     23 C8         -2.8662   -1.0361    0.7388 C.ar      1 ATP         0.4338
     24 N7         -3.6774   -1.9166    0.1867 N.2       1 ATP        -0.6101
     25 C5         -3.0159   -3.1045    0.3122 C.ar      1 ATP         0.2154
     26 C6         -3.4377   -4.4169   -0.1199 C.ar      1 ATP         0.6130
     27 N6         -4.5720   -4.5691   -0.7080 N.2       1 ATP        -0.8165
     28 N1         -2.4600   -5.3463    0.2071 N.pl3     1 ATP        -0.8617
     29 C2         -1.2595   -5.0554    0.8515 C.ar      1 ATP         0.6151
     30 N3         -0.8555   -3.8803    1.2516 N.2       1 ATP        -0.5797
     31 C4         -1.7946   -2.9457    0.9448 C.ar      1 ATP         0.0328
     32 HOG3       -7.1357    4.5392   -1.7979 H         1 ATP         0.4197
     33 HOA2       -0.8196    5.8045    1.7244 H         1 ATP         0.4550
     34 H5'1       -1.4795    1.9922    0.8142 H         1 ATP         0.0431
     35 H5'2       -0.1362    3.1035    1.1868 H         1 ATP         0.0431
     36 H4'         0.0402    1.7079    3.4342 H         1 ATP         0.1325
     37 H3'         1.5907    1.4859    1.1353 H         1 ATP         0.0782
     38 HO3'        2.6839   -0.1150    2.2479 H         1 ATP         0.4062
     39 H2'        -0.0017    0.0018    0.0005 H         1 ATP         0.0689
     40 HO2'        2.0953   -0.9375    0.0709 H         1 ATP         0.4089
     41 H1'        -0.1998   -1.6319    2.6178 H         1 ATP         0.1098
     42 H8         -3.0558    0.0252    0.8256 H         1 ATP         0.0929
     43 HN62       -4.7047   -5.5592   -0.9421 H         1 ATP         0.3678
     44 H2         -0.6372   -5.9505    1.0077 H         1 ATP         0.0383
     45 H45        -2.6338   -6.3155   -0.0469 H         1 ATP         0.4286
@<TRIPOS>BOND
     1    1    2 2
     2    1    3 1
     3    1    4 1
     4    1    8 1
     5    4   32 1
     6    5    6 2
     7    5    7 1
     8    5    8 1
     9    5   12 1
    10    9   10 2
    11    9   11 1
    12    9   12 1
    13    9   13 1
    14   11   33 1
    15   13   14 1
    16   14   15 1
    17   14   34 1
    18   14   35 1
    19   15   16 1
    20   15   17 1
    21   15   36 1
    22   16   21 1
    23   17   18 1
    24   17   19 1
    25   17   37 1
    26   18   38 1
    27   19   20 1
    28   19   21 1
    29   19   39 1
    30   20   40 1
    31   21   22 1
    32   21   41 1
    33   22   23 ar
    34   22   31 ar
    35   23   24 ar
    36   23   42 1
    37   24   25 ar
    38   25   26 ar
    39   25   31 ar
    40   26   27 2
    41   26   28 ar
    42   27   43 1
    43   28   29 ar
    44   28   45 1
    45   29   30 ar
    46   29   44 1
    47   30   31 ar
@<TRIPOS>SUBSTRUCTURE
     1 ATP         1 GROUP 0 A     ****
@<TRIPOS>MOLECULE
[[[3,4-dihydroxy-5-(6-imino-1~{H}-purin-9-yl)tetrahydrofuran-2-yl]methoxy-hydroxy-phosphoryl]oxy-oxido-phosphoryl] hydrogen phosphate
   45    47     1     0     0
SMALL
USER_CHARGES

@<TRIPOS>ATOM
      1 PG         -4.8793    4.6379    0.1555 P.3       1 ATP         1.5414
      2 O1G        -4.2222    3.8633    1.2762 O.co2     1 ATP        -0.8562
      3 O2G        -5.4003    3.9320   -1.0764 O.co2     1 ATP        -0.8562
      4 O3G        -6.0857    5.5395    0.7864 O.3       1 ATP        -0.7907
      5 PB         -2.4287    5.7938   -1.0365 P.3       1 ATP         1.6574
      6 O1B        -2.5446    4.9477   -2.2849 O.co2     1 ATP        -0.8530
      7 O2B        -1.8633    7.1955   -1.0940 O.co2     1 ATP        -0.8530
      8 O3B        -3.8863    5.8463   -0.3054 O.3       1 ATP        -0.8003
      9 PA         -0.0705    4.4476    0.1413 P.3       1 ATP         1.7415
     10 O1A         0.9358    5.5605    0.0915 O.2       1 ATP        -0.8661
     11 O2A         0.0245    3.4081   -1.0950 O.3       1 ATP        -0.8077
     12 O3A        -1.6095    4.9430    0.0898 O.3       1 ATP        -0.7685
     13 O5'         0.0171    3.5129    1.4593 O.3       1 ATP        -0.5590
     14 C5'        -0.8811    2.4285    1.6206 C.3       1 ATP         0.1960
     15 C4'        -0.1994    1.3333    2.4288 C.3       1 ATP         0.0976
     16 O4'        -1.1285    0.2356    2.5840 O.3       1 ATP        -0.3865
     17 C3'         1.0324    0.7610    1.7344 C.3       1 ATP         0.0901
     18 O3'         1.9175    0.2377    2.7247 O.3       1 ATP        -0.5889
     19 C2'         0.4468   -0.3802    0.9263 C.3       1 ATP         0.0574
     20 O2'         1.3993   -1.3703    0.5961 O.3       1 ATP        -0.5923
     21 C1'        -0.6159   -0.9100    1.8769 C.3       1 ATP         0.2452
     22 N9         -1.7127   -1.6108    1.2130 N.pl3     1 ATP        -0.1834
     23 C8         -1.7690   -2.9583    0.9549 C.ar      1 ATP         0.4338
     24 N7         -2.8827   -3.3076    0.3418 N.2       1 ATP        -0.6101
     25 C5         -3.5683   -2.1351    0.2017 C.ar      1 ATP         0.2154
     26 C6         -4.8617   -1.9185   -0.4044 C.ar      1 ATP         0.6130
     27 N6         -5.5166   -2.9094   -0.8993 N.2       1 ATP        -0.8165
     28 N1         -5.1837   -0.5701   -0.3344 N.pl3     1 ATP        -0.8617
     29 C2         -4.3821    0.4180    0.2330 C.ar      1 ATP         0.6151
     30 N3         -3.2117    0.2488    0.7860 N.2       1 ATP        -0.5797
     31 C4         -2.8672   -1.0657    0.7327 C.ar      1 ATP         0.0328
     32 HOG3       -6.6124    6.1037    0.1808 H         1 ATP         0.4197
     33 HOA2        0.8591    2.9119   -1.2342 H         1 ATP         0.4550
     34 H5'1       -1.7775    2.7843    2.1389 H         1 ATP         0.0431
     35 H5'2       -1.1658    2.0534    0.6322 H         1 ATP         0.0431
     36 H4'         0.0402    1.7079    3.4342 H         1 ATP         0.1325
     37 H3'         1.5907    1.4859    1.1353 H         1 ATP         0.0782
     38 HO3'        2.6839   -0.1150    2.2479 H         1 ATP         0.4062
     39 H2'        -0.0017    0.0018    0.0005 H         1 ATP         0.0689
     40 HO2'        2.0953   -0.9375    0.0709 H         1 ATP         0.4089
     41 H1'        -0.1998   -1.6319    2.6178 H         1 ATP         0.1098
     42 H8         -0.9697   -3.6300    1.2371 H         1 ATP         0.0929
     43 HN62       -6.4060   -2.5723   -1.2840 H         1 ATP         0.3678
     44 H2         -4.8409    1.4176    0.1757 H         1 ATP         0.0383
     45 H45        -6.0768   -0.2826   -0.7263 H         1 ATP         0.4286
@<TRIPOS>BOND
     1    1    2 2
     2    1    3 1
     3    1    4 1
     4    1    8 1
     5    4   32 1
     6    5    6 2
     7    5    7 1
     8    5    8 1
     9    5   12 1
    10    9   10 2
    11    9   11 1
    12    9   12 1
    13    9   13 1
    14   11   33 1
    15   13   14 1
    16   14   15 1
    17   14   34 1
    18   14   35 1
    19   15   16 1
    20   15   17 1
    21   15   36 1
    22   16   21 1
    23   17   18 1
    24   17   19 1
    25   17   37 1
    26   18   38 1
    27   19   20 1
    28   19   21 1
    29   19   39 1
    30   20   40 1
    31   21   22 1
    32   21   41 1
    33   22   23 ar
    34   22   31 ar
    35   23   24 ar
    36   23   42 1
    37   24   25 ar
    38   25   26 ar
    39   25   31 ar
    40   26   27 2
    41   26   28 ar
    42   27   43 1
    43   28   29 ar
    44   28   45 1
    45   29   30 ar
    46   29   44 1
    47   30   31 ar
@<TRIPOS>SUBSTRUCTURE
     1 ATP         1 GROUP 0 A     ****
@<TRIPOS>MOLECULE
[[[3,4-dihydroxy-5-(6-imino-1~{H}-purin-9-yl)tetrahydrofuran-2-yl]methoxy-hydroxy-phosphoryl]oxy-oxido-phosphoryl] hydrogen phosphate
   45    47     1     0     0
SMALL
USER_CHARGES

@<TRIPOS>ATOM
      1 PG         -4.5436    3.8470   -1.4090 P.3       1 ATP         1.5414
      2 O1G        -3.9683    4.2251   -2.7557 O.co2     1 ATP        -0.8562
      3 O2G        -5.9255    4.3038   -0.9978 O.co2     1 ATP        -0.8562
      4 O3G        -4.4642    2.2240   -1.2485 O.3       1 ATP        -0.7907
      5 PB         -2.9754    5.7307    0.2508 P.3       1 ATP         1.6574
      6 O1B        -2.1785    6.3692   -0.8650 O.co2     1 ATP        -0.8530
      7 O2B        -4.1399    6.4537    0.8902 O.co2     1 ATP        -0.8530
      8 O3B        -3.4797    4.2603   -0.2445 O.3       1 ATP        -0.8003
      9 PA         -2.1760    4.4068    2.7745 P.3       1 ATP         1.7415
     10 O1A        -3.4497    4.7369    3.4974 O.2       1 ATP        -0.8661
     11 O2A        -0.8322    4.6898    3.6302 O.3       1 ATP        -0.8077
     12 O3A        -1.9401    5.2633    1.4227 O.3       1 ATP        -0.7685
     13 O5'        -2.0397    2.8622    2.3122 O.3       1 ATP        -0.5590
     14 C5'        -0.8811    2.4285    1.6206 C.3       1 ATP         0.1960
     15 C4'        -0.1994    1.3333    2.4288 C.3       1 ATP         0.0976
     16 O4'        -1.1285    0.2356    2.5840 O.3       1 ATP        -0.3865
     17 C3'         1.0324    0.7610    1.7344 C.3       1 ATP         0.0901
     18 O3'         1.9175    0.2377    2.7247 O.3       1 ATP        -0.5889
     19 C2'         0.4468   -0.3802    0.9263 C.3       1 ATP         0.0574
     20 O2'         1.3993   -1.3703    0.5961 O.3       1 ATP        -0.5923
     21 C1'        -0.6159   -0.9100    1.8769 C.3       1 ATP         0.2452
     22 N9         -1.7127   -1.6108    1.2130 N.pl3     1 ATP        -0.1834
     23 C8         -2.8662   -1.0361    0.7388 C.ar      1 ATP         0.4338
     24 N7         -3.6774   -1.9166    0.1867 N.2       1 ATP        -0.6101
     25 C5         -3.0159   -3.1045    0.3122 C.ar      1 ATP         0.2154
     26 C6         -3.4377   -4.4169   -0.1199 C.ar      1 ATP         0.6130
     27 N6         -4.5720   -4.5691   -0.7080 N.2       1 ATP        -0.8165
     28 N1         -2.4600   -5.3463    0.2071 N.pl3     1 ATP        -0.8617
     29 C2         -1.2595   -5.0554    0.8515 C.ar      1 ATP         0.6151
     30 N3         -0.8555   -3.8803    1.2516 N.2       1 ATP        -0.5797
     31 C4         -1.7946   -2.9457    0.9448 C.ar      1 ATP         0.0328
     32 HOG3       -4.8016    1.8199   -0.4207 H         1 ATP         0.4197
     33 HOA2       -0.7033    4.2178    4.4804 H         1 ATP         0.4550
     34 H5'1       -1.1761    2.0499    0.6365 H         1 ATP         0.0431
     35 H5'2       -0.2073    3.2811    1.4874 H         1 ATP         0.0431
     36 H4'         0.0402    1.7079    3.4342 H         1 ATP         0.1325
     37 H3'         1.5907    1.4859    1.1353 H         1 ATP         0.0782
     38 HO3'        2.6839   -0.1150    2.2479 H         1 ATP         0.4062
     39 H2'        -0.0017    0.0018    0.0005 H         1 ATP         0.0689
     40 HO2'        2.0953   -0.9375    0.0709 H         1 ATP         0.4089
     41 H1'        -0.1998   -1.6319    2.6178 H         1 ATP         0.1098
     42 H8         -3.0558    0.0252    0.8256 H         1 ATP         0.0929
     43 HN62       -4.7047   -5.5592   -0.9421 H         1 ATP         0.3678
     44 H2         -0.6372   -5.9505    1.0077 H         1 ATP         0.0383
     45 H45        -2.6338   -6.3155   -0.0469 H         1 ATP         0.4286
@<TRIPOS>BOND
     1    1    2 2
     2    1    3 1
     3    1    4 1
     4    1    8 1
     5    4   32 1
     6    5    6 2
     7    5    7 1
     8    5    8 1
     9    5   12 1
    10    9   10 2
    11    9   11 1
    12    9   12 1
    13    9   13 1
    14   11   33 1
    15   13   14 1
    16   14   15 1
    17   14   34 1
    18   14   35 1
    19   15   16 1
    20   15   17 1
    21   15   36 1
    22   16   21 1
    23   17   18 1
    24   17   19 1
    25   17   37 1
    26   18   38 1
    27   19   20 1
    28   19   21 1
    29   19   39 1
    30   20   40 1
    31   21   22 1
    32   21   41 1
    33   22   23 ar
    34   22   31 ar
    35   23   24 ar
    36   23   42 1
    37   24   25 ar
    38   25   26 ar
    39   25   31 ar
    40   26   27 2
    41   26   28 ar
    42   27   43 1
    43   28   29 ar
    44   28   45 1
    45   29   30 ar
    46   29   44 1
    47   30   31 ar
@<TRIPOS>SUBSTRUCTURE
     1 ATP         1 GROUP 0 A     ****
@<TRIPOS>MOLECULE
[[[3,4-dihydroxy-5-(6-imino-1~{H}-purin-9-yl)tetrahydrofuran-2-yl]methoxy-hydroxy-phosphoryl]oxy-oxido-phosphoryl] hydrogen phosphate
   45    47     1     0     0
SMALL
USER_CHARGES

@<TRIPOS>ATOM
      1 PG         -3.5084    3.8444   -2.5301 P.3       1 ATP         1.5414
      2 O1G        -5.0081    3.8024   -2.7217 O.co2     1 ATP        -0.8562
      3 O2G        -2.7800    2.7096   -1.8453 O.co2     1 ATP        -0.8562
      4 O3G        -2.8078    4.1105   -3.9808 O.3       1 ATP        -0.7907
      5 PB         -3.4337    5.7888   -0.2995 P.3       1 ATP         1.6574
      6 O1B        -2.6822    7.0826   -0.0775 O.co2     1 ATP        -0.8530
      7 O2B        -4.9256    5.7034   -0.0657 O.co2     1 ATP        -0.8530
      8 O3B        -3.1071    5.2478   -1.8036 O.3       1 ATP        -0.8003
      9 PA         -2.5525    4.3888    2.1550 P.3       1 ATP         1.7415
     10 O1A        -3.7892    4.7207    2.9387 O.2       1 ATP        -0.8661
     11 O2A        -1.2618    5.2871    2.5359 O.3       1 ATP        -0.8077
     12 O3A        -2.6994    4.6113    0.5595 O.3       1 ATP        -0.7685
     13 O5'        -2.0397    2.8622    2.3122 O.3       1 ATP        -0.5590
     14 C5'        -0.8811    2.4285    1.6206 C.3       1 ATP         0.1960
     15 C4'        -0.1994    1.3333    2.4288 C.3       1 ATP         0.0976
     16 O4'        -1.1285    0.2356    2.5840 O.3       1 ATP        -0.3865
     17 C3'         1.0324    0.7610    1.7344 C.3       1 ATP         0.0901
     18 O3'         1.9175    0.2377    2.7247 O.3       1 ATP        -0.5889
     19 C2'         0.4468   -0.3802    0.9263 C.3       1 ATP         0.0574
     20 O2'         1.3993   -1.3703    0.5961 O.3       1 ATP        -0.5923
     21 C1'        -0.6159   -0.9100    1.8769 C.3       1 ATP         0.2452
     22 N9         -1.7127   -1.6108    1.2130 N.pl3     1 ATP        -0.1834
     23 C8         -1.7690   -2.9583    0.9549 C.ar      1 ATP         0.4338
     24 N7         -2.8827   -3.3076    0.3418 N.2       1 ATP        -0.6101
     25 C5         -3.5683   -2.1351    0.2017 C.ar      1 ATP         0.2154
     26 C6         -4.8617   -1.9185   -0.4044 C.ar      1 ATP         0.6130
     27 N6         -5.5166   -2.9094   -0.8993 N.2       1 ATP        -0.8165
     28 N1         -5.1837   -0.5701   -0.3344 N.pl3     1 ATP        -0.8617
     29 C2         -4.3821    0.4180    0.2330 C.ar      1 ATP         0.6151
     30 N3         -3.2117    0.2488    0.7860 N.2       1 ATP        -0.5797
     31 C4         -2.8672   -1.0657    0.7327 C.ar      1 ATP         0.0328
     32 HOG3       -1.8292    4.1647   -4.0235 H         1 ATP         0.4197
     33 HOA2       -0.9230    5.2641    3.4562 H         1 ATP         0.4550
     34 H5'1       -1.1761    2.0499    0.6365 H         1 ATP         0.0431
     35 H5'2       -0.2073    3.2811    1.4874 H         1 ATP         0.0431
     36 H4'         0.0402    1.7079    3.4342 H         1 ATP         0.1325
     37 H3'         1.5907    1.4859    1.1353 H         1 ATP         0.0782
     38 HO3'        2.6839   -0.1150    2.2479 H         1 ATP         0.4062
     39 H2'        -0.0017    0.0018    0.0005 H         1 ATP         0.0689
     40 HO2'        0.9369   -2.0558    0.0825 H         1 ATP         0.4089
     41 H1'        -0.1998   -1.6319    2.6178 H         1 ATP         0.1098
     42 H8         -0.9697   -3.6300    1.2371 H         1 ATP         0.0929
     43 HN62       -6.4060   -2.5723   -1.2840 H         1 ATP         0.3678
     44 H2         -4.8409    1.4176    0.1757 H         1 ATP         0.0383
     45 H45        -6.0768   -0.2826   -0.7263 H         1 ATP         0.4286
@<TRIPOS>BOND
     1    1    2 2
     2    1    3 1
     3    1    4 1
     4    1    8 1
     5    4   32 1
     6    5    6 2
     7    5    7 1
     8    5    8 1
     9    5   12 1
    10    9   10 2
    11    9   11 1
    12    9   12 1
    13    9   13 1
    14   11   33 1
    15   13   14 1
    16   14   15 1
    17   14   34 1
    18   14   35 1
    19   15   16 1
    20   15   17 1
    21   15   36 1
    22   16   21 1
    23   17   18 1
    24   17   19 1
    25   17   37 1
    26   18   38 1
    27   19   20 1
    28   19   21 1
    29   19   39 1
    30   20   40 1
    31   21   22 1
    32   21   41 1
    33   22   23 ar
    34   22   31 ar
    35   23   24 ar
    36   23   42 1
    37   24   25 ar
    38   25   26 ar
    39   25   31 ar
    40   26   27 2
    41   26   28 ar
    42   27   43 1
    43   28   29 ar
    44   28   45 1
    45   29   30 ar
    46   29   44 1
    47   30   31 ar
@<TRIPOS>SUBSTRUCTURE
     1 ATP         1 GROUP 0 A     ****
@<TRIPOS>MOLECULE
[[[3,4-dihydroxy-5-(6-imino-1~{H}-purin-9-yl)tetrahydrofuran-2-yl]methoxy-hydroxy-phosphoryl]oxy-oxido-phosphoryl] hydrogen phosphate
   45    47     1     0     0
SMALL
USER_CHARGES

@<TRIPOS>ATOM
      1 PG         -0.3313    6.3051   -1.2447 P.3       1 ATP         1.5414
      2 O1G        -0.2297    5.2219   -2.2953 O.co2     1 ATP        -0.8562
      3 O2G         0.5614    6.2906   -0.0239 O.co2     1 ATP        -0.8562
      4 O3G        -0.1823    7.7557   -1.9795 O.3       1 ATP        -0.7907
      5 PB         -2.8249    5.3825    0.0564 P.3       1 ATP         1.6574
      6 O1B        -4.1326    6.0648    0.3912 O.co2     1 ATP        -0.8530
      7 O2B        -2.8011    4.0487   -0.6565 O.co2     1 ATP        -0.8530
      8 O3B        -1.8844    6.4326   -0.7649 O.3       1 ATP        -0.8003
      9 PA         -2.1760    4.4068    2.7745 P.3       1 ATP         1.7415
     10 O1A        -3.4497    4.7369    3.4974 O.2       1 ATP        -0.8661
     11 O2A        -0.8322    4.6898    3.6302 O.3       1 ATP        -0.8077
     12 O3A        -1.9401    5.2633    1.4227 O.3       1 ATP        -0.7685
     13 O5'        -2.0397    2.8622    2.3122 O.3       1 ATP        -0.5590
     14 C5'        -0.8811    2.4285    1.6206 C.3       1 ATP         0.1960
     15 C4'        -0.1994    1.3333    2.4288 C.3       1 ATP         0.0976
     16 O4'        -1.1285    0.2356    2.5840 O.3       1 ATP        -0.3865
     17 C3'         1.0324    0.7610    1.7344 C.3       1 ATP         0.0901
     18 O3'         1.9175    0.2377    2.7247 O.3       1 ATP        -0.5889
     19 C2'         0.4468   -0.3802    0.9263 C.3       1 ATP         0.0574
     20 O2'         1.3993   -1.3703    0.5961 O.3       1 ATP        -0.5923
     21 C1'        -0.6159   -0.9100    1.8769 C.3       1 ATP         0.2452
     22 N9         -1.7127   -1.6108    1.2130 N.pl3     1 ATP        -0.1834
     23 C8         -1.7690   -2.9583    0.9549 C.ar      1 ATP         0.4338
     24 N7         -2.8827   -3.3076    0.3418 N.2       1 ATP        -0.6101
     25 C5         -3.5683   -2.1351    0.2017 C.ar      1 ATP         0.2154
     26 C6         -4.8617   -1.9185   -0.4044 C.ar      1 ATP         0.6130
     27 N6         -5.5166   -2.9094   -0.8993 N.2       1 ATP        -0.8165
     28 N1         -5.1837   -0.5701   -0.3344 N.pl3     1 ATP        -0.8617
     29 C2         -4.3821    0.4180    0.2330 C.ar      1 ATP         0.6151
     30 N3         -3.2117    0.2488    0.7860 N.2       1 ATP        -0.5797
     31 C4         -2.8672   -1.0657    0.7327 C.ar      1 ATP         0.0328
     32 HOG3       -0.2272    8.5653   -1.4274 H         1 ATP         0.4197
     33 HOA2       -0.7033    4.2178    4.4804 H         1 ATP         0.4550
     34 H5'1       -1.1761    2.0499    0.6365 H         1 ATP         0.0431
     35 H5'2       -0.2073    3.2811    1.4874 H         1 ATP         0.0431
     36 H4'         0.0402    1.7079    3.4342 H         1 ATP         0.1325
     37 H3'         1.5907    1.4859    1.1353 H         1 ATP         0.0782
     38 HO3'        2.6839   -0.1150    2.2479 H         1 ATP         0.4062
     39 H2'        -0.0017    0.0018    0.0005 H         1 ATP         0.0689
     40 HO2'        2.0953   -0.9375    0.0709 H         1 ATP         0.4089
     41 H1'        -0.1998   -1.6319    2.6178 H         1 ATP         0.1098
     42 H8         -0.9697   -3.6300    1.2371 H         1 ATP         0.0929
     43 HN62       -6.4060   -2.5723   -1.2840 H         1 ATP         0.3678
     44 H2         -4.8409    1.4176    0.1757 H         1 ATP         0.0383
     45 H45        -6.0768   -0.2826   -0.7263 H         1 ATP         0.4286
@<TRIPOS>BOND
     1    1    2 2
     2    1    3 1
     3    1    4 1
     4    1    8 1
     5    4   32 1
     6    5    6 2
     7    5    7 1
     8    5    8 1
     9    5   12 1
    10    9   10 2
    11    9   11 1
    12    9   12 1
    13    9   13 1
    14   11   33 1
    15   13   14 1
    16   14   15 1
    17   14   34 1
    18   14   35 1
    19   15   16 1
    20   15   17 1
    21   15   36 1
    22   16   21 1
    23   17   18 1
    24   17   19 1
    25   17   37 1
    26   18   38 1
    27   19   20 1
    28   19   21 1
    29   19   39 1
    30   20   40 1
    31   21   22 1
    32   21   41 1
    33   22   23 ar
    34   22   31 ar
    35   23   24 ar
    36   23   42 1
    37   24   25 ar
    38   25   26 ar
    39   25   31 ar
    40   26   27 2
    41   26   28 ar
    42   27   43 1
    43   28   29 ar
    44   28   45 1
    45   29   30 ar
    46   29   44 1
    47   30   31 ar
@<TRIPOS>SUBSTRUCTURE
     1 ATP         1 GROUP 0 A     ****
@<TRIPOS>MOLECULE
[[[3,4-dihydroxy-5-(6-imino-1~{H}-purin-9-yl)tetrahydrofuran-2-yl]methoxy-hydroxy-phosphoryl]oxy-oxido-phosphoryl] hydrogen phosphate
   45    47     1     0     0
SMALL
USER_CHARGES

@<TRIPOS>ATOM
      1 PG         -0.4237    6.1706   -1.3461 P.3       1 ATP         1.5414
      2 O1G        -0.5557    4.6671   -1.2470 O.co2     1 ATP        -0.8562
      3 O2G         0.8946    6.8558   -1.0633 O.co2     1 ATP        -0.8562
      4 O3G        -0.9478    6.6410   -2.8193 O.3       1 ATP        -0.7907
      5 PB         -1.8026    6.8710    1.1778 P.3       1 ATP         1.6574
      6 O1B        -0.5253    7.3473    1.8331 O.co2     1 ATP        -0.8530
      7 O2B        -3.1301    7.5258    1.4890 O.co2     1 ATP        -0.8530
      8 O3B        -1.5877    6.8646   -0.4394 O.3       1 ATP        -0.8003
      9 PA         -2.1760    4.4068    2.7745 P.3       1 ATP         1.7415
     10 O1A        -3.4497    4.7369    3.4974 O.2       1 ATP        -0.8661
     11 O2A        -0.8322    4.6898    3.6302 O.3       1 ATP        -0.8077
     12 O3A        -1.9401    5.2633    1.4227 O.3       1 ATP        -0.7685
     13 O5'        -2.0397    2.8622    2.3122 O.3       1 ATP        -0.5590
     14 C5'        -0.8811    2.4285    1.6206 C.3       1 ATP         0.1960
     15 C4'        -0.1994    1.3333    2.4288 C.3       1 ATP         0.0976
     16 O4'        -1.1285    0.2356    2.5840 O.3       1 ATP        -0.3865
     17 C3'         1.0324    0.7610    1.7344 C.3       1 ATP         0.0901
     18 O3'         1.9175    0.2377    2.7247 O.3       1 ATP        -0.5889
     19 C2'         0.4468   -0.3802    0.9263 C.3       1 ATP         0.0574
     20 O2'         1.3993   -1.3703    0.5961 O.3       1 ATP        -0.5923
     21 C1'        -0.6159   -0.9100    1.8769 C.3       1 ATP         0.2452
     22 N9         -1.7127   -1.6108    1.2130 N.pl3     1 ATP        -0.1834
     23 C8         -2.8662   -1.0361    0.7388 C.ar      1 ATP         0.4338
     24 N7         -3.6774   -1.9166    0.1867 N.2       1 ATP        -0.6101
     25 C5         -3.0159   -3.1045    0.3122 C.ar      1 ATP         0.2154
     26 C6         -3.4377   -4.4169   -0.1199 C.ar      1 ATP         0.6130
     27 N6         -4.5720   -4.5691   -0.7080 N.2       1 ATP        -0.8165
     28 N1         -2.4600   -5.3463    0.2071 N.pl3     1 ATP        -0.8617
     29 C2         -1.2595   -5.0554    0.8515 C.ar      1 ATP         0.6151
     30 N3         -0.8555   -3.8803    1.2516 N.2       1 ATP        -0.5797
     31 C4         -1.7946   -2.9457    0.9448 C.ar      1 ATP         0.0328
     32 HOG3       -0.9255    7.5968   -3.0393 H         1 ATP         0.4197
     33 HOA2       -0.7033    4.2178    4.4804 H         1 ATP         0.4550
     34 H5'1       -1.1761    2.0499    0.6365 H         1 ATP         0.0431
     35 H5'2       -0.2073    3.2811    1.4874 H         1 ATP         0.0431
     36 H4'         0.0402    1.7079    3.4342 H         1 ATP         0.1325
     37 H3'         1.5907    1.4859    1.1353 H         1 ATP         0.0782
     38 HO3'        2.6839   -0.1150    2.2479 H         1 ATP         0.4062
     39 H2'        -0.0017    0.0018    0.0005 H         1 ATP         0.0689
     40 HO2'        2.0953   -0.9375    0.0709 H         1 ATP         0.4089
     41 H1'        -0.1998   -1.6319    2.6178 H         1 ATP         0.1098
     42 H8         -3.0558    0.0252    0.8256 H         1 ATP         0.0929
     43 HN62       -4.7047   -5.5592   -0.9421 H         1 ATP         0.3678
     44 H2         -0.6372   -5.9505    1.0077 H         1 ATP         0.0383
     45 H45        -2.6338   -6.3155   -0.0469 H         1 ATP         0.4286
@<TRIPOS>BOND
     1    1    2 2
     2    1    3 1
     3    1    4 1
     4    1    8 1
     5    4   32 1
     6    5    6 2
     7    5    7 1
     8    5    8 1
     9    5   12 1
    10    9   10 2
    11    9   11 1
    12    9   12 1
    13    9   13 1
    14   11   33 1
    15   13   14 1
    16   14   15 1
    17   14   34 1
    18   14   35 1
    19   15   16 1
    20   15   17 1
    21   15   36 1
    22   16   21 1
    23   17   18 1
    24   17   19 1
    25   17   37 1
    26   18   38 1
    27   19   20 1
    28   19   21 1
    29   19   39 1
    30   20   40 1
    31   21   22 1
    32   21   41 1
    33   22   23 ar
    34   22   31 ar
    35   23   24 ar
    36   23   42 1
    37   24   25 ar
    38   25   26 ar
    39   25   31 ar
    40   26   27 2
    41   26   28 ar
    42   27   43 1
    43   28   29 ar
    44   28   45 1
    45   29   30 ar
    46   29   44 1
    47   30   31 ar
@<TRIPOS>SUBSTRUCTURE
     1 ATP         1 GROUP 0 A     ****
@<TRIPOS>MOLECULE
[[[3,4-dihydroxy-5-(6-imino-1~{H}-purin-9-yl)tetrahydrofuran-2-yl]methoxy-hydroxy-phosphoryl]oxy-oxido-phosphoryl] hydrogen phosphate
   45    47     1     0     0
SMALL
USER_CHARGES

@<TRIPOS>ATOM
      1 PG         -7.8533    3.6204    1.1835 P.3       1 ATP         1.5414
      2 O1G        -8.6143    2.3219    1.0340 O.co2     1 ATP        -0.8562
      3 O2G        -8.0372    4.7480    0.1925 O.co2     1 ATP        -0.8562
      4 O3G        -8.1124    4.2030    2.6867 O.3       1 ATP        -0.7907
      5 PB         -5.2177    2.6632    0.2351 P.3       1 ATP         1.6574
      6 O1B        -5.6108    1.2294   -0.0435 O.co2     1 ATP        -0.8530
      7 O2B        -5.0364    3.6553   -0.8921 O.co2     1 ATP        -0.8530
      8 O3B        -6.2628    3.2886    1.3206 O.3       1 ATP        -0.8003
      9 PA         -3.0705    3.8640    1.8808 P.3       1 ATP         1.7415
     10 O1A        -3.8861    4.6226    2.8874 O.2       1 ATP        -0.8661
     11 O2A        -2.5428    4.7593    0.6407 O.3       1 ATP        -0.8077
     12 O3A        -3.8686    2.6596    1.1535 O.3       1 ATP        -0.7685
     13 O5'        -1.7334    3.1724    2.4743 O.3       1 ATP        -0.5590
     14 C5'        -0.8811    2.4285    1.6206 C.3       1 ATP         0.1960
     15 C4'        -0.1994    1.3333    2.4288 C.3       1 ATP         0.0976
     16 O4'        -1.1285    0.2356    2.5840 O.3       1 ATP        -0.3865
     17 C3'         1.0324    0.7610    1.7344 C.3       1 ATP         0.0901
     18 O3'         1.9175    0.2377    2.7247 O.3       1 ATP        -0.5889
     19 C2'         0.4468   -0.3802    0.9263 C.3       1 ATP         0.0574
     20 O2'         1.3993   -1.3703    0.5961 O.3       1 ATP        -0.5923
     21 C1'        -0.6159   -0.9100    1.8769 C.3       1 ATP         0.2452
     22 N9         -1.7127   -1.6108    1.2130 N.pl3     1 ATP        -0.1834
     23 C8         -2.8662   -1.0361    0.7388 C.ar      1 ATP         0.4338
     24 N7         -3.6774   -1.9166    0.1867 N.2       1 ATP        -0.6101
     25 C5         -3.0159   -3.1045    0.3122 C.ar      1 ATP         0.2154
     26 C6         -3.4377   -4.4169   -0.1199 C.ar      1 ATP         0.6130
     27 N6         -4.5720   -4.5691   -0.7080 N.2       1 ATP        -0.8165
     28 N1         -2.4600   -5.3463    0.2071 N.pl3     1 ATP        -0.8617
     29 C2         -1.2595   -5.0554    0.8515 C.ar      1 ATP         0.6151
     30 N3         -0.8555   -3.8803    1.2516 N.2       1 ATP        -0.5797
     31 C4         -1.7946   -2.9457    0.9448 C.ar      1 ATP         0.0328
     32 HOG3       -7.6827    5.0477    2.9403 H         1 ATP         0.4197
     33 HOA2       -3.1996    5.2056    0.0648 H         1 ATP         0.4550
     34 H5'1       -1.4795    1.9922    0.8142 H         1 ATP         0.0431
     35 H5'2       -0.1362    3.1035    1.1868 H         1 ATP         0.0431
     36 H4'         0.0402    1.7079    3.4342 H         1 ATP         0.1325
     37 H3'         1.5907    1.4859    1.1353 H         1 ATP         0.0782
     38 HO3'        2.1521    0.9800    3.3017 H         1 ATP         0.4062
     39 H2'        -0.0017    0.0018    0.0005 H         1 ATP         0.0689
     40 HO2'        1.7495   -1.7243    1.4324 H         1 ATP         0.4089
     41 H1'        -0.1998   -1.6319    2.6178 H         1 ATP         0.1098
     42 H8         -3.0558    0.0252    0.8256 H         1 ATP         0.0929
     43 HN62       -4.7047   -5.5592   -0.9421 H         1 ATP         0.3678
     44 H2         -0.6372   -5.9505    1.0077 H         1 ATP         0.0383
     45 H45        -2.6338   -6.3155   -0.0469 H         1 ATP         0.4286
@<TRIPOS>BOND
     1    1    2 2
     2    1    3 1
     3    1    4 1
     4    1    8 1
     5    4   32 1
     6    5    6 2
     7    5    7 1
     8    5    8 1
     9    5   12 1
    10    9   10 2
    11    9   11 1
    12    9   12 1
    13    9   13 1
    14   11   33 1
    15   13   14 1
    16   14   15 1
    17   14   34 1
    18   14   35 1
    19   15   16 1
    20   15   17 1
    21   15   36 1
    22   16   21 1
    23   17   18 1
    24   17   19 1
    25   17   37 1
    26   18   38 1
    27   19   20 1
    28   19   21 1
    29   19   39 1
    30   20   40 1
    31   21   22 1
    32   21   41 1
    33   22   23 ar
    34   22   31 ar
    35   23   24 ar
    36   23   42 1
    37   24   25 ar
    38   25   26 ar
    39   25   31 ar
    40   26   27 2
    41   26   28 ar
    42   27   43 1
    43   28   29 ar
    44   28   45 1
    45   29   30 ar
    46   29   44 1
    47   30   31 ar
@<TRIPOS>SUBSTRUCTURE
     1 ATP         1 GROUP 0 A     ****
@<TRIPOS>MOLECULE
[[[3,4-dihydroxy-5-(6-imino-1~{H}-purin-9-yl)tetrahydrofuran-2-yl]methoxy-hydroxy-phosphoryl]oxy-oxido-phosphoryl] hydrogen phosphate
   45    47     1     0     0
SMALL
USER_CHARGES

@<TRIPOS>ATOM
      1 PG         -2.1921    9.3381    0.7480 P.3       1 ATP         1.5414
      2 O1G        -3.1149    9.8531    1.8300 O.co2     1 ATP        -0.8562
      3 O2G        -2.5238    9.5333   -0.7147 O.co2     1 ATP        -0.8562
      4 O3G        -0.6930    9.9241    1.0229 O.3       1 ATP        -0.7907
      5 PB         -2.8854    6.4674    0.9490 P.3       1 ATP         1.6574
      6 O1B        -3.9029    6.5818    2.0622 O.co2     1 ATP        -0.8530
      7 O2B        -3.3185    6.2635   -0.4857 O.co2     1 ATP        -0.8530
      8 O3B        -1.8905    7.7586    1.0176 O.3       1 ATP        -0.8003
      9 PA         -0.4410    4.8279    0.6352 P.3       1 ATP         1.7415
     10 O1A         0.6017    5.9035    0.5369 O.2       1 ATP        -0.8661
     11 O2A        -0.9414    4.2532   -0.7921 O.3       1 ATP        -0.8077
     12 O3A        -1.8155    5.3004    1.3453 O.3       1 ATP        -0.7685
     13 O5'         0.0171    3.5129    1.4593 O.3       1 ATP        -0.5590
     14 C5'        -0.8811    2.4285    1.6206 C.3       1 ATP         0.1960
     15 C4'        -0.1994    1.3333    2.4288 C.3       1 ATP         0.0976
     16 O4'        -1.1285    0.2356    2.5840 O.3       1 ATP        -0.3865
     17 C3'         1.0324    0.7610    1.7344 C.3       1 ATP         0.0901
     18 O3'         1.9175    0.2377    2.7247 O.3       1 ATP        -0.5889
     19 C2'         0.4468   -0.3802    0.9263 C.3       1 ATP         0.0574
     20 O2'         1.3993   -1.3703    0.5961 O.3       1 ATP        -0.5923
     21 C1'        -0.6159   -0.9100    1.8769 C.3       1 ATP         0.2452
     22 N9         -1.7127   -1.6108    1.2130 N.pl3     1 ATP        -0.1834
     23 C8         -2.8662   -1.0361    0.7388 C.ar      1 ATP         0.4338
     24 N7         -3.6774   -1.9166    0.1867 N.2       1 ATP        -0.6101
     25 C5         -3.0159   -3.1045    0.3122 C.ar      1 ATP         0.2154
     26 C6         -3.4377   -4.4169   -0.1199 C.ar      1 ATP         0.6130
     27 N6         -4.5720   -4.5691   -0.7080 N.2       1 ATP        -0.8165
     28 N1         -2.4600   -5.3463    0.2071 N.pl3     1 ATP        -0.8617
     29 C2         -1.2595   -5.0554    0.8515 C.ar      1 ATP         0.6151
     30 N3         -0.8555   -3.8803    1.2516 N.2       1 ATP        -0.5797
     31 C4         -1.7946   -2.9457    0.9448 C.ar      1 ATP         0.0328
     32 HOG3        0.0254    9.6781    0.4018 H         1 ATP         0.4197
     33 HOA2       -0.2861    3.8370   -1.3917 H         1 ATP         0.4550
     34 H5'1       -1.7775    2.7843    2.1389 H         1 ATP         0.0431
     35 H5'2       -1.1658    2.0534    0.6322 H         1 ATP         0.0431
     36 H4'         0.0402    1.7079    3.4342 H         1 ATP         0.1325
     37 H3'         1.5907    1.4859    1.1353 H         1 ATP         0.0782
     38 HO3'        2.6839   -0.1150    2.2479 H         1 ATP         0.4062
     39 H2'        -0.0017    0.0018    0.0005 H         1 ATP         0.0689
     40 HO2'        2.0953   -0.9375    0.0709 H         1 ATP         0.4089
     41 H1'        -0.1998   -1.6319    2.6178 H         1 ATP         0.1098
     42 H8         -3.0558    0.0252    0.8256 H         1 ATP         0.0929
     43 HN62       -4.7047   -5.5592   -0.9421 H         1 ATP         0.3678
     44 H2         -0.6372   -5.9505    1.0077 H         1 ATP         0.0383
     45 H45        -2.6338   -6.3155   -0.0469 H         1 ATP         0.4286
@<TRIPOS>BOND
     1    1    2 2
     2    1    3 1
     3    1    4 1
     4    1    8 1
     5    4   32 1
     6    5    6 2
     7    5    7 1
     8    5    8 1
     9    5   12 1
    10    9   10 2
    11    9   11 1
    12    9   12 1
    13    9   13 1
    14   11   33 1
    15   13   14 1
    16   14   15 1
    17   14   34 1
    18   14   35 1
    19   15   16 1
    20   15   17 1
    21   15   36 1
    22   16   21 1
    23   17   18 1
    24   17   19 1
    25   17   37 1
    26   18   38 1
    27   19   20 1
    28   19   21 1
    29   19   39 1
    30   20   40 1
    31   21   22 1
    32   21   41 1
    33   22   23 ar
    34   22   31 ar
    35   23   24 ar
    36   23   42 1
    37   24   25 ar
    38   25   26 ar
    39   25   31 ar
    40   26   27 2
    41   26   28 ar
    42   27   43 1
    43   28   29 ar
    44   28   45 1
    45   29   30 ar
    46   29   44 1
    47   30   31 ar
@<TRIPOS>SUBSTRUCTURE
     1 ATP         1 GROUP 0 A     ****
@<TRIPOS>MOLECULE
[[[3,4-dihydroxy-5-(6-imino-1~{H}-purin-9-yl)tetrahydrofuran-2-yl]methoxy-hydroxy-phosphoryl]oxy-oxido-phosphoryl] hydrogen phosphate
   45    47     1     0     0
SMALL
USER_CHARGES

@<TRIPOS>ATOM
      1 PG         -1.4259    7.9523   -0.3922 P.3       1 ATP         1.5414
      2 O1G        -0.5137    7.9078    0.8134 O.co2     1 ATP        -0.8562
      3 O2G        -2.6409    8.8526   -0.4151 O.co2     1 ATP        -0.8562
      4 O3G        -0.5218    8.2666   -1.7150 O.3       1 ATP        -0.7907
      5 PB         -2.8249    5.3825    0.0564 P.3       1 ATP         1.6574
      6 O1B        -4.1326    6.0648    0.3912 O.co2     1 ATP        -0.8530
      7 O2B        -2.8011    4.0487   -0.6565 O.co2     1 ATP        -0.8530
      8 O3B        -1.8844    6.4326   -0.7649 O.3       1 ATP        -0.8003
      9 PA         -2.1760    4.4068    2.7745 P.3       1 ATP         1.7415
     10 O1A        -3.4497    4.7369    3.4974 O.2       1 ATP        -0.8661
     11 O2A        -0.8322    4.6898    3.6302 O.3       1 ATP        -0.8077
     12 O3A        -1.9401    5.2633    1.4227 O.3       1 ATP        -0.7685
     13 O5'        -2.0397    2.8622    2.3122 O.3       1 ATP        -0.5590
     14 C5'        -0.8811    2.4285    1.6206 C.3       1 ATP         0.1960
     15 C4'        -0.1994    1.3333    2.4288 C.3       1 ATP         0.0976
     16 O4'        -1.1285    0.2356    2.5840 O.3       1 ATP        -0.3865
     17 C3'         1.0324    0.7610    1.7344 C.3       1 ATP         0.0901
     18 O3'         1.9175    0.2377    2.7247 O.3       1 ATP        -0.5889
     19 C2'         0.4468   -0.3802    0.9263 C.3       1 ATP         0.0574
     20 O2'         1.3993   -1.3703    0.5961 O.3       1 ATP        -0.5923
     21 C1'        -0.6159   -0.9100    1.8769 C.3       1 ATP         0.2452
     22 N9         -1.7127   -1.6108    1.2130 N.pl3     1 ATP        -0.1834
     23 C8         -2.8662   -1.0361    0.7388 C.ar      1 ATP         0.4338
     24 N7         -3.6774   -1.9166    0.1867 N.2       1 ATP        -0.6101
     25 C5         -3.0159   -3.1045    0.3122 C.ar      1 ATP         0.2154
     26 C6         -3.4377   -4.4169   -0.1199 C.ar      1 ATP         0.6130
     27 N6         -4.5720   -4.5691   -0.7080 N.2       1 ATP        -0.8165
     28 N1         -2.4600   -5.3463    0.2071 N.pl3     1 ATP        -0.8617
     29 C2         -1.2595   -5.0554    0.8515 C.ar      1 ATP         0.6151
     30 N3         -0.8555   -3.8803    1.2516 N.2       1 ATP        -0.5797
     31 C4         -1.7946   -2.9457    0.9448 C.ar      1 ATP         0.0328
     32 HOG3       -0.9722    8.3276   -2.5844 H         1 ATP         0.4197
     33 HOA2       -0.7033    4.2178    4.4804 H         1 ATP         0.4550
     34 H5'1       -1.1761    2.0499    0.6365 H         1 ATP         0.0431
     35 H5'2       -0.2073    3.2811    1.4874 H         1 ATP         0.0431
     36 H4'         0.0402    1.7079    3.4342 H         1 ATP         0.1325
     37 H3'         1.5907    1.4859    1.1353 H         1 ATP         0.0782
     38 HO3'        2.6839   -0.1150    2.2479 H         1 ATP         0.4062
     39 H2'        -0.0017    0.0018    0.0005 H         1 ATP         0.0689
     40 HO2'        2.0953   -0.9375    0.0709 H         1 ATP         0.4089
     41 H1'        -0.1998   -1.6319    2.6178 H         1 ATP         0.1098
     42 H8         -3.0558    0.0252    0.8256 H         1 ATP         0.0929
     43 HN62       -4.7047   -5.5592   -0.9421 H         1 ATP         0.3678
     44 H2         -0.6372   -5.9505    1.0077 H         1 ATP         0.0383
     45 H45        -2.6338   -6.3155   -0.0469 H         1 ATP         0.4286
@<TRIPOS>BOND
     1    1    2 2
     2    1    3 1
     3    1    4 1
     4    1    8 1
     5    4   32 1
     6    5    6 2
     7    5    7 1
     8    5    8 1
     9    5   12 1
    10    9   10 2
    11    9   11 1
    12    9   12 1
    13    9   13 1
    14   11   33 1
    15   13   14 1
    16   14   15 1
    17   14   34 1
    18   14   35 1
    19   15   16 1
    20   15   17 1
    21   15   36 1
    22   16   21 1
    23   17   18 1
    24   17   19 1
    25   17   37 1
    26   18   38 1
    27   19   20 1
    28   19   21 1
    29   19   39 1
    30   20   40 1
    31   21   22 1
    32   21   41 1
    33   22   23 ar
    34   22   31 ar
    35   23   24 ar
    36   23   42 1
    37   24   25 ar
    38   25   26 ar
    39   25   31 ar
    40   26   27 2
    41   26   28 ar
    42   27   43 1
    43   28   29 ar
    44   28   45 1
    45   29   30 ar
    46   29   44 1
    47   30   31 ar
@<TRIPOS>SUBSTRUCTURE
     1 ATP         1 GROUP 0 A     ****
@<TRIPOS>MOLECULE
[[[3,4-dihydroxy-5-(6-imino-1~{H}-purin-9-yl)tetrahydrofuran-2-yl]methoxy-hydroxy-phosphoryl]oxy-oxido-phosphoryl] hydrogen phosphate
   45    47     1     0     0
SMALL
USER_CHARGES

@<TRIPOS>ATOM
      1 PG         -3.2148    0.3293   -2.2003 P.3       1 ATP         1.5414
      2 O1G        -1.9573    0.4410   -1.3674 O.co2     1 ATP        -0.8562
      3 O2G        -3.3637    1.1028   -3.4914 O.co2     1 ATP        -0.8562
      4 O3G        -3.4957   -1.2499   -2.5059 O.3       1 ATP        -0.7907
      5 PB         -4.9764    2.0039   -0.5106 P.3       1 ATP         1.6574
      6 O1B        -5.0436    3.1086   -1.5416 O.co2     1 ATP        -0.8530
      7 O2B        -6.1588    1.6962    0.3811 O.co2     1 ATP        -0.8530
      8 O3B        -4.5063    0.6281   -1.2508 O.3       1 ATP        -0.8003
      9 PA         -3.3138    3.4214    1.4862 P.3       1 ATP         1.7415
     10 O1A        -4.4758    3.8483    2.3355 O.2       1 ATP        -0.8661
     11 O2A        -2.7042    4.5947    0.5537 O.3       1 ATP        -0.8077
     12 O3A        -3.6627    2.2507    0.4259 O.3       1 ATP        -0.7685
     13 O5'        -2.0397    2.8622    2.3122 O.3       1 ATP        -0.5590
     14 C5'        -0.8811    2.4285    1.6206 C.3       1 ATP         0.1960
     15 C4'        -0.1994    1.3333    2.4288 C.3       1 ATP         0.0976
     16 O4'        -1.1285    0.2356    2.5840 O.3       1 ATP        -0.3865
     17 C3'         1.0324    0.7610    1.7344 C.3       1 ATP         0.0901
     18 O3'         1.9175    0.2377    2.7247 O.3       1 ATP        -0.5889
     19 C2'         0.4468   -0.3802    0.9263 C.3       1 ATP         0.0574
     20 O2'         1.3993   -1.3703    0.5961 O.3       1 ATP        -0.5923
     21 C1'        -0.6159   -0.9100    1.8769 C.3       1 ATP         0.2452
     22 N9         -1.7127   -1.6108    1.2130 N.pl3     1 ATP        -0.1834
     23 C8         -3.0370   -1.2489    1.2455 C.ar      1 ATP         0.4338
     24 N7         -3.8008   -2.0709    0.5534 N.2       1 ATP        -0.6101
     25 C5         -2.9295   -2.9976    0.0567 C.ar      1 ATP         0.2154
     26 C6         -3.2152   -4.1411   -0.7786 C.ar      1 ATP         0.6130
     27 N6         -4.4238   -4.3865   -1.1456 N.2       1 ATP        -0.8165
     28 N1         -2.0349   -4.8186   -1.0521 N.pl3     1 ATP        -0.8617
     29 C2         -0.7728   -4.4501   -0.5916 C.ar      1 ATP         0.6151
     30 N3         -0.4885   -3.4234    0.1630 N.2       1 ATP        -0.5797
     31 C4         -1.6274   -2.7377    0.4492 C.ar      1 ATP         0.0328
     32 HOG3       -4.2829   -1.4890   -3.0402 H         1 ATP         0.4197
     33 HOA2       -2.3487    5.4031    0.9806 H         1 ATP         0.4550
     34 H5'1       -1.1761    2.0499    0.6365 H         1 ATP         0.0431
     35 H5'2       -0.2073    3.2811    1.4874 H         1 ATP         0.0431
     36 H4'         0.0402    1.7079    3.4342 H         1 ATP         0.1325
     37 H3'         1.5907    1.4859    1.1353 H         1 ATP         0.0782
     38 HO3'        2.6839   -0.1150    2.2479 H         1 ATP         0.4062
     39 H2'        -0.0017    0.0018    0.0005 H         1 ATP         0.0689
     40 HO2'        2.0953   -0.9375    0.0709 H         1 ATP         0.4089
     41 H1'        -0.1998   -1.6319    2.6178 H         1 ATP         0.1098
     42 H8         -3.3806   -0.3795    1.7893 H         1 ATP         0.0929
     43 HN62       -4.4384   -5.2300   -1.7295 H         1 ATP         0.3678
     44 H2          0.0180   -5.1355   -0.9348 H         1 ATP         0.0383
     45 H45        -2.0977   -5.6477   -1.6374 H         1 ATP         0.4286
@<TRIPOS>BOND
     1    1    2 2
     2    1    3 1
     3    1    4 1
     4    1    8 1
     5    4   32 1
     6    5    6 2
     7    5    7 1
     8    5    8 1
     9    5   12 1
    10    9   10 2
    11    9   11 1
    12    9   12 1
    13    9   13 1
    14   11   33 1
    15   13   14 1
    16   14   15 1
    17   14   34 1
    18   14   35 1
    19   15   16 1
    20   15   17 1
    21   15   36 1
    22   16   21 1
    23   17   18 1
    24   17   19 1
    25   17   37 1
    26   18   38 1
    27   19   20 1
    28   19   21 1
    29   19   39 1
    30   20   40 1
    31   21   22 1
    32   21   41 1
    33   22   23 ar
    34   22   31 ar
    35   23   24 ar
    36   23   42 1
    37   24   25 ar
    38   25   26 ar
    39   25   31 ar
    40   26   27 2
    41   26   28 ar
    42   27   43 1
    43   28   29 ar
    44   28   45 1
    45   29   30 ar
    46   29   44 1
    47   30   31 ar
@<TRIPOS>SUBSTRUCTURE
     1 ATP         1 GROUP 0 A     ****
@<TRIPOS>MOLECULE
[[[3,4-dihydroxy-5-(6-imino-1~{H}-purin-9-yl)tetrahydrofuran-2-yl]methoxy-hydroxy-phosphoryl]oxy-oxido-phosphoryl] hydrogen phosphate
   45    47     1     0     0
SMALL
USER_CHARGES

@<TRIPOS>ATOM
      1 PG         -4.3724    6.5388   -1.6095 P.3       1 ATP         1.5414
      2 O1G        -3.8311    7.8516   -2.1302 O.co2     1 ATP        -0.8562
      3 O2G        -5.7715    6.4445   -1.0429 O.co2     1 ATP        -0.8562
      4 O3G        -4.2085    5.4104   -2.7783 O.3       1 ATP        -0.7907
      5 PB         -2.8854    6.4674    0.9490 P.3       1 ATP         1.6574
      6 O1B        -2.1337    7.7694    0.7833 O.co2     1 ATP        -0.8530
      7 O2B        -4.0786    6.3678    1.8732 O.co2     1 ATP        -0.8530
      8 O3B        -3.3190    5.9244   -0.5271 O.3       1 ATP        -0.8003
      9 PA         -0.4410    4.8279    0.6352 P.3       1 ATP         1.7415
     10 O1A         0.6017    5.9035    0.5369 O.2       1 ATP        -0.8661
     11 O2A        -0.9414    4.2532   -0.7921 O.3       1 ATP        -0.8077
     12 O3A        -1.8155    5.3004    1.3453 O.3       1 ATP        -0.7685
     13 O5'         0.0171    3.5129    1.4593 O.3       1 ATP        -0.5590
     14 C5'        -0.8811    2.4285    1.6206 C.3       1 ATP         0.1960
     15 C4'        -0.1994    1.3333    2.4288 C.3       1 ATP         0.0976
     16 O4'        -1.1285    0.2356    2.5840 O.3       1 ATP        -0.3865
     17 C3'         1.0324    0.7610    1.7344 C.3       1 ATP         0.0901
     18 O3'         1.9175    0.2377    2.7247 O.3       1 ATP        -0.5889
     19 C2'         0.4468   -0.3802    0.9263 C.3       1 ATP         0.0574
     20 O2'         1.3993   -1.3703    0.5961 O.3       1 ATP        -0.5923
     21 C1'        -0.6159   -0.9100    1.8769 C.3       1 ATP         0.2452
     22 N9         -1.7127   -1.6108    1.2130 N.pl3     1 ATP        -0.1834
     23 C8         -2.8662   -1.0361    0.7388 C.ar      1 ATP         0.4338
     24 N7         -3.6774   -1.9166    0.1867 N.2       1 ATP        -0.6101
     25 C5         -3.0159   -3.1045    0.3122 C.ar      1 ATP         0.2154
     26 C6         -3.4377   -4.4169   -0.1199 C.ar      1 ATP         0.6130
     27 N6         -4.5720   -4.5691   -0.7080 N.2       1 ATP        -0.8165
     28 N1         -2.4600   -5.3463    0.2071 N.pl3     1 ATP        -0.8617
     29 C2         -1.2595   -5.0554    0.8515 C.ar      1 ATP         0.6151
     30 N3         -0.8555   -3.8803    1.2516 N.2       1 ATP        -0.5797
     31 C4         -1.7946   -2.9457    0.9448 C.ar      1 ATP         0.0328
     32 HOG3       -4.5163    4.4977   -2.5923 H         1 ATP         0.4197
     33 HOA2       -1.3554    4.8699   -1.4328 H         1 ATP         0.4550
     34 H5'1       -1.7775    2.7843    2.1389 H         1 ATP         0.0431
     35 H5'2       -1.1658    2.0534    0.6322 H         1 ATP         0.0431
     36 H4'         0.0402    1.7079    3.4342 H         1 ATP         0.1325
     37 H3'         1.5907    1.4859    1.1353 H         1 ATP         0.0782
     38 HO3'        2.6839   -0.1150    2.2479 H         1 ATP         0.4062
     39 H2'        -0.0017    0.0018    0.0005 H         1 ATP         0.0689
     40 HO2'        2.0953   -0.9375    0.0709 H         1 ATP         0.4089
     41 H1'        -0.1998   -1.6319    2.6178 H         1 ATP         0.1098
     42 H8         -3.0558    0.0252    0.8256 H         1 ATP         0.0929
     43 HN62       -4.7047   -5.5592   -0.9421 H         1 ATP         0.3678
     44 H2         -0.6372   -5.9505    1.0077 H         1 ATP         0.0383
     45 H45        -2.6338   -6.3155   -0.0469 H         1 ATP         0.4286
@<TRIPOS>BOND
     1    1    2 2
     2    1    3 1
     3    1    4 1
     4    1    8 1
     5    4   32 1
     6    5    6 2
     7    5    7 1
     8    5    8 1
     9    5   12 1
    10    9   10 2
    11    9   11 1
    12    9   12 1
    13    9   13 1
    14   11   33 1
    15   13   14 1
    16   14   15 1
    17   14   34 1
    18   14   35 1
    19   15   16 1
    20   15   17 1
    21   15   36 1
    22   16   21 1
    23   17   18 1
    24   17   19 1
    25   17   37 1
    26   18   38 1
    27   19   20 1
    28   19   21 1
    29   19   39 1
    30   20   40 1
    31   21   22 1
    32   21   41 1
    33   22   23 ar
    34   22   31 ar
    35   23   24 ar
    36   23   42 1
    37   24   25 ar
    38   25   26 ar
    39   25   31 ar
    40   26   27 2
    41   26   28 ar
    42   27   43 1
    43   28   29 ar
    44   28   45 1
    45   29   30 ar
    46   29   44 1
    47   30   31 ar
@<TRIPOS>SUBSTRUCTURE
     1 ATP         1 GROUP 0 A     ****
@<TRIPOS>MOLECULE
[[[3,4-dihydroxy-5-(6-imino-1~{H}-purin-9-yl)tetrahydrofuran-2-yl]methoxy-hydroxy-phosphoryl]oxy-oxido-phosphoryl] hydrogen phosphate
   45    47     1     0     0
SMALL
USER_CHARGES

@<TRIPOS>ATOM
      1 PG         -4.7959    6.6590    3.8098 P.3       1 ATP         1.5414
      2 O1G        -6.1923    6.4911    3.2536 O.co2     1 ATP        -0.8562
      3 O2G        -4.3197    7.9993    4.3240 O.co2     1 ATP        -0.8562
      4 O3G        -4.5659    5.5429    4.9792 O.3       1 ATP        -0.7907
      5 PB         -2.1079    5.8866    2.8402 P.3       1 ATP         1.6574
      6 O1B        -1.4516    7.2442    2.9586 O.co2     1 ATP        -0.8530
      7 O2B        -1.8337    4.7967    3.8525 O.co2     1 ATP        -0.8530
      8 O3B        -3.7213    6.0964    2.7201 O.3       1 ATP        -0.8003
      9 PA         -0.4410    4.8279    0.6352 P.3       1 ATP         1.7415
     10 O1A         0.6017    5.9035    0.5369 O.2       1 ATP        -0.8661
     11 O2A        -0.9414    4.2532   -0.7921 O.3       1 ATP        -0.8077
     12 O3A        -1.8155    5.3004    1.3453 O.3       1 ATP        -0.7685
     13 O5'         0.0171    3.5129    1.4593 O.3       1 ATP        -0.5590
     14 C5'        -0.8811    2.4285    1.6206 C.3       1 ATP         0.1960
     15 C4'        -0.1994    1.3333    2.4288 C.3       1 ATP         0.0976
     16 O4'        -1.1285    0.2356    2.5840 O.3       1 ATP        -0.3865
     17 C3'         1.0324    0.7610    1.7344 C.3       1 ATP         0.0901
     18 O3'         1.9175    0.2377    2.7247 O.3       1 ATP        -0.5889
     19 C2'         0.4468   -0.3802    0.9263 C.3       1 ATP         0.0574
     20 O2'         1.3993   -1.3703    0.5961 O.3       1 ATP        -0.5923
     21 C1'        -0.6159   -0.9100    1.8769 C.3       1 ATP         0.2452
     22 N9         -1.7127   -1.6108    1.2130 N.pl3     1 ATP        -0.1834
     23 C8         -2.8662   -1.0361    0.7388 C.ar      1 ATP         0.4338
     24 N7         -3.6774   -1.9166    0.1867 N.2       1 ATP        -0.6101
     25 C5         -3.0159   -3.1045    0.3122 C.ar      1 ATP         0.2154
     26 C6         -3.4377   -4.4169   -0.1199 C.ar      1 ATP         0.6130
     27 N6         -4.5720   -4.5691   -0.7080 N.2       1 ATP        -0.8165
     28 N1         -2.4600   -5.3463    0.2071 N.pl3     1 ATP        -0.8617
     29 C2         -1.2595   -5.0554    0.8515 C.ar      1 ATP         0.6151
     30 N3         -0.8555   -3.8803    1.2516 N.2       1 ATP        -0.5797
     31 C4         -1.7946   -2.9457    0.9448 C.ar      1 ATP         0.0328
     32 HOG3       -3.7007    5.5224    5.4411 H         1 ATP         0.4197
     33 HOA2       -0.2861    3.8370   -1.3917 H         1 ATP         0.4550
     34 H5'1       -1.7775    2.7843    2.1389 H         1 ATP         0.0431
     35 H5'2       -1.1658    2.0534    0.6322 H         1 ATP         0.0431
     36 H4'         0.0402    1.7079    3.4342 H         1 ATP         0.1325
     37 H3'         1.5907    1.4859    1.1353 H         1 ATP         0.0782
     38 HO3'        2.6839   -0.1150    2.2479 H         1 ATP         0.4062
     39 H2'        -0.0017    0.0018    0.0005 H         1 ATP         0.0689
     40 HO2'        2.0953   -0.9375    0.0709 H         1 ATP         0.4089
     41 H1'        -0.1998   -1.6319    2.6178 H         1 ATP         0.1098
     42 H8         -3.0558    0.0252    0.8256 H         1 ATP         0.0929
     43 HN62       -4.7047   -5.5592   -0.9421 H         1 ATP         0.3678
     44 H2         -0.6372   -5.9505    1.0077 H         1 ATP         0.0383
     45 H45        -2.6338   -6.3155   -0.0469 H         1 ATP         0.4286
@<TRIPOS>BOND
     1    1    2 2
     2    1    3 1
     3    1    4 1
     4    1    8 1
     5    4   32 1
     6    5    6 2
     7    5    7 1
     8    5    8 1
     9    5   12 1
    10    9   10 2
    11    9   11 1
    12    9   12 1
    13    9   13 1
    14   11   33 1
    15   13   14 1
    16   14   15 1
    17   14   34 1
    18   14   35 1
    19   15   16 1
    20   15   17 1
    21   15   36 1
    22   16   21 1
    23   17   18 1
    24   17   19 1
    25   17   37 1
    26   18   38 1
    27   19   20 1
    28   19   21 1
    29   19   39 1
    30   20   40 1
    31   21   22 1
    32   21   41 1
    33   22   23 ar
    34   22   31 ar
    35   23   24 ar
    36   23   42 1
    37   24   25 ar
    38   25   26 ar
    39   25   31 ar
    40   26   27 2
    41   26   28 ar
    42   27   43 1
    43   28   29 ar
    44   28   45 1
    45   29   30 ar
    46   29   44 1
    47   30   31 ar
@<TRIPOS>SUBSTRUCTURE
     1 ATP         1 GROUP 0 A     ****
@<TRIPOS>MOLECULE
[[[3,4-dihydroxy-5-(6-imino-1~{H}-purin-9-yl)tetrahydrofuran-2-yl]methoxy-hydroxy-phosphoryl]oxy-oxido-phosphoryl] hydrogen phosphate
   45    47     1     0     0
SMALL
USER_CHARGES

@<TRIPOS>ATOM
      1 PG         -3.8465    4.8481   -3.3686 P.3       1 ATP         1.5414
      2 O1G        -4.9837    5.8433   -3.4297 O.co2     1 ATP        -0.8562
      3 O2G        -4.0290    3.4280   -3.8557 O.co2     1 ATP        -0.8562
      4 O3G        -2.5513    5.4939   -4.1247 O.3       1 ATP        -0.7907
      5 PB         -3.9350    4.3016   -0.4607 P.3       1 ATP         1.6574
      6 O1B        -5.0831    5.2239   -0.1158 O.co2     1 ATP        -0.8530
      7 O2B        -4.1347    2.8046   -0.5428 O.co2     1 ATP        -0.8530
      8 O3B        -3.2526    4.8162   -1.8504 O.3       1 ATP        -0.8003
      9 PA         -2.5525    4.3888    2.1550 P.3       1 ATP         1.7415
     10 O1A        -3.7892    4.7207    2.9387 O.2       1 ATP        -0.8661
     11 O2A        -1.2618    5.2871    2.5359 O.3       1 ATP        -0.8077
     12 O3A        -2.6994    4.6113    0.5595 O.3       1 ATP        -0.7685
     13 O5'        -2.0397    2.8622    2.3122 O.3       1 ATP        -0.5590
     14 C5'        -0.8811    2.4285    1.6206 C.3       1 ATP         0.1960
     15 C4'        -0.1994    1.3333    2.4288 C.3       1 ATP         0.0976
     16 O4'        -1.1285    0.2356    2.5840 O.3       1 ATP        -0.3865
     17 C3'         1.0324    0.7610    1.7344 C.3       1 ATP         0.0901
     18 O3'         1.9175    0.2377    2.7247 O.3       1 ATP        -0.5889
     19 C2'         0.4468   -0.3802    0.9263 C.3       1 ATP         0.0574
     20 O2'         1.3993   -1.3703    0.5961 O.3       1 ATP        -0.5923
     21 C1'        -0.6159   -0.9100    1.8769 C.3       1 ATP         0.2452
     22 N9         -1.7127   -1.6108    1.2130 N.pl3     1 ATP        -0.1834
     23 C8         -2.8662   -1.0361    0.7388 C.ar      1 ATP         0.4338
     24 N7         -3.6774   -1.9166    0.1867 N.2       1 ATP        -0.6101
     25 C5         -3.0159   -3.1045    0.3122 C.ar      1 ATP         0.2154
     26 C6         -3.4377   -4.4169   -0.1199 C.ar      1 ATP         0.6130
     27 N6         -4.5720   -4.5691   -0.7080 N.2       1 ATP        -0.8165
     28 N1         -2.4600   -5.3463    0.2071 N.pl3     1 ATP        -0.8617
     29 C2         -1.2595   -5.0554    0.8515 C.ar      1 ATP         0.6151
     30 N3         -0.8555   -3.8803    1.2516 N.2       1 ATP        -0.5797
     31 C4         -1.7946   -2.9457    0.9448 C.ar      1 ATP         0.0328
     32 HOG3       -1.7260    4.9654   -4.1702 H         1 ATP         0.4197
     33 HOA2       -0.9230    5.2641    3.4562 H         1 ATP         0.4550
     34 H5'1       -1.1761    2.0499    0.6365 H         1 ATP         0.0431
     35 H5'2       -0.2073    3.2811    1.4874 H         1 ATP         0.0431
     36 H4'         0.0402    1.7079    3.4342 H         1 ATP         0.1325
     37 H3'         1.5907    1.4859    1.1353 H         1 ATP         0.0782
     38 HO3'        2.1521    0.9800    3.3017 H         1 ATP         0.4062
     39 H2'        -0.0017    0.0018    0.0005 H         1 ATP         0.0689
     40 HO2'        0.9369   -2.0558    0.0825 H         1 ATP         0.4089
     41 H1'        -0.1998   -1.6319    2.6178 H         1 ATP         0.1098
     42 H8         -3.0558    0.0252    0.8256 H         1 ATP         0.0929
     43 HN62       -4.7047   -5.5592   -0.9421 H         1 ATP         0.3678
     44 H2         -0.6372   -5.9505    1.0077 H         1 ATP         0.0383
     45 H45        -2.6338   -6.3155   -0.0469 H         1 ATP         0.4286
@<TRIPOS>BOND
     1    1    2 2
     2    1    3 1
     3    1    4 1
     4    1    8 1
     5    4   32 1
     6    5    6 2
     7    5    7 1
     8    5    8 1
     9    5   12 1
    10    9   10 2
    11    9   11 1
    12    9   12 1
    13    9   13 1
    14   11   33 1
    15   13   14 1
    16   14   15 1
    17   14   34 1
    18   14   35 1
    19   15   16 1
    20   15   17 1
    21   15   36 1
    22   16   21 1
    23   17   18 1
    24   17   19 1
    25   17   37 1
    26   18   38 1
    27   19   20 1
    28   19   21 1
    29   19   39 1
    30   20   40 1
    31   21   22 1
    32   21   41 1
    33   22   23 ar
    34   22   31 ar
    35   23   24 ar
    36   23   42 1
    37   24   25 ar
    38   25   26 ar
    39   25   31 ar
    40   26   27 2
    41   26   28 ar
    42   27   43 1
    43   28   29 ar
    44   28   45 1
    45   29   30 ar
    46   29   44 1
    47   30   31 ar
@<TRIPOS>SUBSTRUCTURE
     1 ATP         1 GROUP 0 A     ****
@<TRIPOS>MOLECULE
[[[3,4-dihydroxy-5-(6-imino-1~{H}-purin-9-yl)tetrahydrofuran-2-yl]methoxy-hydroxy-phosphoryl]oxy-oxido-phosphoryl] hydrogen phosphate
   45    47     1     0     0
SMALL
USER_CHARGES

@<TRIPOS>ATOM
      1 PG         -5.3308    7.0586    2.5086 P.3       1 ATP         1.5414
      2 O1G        -5.8480    6.5938    3.8517 O.co2     1 ATP        -0.8562
      3 O2G        -6.2193    7.0410    1.2848 O.co2     1 ATP        -0.8562
      4 O3G        -4.7154    8.5611    2.6817 O.3       1 ATP        -0.7907
      5 PB         -2.8854    6.4674    0.9490 P.3       1 ATP         1.6574
      6 O1B        -3.5606    6.0775   -0.3471 O.co2     1 ATP        -0.8530
      7 O2B        -2.2158    7.8147    1.1051 O.co2     1 ATP        -0.8530
      8 O3B        -3.9470    6.2650    2.1712 O.3       1 ATP        -0.8003
      9 PA         -0.4410    4.8279    0.6352 P.3       1 ATP         1.7415
     10 O1A         0.6017    5.9035    0.5369 O.2       1 ATP        -0.8661
     11 O2A        -0.9414    4.2532   -0.7921 O.3       1 ATP        -0.8077
     12 O3A        -1.8155    5.3004    1.3453 O.3       1 ATP        -0.7685
     13 O5'         0.0171    3.5129    1.4593 O.3       1 ATP        -0.5590
     14 C5'        -0.8811    2.4285    1.6206 C.3       1 ATP         0.1960
     15 C4'        -0.1994    1.3333    2.4288 C.3       1 ATP         0.0976
     16 O4'        -1.1285    0.2356    2.5840 O.3       1 ATP        -0.3865
     17 C3'         1.0324    0.7610    1.7344 C.3       1 ATP         0.0901
     18 O3'         1.9175    0.2377    2.7247 O.3       1 ATP        -0.5889
     19 C2'         0.4468   -0.3802    0.9263 C.3       1 ATP         0.0574
     20 O2'         1.3993   -1.3703    0.5961 O.3       1 ATP        -0.5923
     21 C1'        -0.6159   -0.9100    1.8769 C.3       1 ATP         0.2452
     22 N9         -1.7127   -1.6108    1.2130 N.pl3     1 ATP        -0.1834
     23 C8         -2.8662   -1.0361    0.7388 C.ar      1 ATP         0.4338
     24 N7         -3.6774   -1.9166    0.1867 N.2       1 ATP        -0.6101
     25 C5         -3.0159   -3.1045    0.3122 C.ar      1 ATP         0.2154
     26 C6         -3.4377   -4.4169   -0.1199 C.ar      1 ATP         0.6130
     27 N6         -4.5720   -4.5691   -0.7080 N.2       1 ATP        -0.8165
     28 N1         -2.4600   -5.3463    0.2071 N.pl3     1 ATP        -0.8617
     29 C2         -1.2595   -5.0554    0.8515 C.ar      1 ATP         0.6151
     30 N3         -0.8555   -3.8803    1.2516 N.2       1 ATP        -0.5797
     31 C4         -1.7946   -2.9457    0.9448 C.ar      1 ATP         0.0328
     32 HOG3       -4.3373    9.0044    1.8925 H         1 ATP         0.4197
     33 HOA2       -0.2861    3.8370   -1.3917 H         1 ATP         0.4550
     34 H5'1       -1.7775    2.7843    2.1389 H         1 ATP         0.0431
     35 H5'2       -1.1658    2.0534    0.6322 H         1 ATP         0.0431
     36 H4'         0.0402    1.7079    3.4342 H         1 ATP         0.1325
     37 H3'         1.5907    1.4859    1.1353 H         1 ATP         0.0782
     38 HO3'        2.6839   -0.1150    2.2479 H         1 ATP         0.4062
     39 H2'        -0.0017    0.0018    0.0005 H         1 ATP         0.0689
     40 HO2'        2.0953   -0.9375    0.0709 H         1 ATP         0.4089
     41 H1'        -0.1998   -1.6319    2.6178 H         1 ATP         0.1098
     42 H8         -3.0558    0.0252    0.8256 H         1 ATP         0.0929
     43 HN62       -4.7047   -5.5592   -0.9421 H         1 ATP         0.3678
     44 H2         -0.6372   -5.9505    1.0077 H         1 ATP         0.0383
     45 H45        -2.6338   -6.3155   -0.0469 H         1 ATP         0.4286
@<TRIPOS>BOND
     1    1    2 2
     2    1    3 1
     3    1    4 1
     4    1    8 1
     5    4   32 1
     6    5    6 2
     7    5    7 1
     8    5    8 1
     9    5   12 1
    10    9   10 2
    11    9   11 1
    12    9   12 1
    13    9   13 1
    14   11   33 1
    15   13   14 1
    16   14   15 1
    17   14   34 1
    18   14   35 1
    19   15   16 1
    20   15   17 1
    21   15   36 1
    22   16   21 1
    23   17   18 1
    24   17   19 1
    25   17   37 1
    26   18   38 1
    27   19   20 1
    28   19   21 1
    29   19   39 1
    30   20   40 1
    31   21   22 1
    32   21   41 1
    33   22   23 ar
    34   22   31 ar
    35   23   24 ar
    36   23   42 1
    37   24   25 ar
    38   25   26 ar
    39   25   31 ar
    40   26   27 2
    41   26   28 ar
    42   27   43 1
    43   28   29 ar
    44   28   45 1
    45   29   30 ar
    46   29   44 1
    47   30   31 ar
@<TRIPOS>SUBSTRUCTURE
     1 ATP         1 GROUP 0 A     ****
@<TRIPOS>MOLECULE
[[[3,4-dihydroxy-5-(6-imino-1~{H}-purin-9-yl)tetrahydrofuran-2-yl]methoxy-hydroxy-phosphoryl]oxy-oxido-phosphoryl] hydrogen phosphate
   45    47     1     0     0
SMALL
USER_CHARGES

@<TRIPOS>ATOM
      1 PG         -4.2870    6.3364   -1.2057 P.3       1 ATP         1.5414
      2 O1G        -3.6097    5.4059   -2.1871 O.co2     1 ATP        -0.8562
      3 O2G        -4.1351    7.8365   -1.3248 O.co2     1 ATP        -0.8562
      4 O3G        -5.8794    5.9775   -1.1653 O.3       1 ATP        -0.7907
      5 PB         -2.4601    5.9172    1.0853 P.3       1 ATP         1.6574
      6 O1B        -1.8919    7.3155    0.9868 O.co2     1 ATP        -0.8530
      7 O2B        -2.6137    5.2302    2.4240 O.co2     1 ATP        -0.8530
      8 O3B        -3.8954    5.8821    0.3105 O.3       1 ATP        -0.8003
      9 PA         -0.0705    4.4476    0.1413 P.3       1 ATP         1.7415
     10 O1A         0.9358    5.5605    0.0915 O.2       1 ATP        -0.8661
     11 O2A         0.0245    3.4081   -1.0950 O.3       1 ATP        -0.8077
     12 O3A        -1.6095    4.9430    0.0898 O.3       1 ATP        -0.7685
     13 O5'         0.0171    3.5129    1.4593 O.3       1 ATP        -0.5590
     14 C5'        -0.8811    2.4285    1.6206 C.3       1 ATP         0.1960
     15 C4'        -0.1994    1.3333    2.4288 C.3       1 ATP         0.0976
     16 O4'        -1.1285    0.2356    2.5840 O.3       1 ATP        -0.3865
     17 C3'         1.0324    0.7610    1.7344 C.3       1 ATP         0.0901
     18 O3'         1.9175    0.2377    2.7247 O.3       1 ATP        -0.5889
     19 C2'         0.4468   -0.3802    0.9263 C.3       1 ATP         0.0574
     20 O2'         1.3993   -1.3703    0.5961 O.3       1 ATP        -0.5923
     21 C1'        -0.6159   -0.9100    1.8769 C.3       1 ATP         0.2452
     22 N9         -1.7127   -1.6108    1.2130 N.pl3     1 ATP        -0.1834
     23 C8         -2.8662   -1.0361    0.7388 C.ar      1 ATP         0.4338
     24 N7         -3.6774   -1.9166    0.1867 N.2       1 ATP        -0.6101
     25 C5         -3.0159   -3.1045    0.3122 C.ar      1 ATP         0.2154
     26 C6         -3.4377   -4.4169   -0.1199 C.ar      1 ATP         0.6130
     27 N6         -4.5720   -4.5691   -0.7080 N.2       1 ATP        -0.8165
     28 N1         -2.4600   -5.3463    0.2071 N.pl3     1 ATP        -0.8617
     29 C2         -1.2595   -5.0554    0.8515 C.ar      1 ATP         0.6151
     30 N3         -0.8555   -3.8803    1.2516 N.2       1 ATP        -0.5797
     31 C4         -1.7946   -2.9457    0.9448 C.ar      1 ATP         0.0328
     32 HOG3       -6.4602    6.4982   -0.5705 H         1 ATP         0.4197
     33 HOA2        0.8591    2.9119   -1.2342 H         1 ATP         0.4550
     34 H5'1       -1.7775    2.7843    2.1389 H         1 ATP         0.0431
     35 H5'2       -1.1658    2.0534    0.6322 H         1 ATP         0.0431
     36 H4'         0.0402    1.7079    3.4342 H         1 ATP         0.1325
     37 H3'         1.5907    1.4859    1.1353 H         1 ATP         0.0782
     38 HO3'        2.6839   -0.1150    2.2479 H         1 ATP         0.4062
     39 H2'        -0.0017    0.0018    0.0005 H         1 ATP         0.0689
     40 HO2'        0.9369   -2.0558    0.0825 H         1 ATP         0.4089
     41 H1'        -0.1998   -1.6319    2.6178 H         1 ATP         0.1098
     42 H8         -3.0558    0.0252    0.8256 H         1 ATP         0.0929
     43 HN62       -4.7047   -5.5592   -0.9421 H         1 ATP         0.3678
     44 H2         -0.6372   -5.9505    1.0077 H         1 ATP         0.0383
     45 H45        -2.6338   -6.3155   -0.0469 H         1 ATP         0.4286
@<TRIPOS>BOND
     1    1    2 2
     2    1    3 1
     3    1    4 1
     4    1    8 1
     5    4   32 1
     6    5    6 2
     7    5    7 1
     8    5    8 1
     9    5   12 1
    10    9   10 2
    11    9   11 1
    12    9   12 1
    13    9   13 1
    14   11   33 1
    15   13   14 1
    16   14   15 1
    17   14   34 1
    18   14   35 1
    19   15   16 1
    20   15   17 1
    21   15   36 1
    22   16   21 1
    23   17   18 1
    24   17   19 1
    25   17   37 1
    26   18   38 1
    27   19   20 1
    28   19   21 1
    29   19   39 1
    30   20   40 1
    31   21   22 1
    32   21   41 1
    33   22   23 ar
    34   22   31 ar
    35   23   24 ar
    36   23   42 1
    37   24   25 ar
    38   25   26 ar
    39   25   31 ar
    40   26   27 2
    41   26   28 ar
    42   27   43 1
    43   28   29 ar
    44   28   45 1
    45   29   30 ar
    46   29   44 1
    47   30   31 ar
@<TRIPOS>SUBSTRUCTURE
     1 ATP         1 GROUP 0 A     ****
@<TRIPOS>MOLECULE
[[[3,4-dihydroxy-5-(6-imino-1~{H}-purin-9-yl)tetrahydrofuran-2-yl]methoxy-hydroxy-phosphoryl]oxy-oxido-phosphoryl] hydrogen phosphate
   45    47     1     0     0
SMALL
USER_CHARGES

@<TRIPOS>ATOM
      1 PG         -1.0662    5.6860    5.3568 P.3       1 ATP         1.5414
      2 O1G        -2.4002    5.5732    6.0607 O.co2     1 ATP        -0.8562
      3 O2G        -0.2011    6.9155    5.5224 O.co2     1 ATP        -0.8562
      4 O3G        -0.1731    4.3695    5.7247 O.3       1 ATP        -0.7907
      5 PB         -2.0841    6.2607    2.6373 P.3       1 ATP         1.6574
      6 O1B        -3.5610    6.2246    2.9616 O.co2     1 ATP        -0.8530
      7 O2B        -1.3639    7.5738    2.4257 O.co2     1 ATP        -0.8530
      8 O3B        -1.2814    5.3988    3.7663 O.3       1 ATP        -0.8003
      9 PA         -0.4410    4.8279    0.6352 P.3       1 ATP         1.7415
     10 O1A         0.6017    5.9035    0.5369 O.2       1 ATP        -0.8661
     11 O2A        -0.9414    4.2532   -0.7921 O.3       1 ATP        -0.8077
     12 O3A        -1.8155    5.3004    1.3453 O.3       1 ATP        -0.7685
     13 O5'         0.0171    3.5129    1.4593 O.3       1 ATP        -0.5590
     14 C5'        -0.8811    2.4285    1.6206 C.3       1 ATP         0.1960
     15 C4'        -0.1994    1.3333    2.4288 C.3       1 ATP         0.0976
     16 O4'        -1.1285    0.2356    2.5840 O.3       1 ATP        -0.3865
     17 C3'         1.0324    0.7610    1.7344 C.3       1 ATP         0.0901
     18 O3'         1.9175    0.2377    2.7247 O.3       1 ATP        -0.5889
     19 C2'         0.4468   -0.3802    0.9263 C.3       1 ATP         0.0574
     20 O2'         1.3993   -1.3703    0.5961 O.3       1 ATP        -0.5923
     21 C1'        -0.6159   -0.9100    1.8769 C.3       1 ATP         0.2452
     22 N9         -1.7127   -1.6108    1.2130 N.pl3     1 ATP        -0.1834
     23 C8         -1.7690   -2.9583    0.9549 C.ar      1 ATP         0.4338
     24 N7         -2.8827   -3.3076    0.3418 N.2       1 ATP        -0.6101
     25 C5         -3.5683   -2.1351    0.2017 C.ar      1 ATP         0.2154
     26 C6         -4.8617   -1.9185   -0.4044 C.ar      1 ATP         0.6130
     27 N6         -5.5166   -2.9094   -0.8993 N.2       1 ATP        -0.8165
     28 N1         -5.1837   -0.5701   -0.3344 N.pl3     1 ATP        -0.8617
     29 C2         -4.3821    0.4180    0.2330 C.ar      1 ATP         0.6151
     30 N3         -3.2117    0.2488    0.7860 N.2       1 ATP        -0.5797
     31 C4         -2.8672   -1.0657    0.7327 C.ar      1 ATP         0.0328
     32 HOG3        0.7268    4.2939    5.3413 H         1 ATP         0.4197
     33 HOA2       -0.2861    3.8370   -1.3917 H         1 ATP         0.4550
     34 H5'1       -1.7775    2.7843    2.1389 H         1 ATP         0.0431
     35 H5'2       -1.1658    2.0534    0.6322 H         1 ATP         0.0431
     36 H4'         0.0402    1.7079    3.4342 H         1 ATP         0.1325
     37 H3'         1.5907    1.4859    1.1353 H         1 ATP         0.0782
     38 HO3'        2.6839   -0.1150    2.2479 H         1 ATP         0.4062
     39 H2'        -0.0017    0.0018    0.0005 H         1 ATP         0.0689
     40 HO2'        2.0953   -0.9375    0.0709 H         1 ATP         0.4089
     41 H1'        -0.1998   -1.6319    2.6178 H         1 ATP         0.1098
     42 H8         -0.9697   -3.6300    1.2371 H         1 ATP         0.0929
     43 HN62       -6.4060   -2.5723   -1.2840 H         1 ATP         0.3678
     44 H2         -4.8409    1.4176    0.1757 H         1 ATP         0.0383
     45 H45        -6.0768   -0.2826   -0.7263 H         1 ATP         0.4286
@<TRIPOS>BOND
     1    1    2 2
     2    1    3 1
     3    1    4 1
     4    1    8 1
     5    4   32 1
     6    5    6 2
     7    5    7 1
     8    5    8 1
     9    5   12 1
    10    9   10 2
    11    9   11 1
    12    9   12 1
    13    9   13 1
    14   11   33 1
    15   13   14 1
    16   14   15 1
    17   14   34 1
    18   14   35 1
    19   15   16 1
    20   15   17 1
    21   15   36 1
    22   16   21 1
    23   17   18 1
    24   17   19 1
    25   17   37 1
    26   18   38 1
    27   19   20 1
    28   19   21 1
    29   19   39 1
    30   20   40 1
    31   21   22 1
    32   21   41 1
    33   22   23 ar
    34   22   31 ar
    35   23   24 ar
    36   23   42 1
    37   24   25 ar
    38   25   26 ar
    39   25   31 ar
    40   26   27 2
    41   26   28 ar
    42   27   43 1
    43   28   29 ar
    44   28   45 1
    45   29   30 ar
    46   29   44 1
    47   30   31 ar
@<TRIPOS>SUBSTRUCTURE
     1 ATP         1 GROUP 0 A     ****
@<TRIPOS>MOLECULE
[[[3,4-dihydroxy-5-(6-imino-1~{H}-purin-9-yl)tetrahydrofuran-2-yl]methoxy-hydroxy-phosphoryl]oxy-oxido-phosphoryl] hydrogen phosphate
   45    47     1     0     0
SMALL
USER_CHARGES

@<TRIPOS>ATOM
      1 PG         -3.7336    6.3795    3.7836 P.3       1 ATP         1.5414
      2 O1G        -3.4318    7.8187    4.1376 O.co2     1 ATP        -0.8562
      3 O2G        -2.8258    5.2595    4.2408 O.co2     1 ATP        -0.8562
      4 O3G        -5.2584    6.0379    4.2573 O.3       1 ATP        -0.7907
      5 PB         -2.8854    6.4674    0.9490 P.3       1 ATP         1.6574
      6 O1B        -3.5606    6.0775   -0.3471 O.co2     1 ATP        -0.8530
      7 O2B        -2.2158    7.8147    1.1051 O.co2     1 ATP        -0.8530
      8 O3B        -3.9470    6.2650    2.1712 O.3       1 ATP        -0.8003
      9 PA         -0.4410    4.8279    0.6352 P.3       1 ATP         1.7415
     10 O1A         0.6017    5.9035    0.5369 O.2       1 ATP        -0.8661
     11 O2A        -0.9414    4.2532   -0.7921 O.3       1 ATP        -0.8077
     12 O3A        -1.8155    5.3004    1.3453 O.3       1 ATP        -0.7685
     13 O5'         0.0171    3.5129    1.4593 O.3       1 ATP        -0.5590
     14 C5'        -0.8811    2.4285    1.6206 C.3       1 ATP         0.1960
     15 C4'        -0.1994    1.3333    2.4288 C.3       1 ATP         0.0976
     16 O4'        -1.1285    0.2356    2.5840 O.3       1 ATP        -0.3865
     17 C3'         1.0324    0.7610    1.7344 C.3       1 ATP         0.0901
     18 O3'         1.9175    0.2377    2.7247 O.3       1 ATP        -0.5889
     19 C2'         0.4468   -0.3802    0.9263 C.3       1 ATP         0.0574
     20 O2'         1.3993   -1.3703    0.5961 O.3       1 ATP        -0.5923
     21 C1'        -0.6159   -0.9100    1.8769 C.3       1 ATP         0.2452
     22 N9         -1.7127   -1.6108    1.2130 N.pl3     1 ATP        -0.1834
     23 C8         -1.7690   -2.9583    0.9549 C.ar      1 ATP         0.4338
     24 N7         -2.8827   -3.3076    0.3418 N.2       1 ATP        -0.6101
     25 C5         -3.5683   -2.1351    0.2017 C.ar      1 ATP         0.2154
     26 C6         -4.8617   -1.9185   -0.4044 C.ar      1 ATP         0.6130
     27 N6         -5.5166   -2.9094   -0.8993 N.2       1 ATP        -0.8165
     28 N1         -5.1837   -0.5701   -0.3344 N.pl3     1 ATP        -0.8617
     29 C2         -4.3821    0.4180    0.2330 C.ar      1 ATP         0.6151
     30 N3         -3.2117    0.2488    0.7860 N.2       1 ATP        -0.5797
     31 C4         -2.8672   -1.0657    0.7327 C.ar      1 ATP         0.0328
     32 HOG3       -5.6060    5.1349    4.0959 H         1 ATP         0.4197
     33 HOA2       -0.2861    3.8370   -1.3917 H         1 ATP         0.4550
     34 H5'1       -1.7775    2.7843    2.1389 H         1 ATP         0.0431
     35 H5'2       -1.1658    2.0534    0.6322 H         1 ATP         0.0431
     36 H4'         0.0402    1.7079    3.4342 H         1 ATP         0.1325
     37 H3'         1.5907    1.4859    1.1353 H         1 ATP         0.0782
     38 HO3'        2.6839   -0.1150    2.2479 H         1 ATP         0.4062
     39 H2'        -0.0017    0.0018    0.0005 H         1 ATP         0.0689
     40 HO2'        2.0953   -0.9375    0.0709 H         1 ATP         0.4089
     41 H1'        -0.1998   -1.6319    2.6178 H         1 ATP         0.1098
     42 H8         -0.9697   -3.6300    1.2371 H         1 ATP         0.0929
     43 HN62       -6.4060   -2.5723   -1.2840 H         1 ATP         0.3678
     44 H2         -4.8409    1.4176    0.1757 H         1 ATP         0.0383
     45 H45        -6.0768   -0.2826   -0.7263 H         1 ATP         0.4286
@<TRIPOS>BOND
     1    1    2 2
     2    1    3 1
     3    1    4 1
     4    1    8 1
     5    4   32 1
     6    5    6 2
     7    5    7 1
     8    5    8 1
     9    5   12 1
    10    9   10 2
    11    9   11 1
    12    9   12 1
    13    9   13 1
    14   11   33 1
    15   13   14 1
    16   14   15 1
    17   14   34 1
    18   14   35 1
    19   15   16 1
    20   15   17 1
    21   15   36 1
    22   16   21 1
    23   17   18 1
    24   17   19 1
    25   17   37 1
    26   18   38 1
    27   19   20 1
    28   19   21 1
    29   19   39 1
    30   20   40 1
    31   21   22 1
    32   21   41 1
    33   22   23 ar
    34   22   31 ar
    35   23   24 ar
    36   23   42 1
    37   24   25 ar
    38   25   26 ar
    39   25   31 ar
    40   26   27 2
    41   26   28 ar
    42   27   43 1
    43   28   29 ar
    44   28   45 1
    45   29   30 ar
    46   29   44 1
    47   30   31 ar
@<TRIPOS>SUBSTRUCTURE
     1 ATP         1 GROUP 0 A     ****
@<TRIPOS>MOLECULE
[[[3,4-dihydroxy-5-(6-imino-1~{H}-purin-9-yl)tetrahydrofuran-2-yl]methoxy-hydroxy-phosphoryl]oxy-oxido-phosphoryl] hydrogen phosphate
   45    47     1     0     0
SMALL
USER_CHARGES

@<TRIPOS>ATOM
      1 PG         -3.8475    4.4726    4.7885 P.3       1 ATP         1.5414
      2 O1G        -2.9490    3.2893    4.5056 O.co2     1 ATP        -0.8562
      3 O2G        -5.2252    4.5678    4.1719 O.co2     1 ATP        -0.8562
      4 O3G        -3.9902    4.6401    6.4064 O.3       1 ATP        -0.7907
      5 PB         -2.4829    6.4476    3.0566 P.3       1 ATP         1.6574
      6 O1B        -3.6348    6.4997    2.0778 O.co2     1 ATP        -0.8530
      7 O2B        -1.6446    7.6741    3.3406 O.co2     1 ATP        -0.8530
      8 O3B        -3.0283    5.8464    4.4718 O.3       1 ATP        -0.8003
      9 PA         -0.5513    5.0219    1.3252 P.3       1 ATP         1.7415
     10 O1A         0.5022    6.0785    1.1591 O.2       1 ATP        -0.8661
     11 O2A        -1.6139    4.9440    0.1075 O.3       1 ATP        -0.8077
     12 O3A        -1.4932    5.2238    2.6247 O.3       1 ATP        -0.7685
     13 O5'         0.0171    3.5129    1.4593 O.3       1 ATP        -0.5590
     14 C5'        -0.8811    2.4285    1.6206 C.3       1 ATP         0.1960
     15 C4'        -0.1994    1.3333    2.4288 C.3       1 ATP         0.0976
     16 O4'        -1.1285    0.2356    2.5840 O.3       1 ATP        -0.3865
     17 C3'         1.0324    0.7610    1.7344 C.3       1 ATP         0.0901
     18 O3'         1.9175    0.2377    2.7247 O.3       1 ATP        -0.5889
     19 C2'         0.4468   -0.3802    0.9263 C.3       1 ATP         0.0574
     20 O2'         1.3993   -1.3703    0.5961 O.3       1 ATP        -0.5923
     21 C1'        -0.6159   -0.9100    1.8769 C.3       1 ATP         0.2452
     22 N9         -1.7127   -1.6108    1.2130 N.pl3     1 ATP        -0.1834
     23 C8         -2.8662   -1.0361    0.7388 C.ar      1 ATP         0.4338
     24 N7         -3.6774   -1.9166    0.1867 N.2       1 ATP        -0.6101
     25 C5         -3.0159   -3.1045    0.3122 C.ar      1 ATP         0.2154
     26 C6         -3.4377   -4.4169   -0.1199 C.ar      1 ATP         0.6130
     27 N6         -4.5720   -4.5691   -0.7080 N.2       1 ATP        -0.8165
     28 N1         -2.4600   -5.3463    0.2071 N.pl3     1 ATP        -0.8617
     29 C2         -1.2595   -5.0554    0.8515 C.ar      1 ATP         0.6151
     30 N3         -0.8555   -3.8803    1.2516 N.2       1 ATP        -0.5797
     31 C4         -1.7946   -2.9457    0.9448 C.ar      1 ATP         0.0328
     32 HOG3       -4.5463    5.3703    6.7528 H         1 ATP         0.4197
     33 HOA2       -2.1585    5.7336   -0.0979 H         1 ATP         0.4550
     34 H5'1       -1.7775    2.7843    2.1389 H         1 ATP         0.0431
     35 H5'2       -1.1658    2.0534    0.6322 H         1 ATP         0.0431
     36 H4'         0.0402    1.7079    3.4342 H         1 ATP         0.1325
     37 H3'         1.5907    1.4859    1.1353 H         1 ATP         0.0782
     38 HO3'        2.6839   -0.1150    2.2479 H         1 ATP         0.4062
     39 H2'        -0.0017    0.0018    0.0005 H         1 ATP         0.0689
     40 HO2'        0.9369   -2.0558    0.0825 H         1 ATP         0.4089
     41 H1'        -0.1998   -1.6319    2.6178 H         1 ATP         0.1098
     42 H8         -3.0558    0.0252    0.8256 H         1 ATP         0.0929
     43 HN62       -4.7047   -5.5592   -0.9421 H         1 ATP         0.3678
     44 H2         -0.6372   -5.9505    1.0077 H         1 ATP         0.0383
     45 H45        -2.6338   -6.3155   -0.0469 H         1 ATP         0.4286
@<TRIPOS>BOND
     1    1    2 2
     2    1    3 1
     3    1    4 1
     4    1    8 1
     5    4   32 1
     6    5    6 2
     7    5    7 1
     8    5    8 1
     9    5   12 1
    10    9   10 2
    11    9   11 1
    12    9   12 1
    13    9   13 1
    14   11   33 1
    15   13   14 1
    16   14   15 1
    17   14   34 1
    18   14   35 1
    19   15   16 1
    20   15   17 1
    21   15   36 1
    22   16   21 1
    23   17   18 1
    24   17   19 1
    25   17   37 1
    26   18   38 1
    27   19   20 1
    28   19   21 1
    29   19   39 1
    30   20   40 1
    31   21   22 1
    32   21   41 1
    33   22   23 ar
    34   22   31 ar
    35   23   24 ar
    36   23   42 1
    37   24   25 ar
    38   25   26 ar
    39   25   31 ar
    40   26   27 2
    41   26   28 ar
    42   27   43 1
    43   28   29 ar
    44   28   45 1
    45   29   30 ar
    46   29   44 1
    47   30   31 ar
@<TRIPOS>SUBSTRUCTURE
     1 ATP         1 GROUP 0 A     ****
@<TRIPOS>MOLECULE
[[[3,4-dihydroxy-5-(6-imino-1~{H}-purin-9-yl)tetrahydrofuran-2-yl]methoxy-hydroxy-phosphoryl]oxy-oxido-phosphoryl] hydrogen phosphate
   45    47     1     0     0
SMALL
USER_CHARGES

@<TRIPOS>ATOM
      1 PG         -3.2296    5.9807   -3.2674 P.3       1 ATP         1.5414
      2 O1G        -2.1057    6.9556   -3.5395 O.co2     1 ATP        -0.8562
      3 O2G        -4.6755    6.4098   -3.3804 O.co2     1 ATP        -0.8562
      4 O3G        -3.0061    4.6587   -4.1993 O.3       1 ATP        -0.7907
      5 PB         -3.0385    5.9477   -0.3137 P.3       1 ATP         1.6574
      6 O1B        -1.8849    6.9160   -0.1742 O.co2     1 ATP        -0.8530
      7 O2B        -4.4577    6.3771   -0.0148 O.co2     1 ATP        -0.8530
      8 O3B        -2.9924    5.2940   -1.8077 O.3       1 ATP        -0.8003
      9 PA         -2.5525    4.3888    2.1550 P.3       1 ATP         1.7415
     10 O1A        -3.7892    4.7207    2.9387 O.2       1 ATP        -0.8661
     11 O2A        -1.2618    5.2871    2.5359 O.3       1 ATP        -0.8077
     12 O3A        -2.6994    4.6113    0.5595 O.3       1 ATP        -0.7685
     13 O5'        -2.0397    2.8622    2.3122 O.3       1 ATP        -0.5590
     14 C5'        -0.8811    2.4285    1.6206 C.3       1 ATP         0.1960
     15 C4'        -0.1994    1.3333    2.4288 C.3       1 ATP         0.0976
     16 O4'        -1.1285    0.2356    2.5840 O.3       1 ATP        -0.3865
     17 C3'         1.0324    0.7610    1.7344 C.3       1 ATP         0.0901
     18 O3'         1.9175    0.2377    2.7247 O.3       1 ATP        -0.5889
     19 C2'         0.4468   -0.3802    0.9263 C.3       1 ATP         0.0574
     20 O2'         1.3993   -1.3703    0.5961 O.3       1 ATP        -0.5923
     21 C1'        -0.6159   -0.9100    1.8769 C.3       1 ATP         0.2452
     22 N9         -1.7127   -1.6108    1.2130 N.pl3     1 ATP        -0.1834
     23 C8         -1.7690   -2.9583    0.9549 C.ar      1 ATP         0.4338
     24 N7         -2.8827   -3.3076    0.3418 N.2       1 ATP        -0.6101
     25 C5         -3.5683   -2.1351    0.2017 C.ar      1 ATP         0.2154
     26 C6         -4.8617   -1.9185   -0.4044 C.ar      1 ATP         0.6130
     27 N6         -5.5166   -2.9094   -0.8993 N.2       1 ATP        -0.8165
     28 N1         -5.1837   -0.5701   -0.3344 N.pl3     1 ATP        -0.8617
     29 C2         -4.3821    0.4180    0.2330 C.ar      1 ATP         0.6151
     30 N3         -3.2117    0.2488    0.7860 N.2       1 ATP        -0.5797
     31 C4         -2.8672   -1.0657    0.7327 C.ar      1 ATP         0.0328
     32 HOG3       -3.6580    3.9282   -4.1370 H         1 ATP         0.4197
     33 HOA2       -0.9230    5.2641    3.4562 H         1 ATP         0.4550
     34 H5'1       -1.1761    2.0499    0.6365 H         1 ATP         0.0431
     35 H5'2       -0.2073    3.2811    1.4874 H         1 ATP         0.0431
     36 H4'         0.0402    1.7079    3.4342 H         1 ATP         0.1325
     37 H3'         1.5907    1.4859    1.1353 H         1 ATP         0.0782
     38 HO3'        2.6839   -0.1150    2.2479 H         1 ATP         0.4062
     39 H2'        -0.0017    0.0018    0.0005 H         1 ATP         0.0689
     40 HO2'        2.0953   -0.9375    0.0709 H         1 ATP         0.4089
     41 H1'        -0.1998   -1.6319    2.6178 H         1 ATP         0.1098
     42 H8         -0.9697   -3.6300    1.2371 H         1 ATP         0.0929
     43 HN62       -6.4060   -2.5723   -1.2840 H         1 ATP         0.3678
     44 H2         -4.8409    1.4176    0.1757 H         1 ATP         0.0383
     45 H45        -6.0768   -0.2826   -0.7263 H         1 ATP         0.4286
@<TRIPOS>BOND
     1    1    2 2
     2    1    3 1
     3    1    4 1
     4    1    8 1
     5    4   32 1
     6    5    6 2
     7    5    7 1
     8    5    8 1
     9    5   12 1
    10    9   10 2
    11    9   11 1
    12    9   12 1
    13    9   13 1
    14   11   33 1
    15   13   14 1
    16   14   15 1
    17   14   34 1
    18   14   35 1
    19   15   16 1
    20   15   17 1
    21   15   36 1
    22   16   21 1
    23   17   18 1
    24   17   19 1
    25   17   37 1
    26   18   38 1
    27   19   20 1
    28   19   21 1
    29   19   39 1
    30   20   40 1
    31   21   22 1
    32   21   41 1
    33   22   23 ar
    34   22   31 ar
    35   23   24 ar
    36   23   42 1
    37   24   25 ar
    38   25   26 ar
    39   25   31 ar
    40   26   27 2
    41   26   28 ar
    42   27   43 1
    43   28   29 ar
    44   28   45 1
    45   29   30 ar
    46   29   44 1
    47   30   31 ar
@<TRIPOS>SUBSTRUCTURE
     1 ATP         1 GROUP 0 A     ****
@<TRIPOS>MOLECULE
[[[3,4-dihydroxy-5-(6-imino-1~{H}-purin-9-yl)tetrahydrofuran-2-yl]methoxy-hydroxy-phosphoryl]oxy-oxido-phosphoryl] hydrogen phosphate
   45    47     1     0     0
SMALL
USER_CHARGES

@<TRIPOS>ATOM
      1 PG         -0.8955    8.3695    3.9019 P.3       1 ATP         1.5414
      2 O1G        -0.1465    7.7568    5.0643 O.co2     1 ATP        -0.8562
      3 O2G        -2.1722    9.1494    4.1239 O.co2     1 ATP        -0.8562
      4 O3G         0.1407    9.3013    3.0509 O.3       1 ATP        -0.7907
      5 PB         -2.1079    5.8866    2.8402 P.3       1 ATP         1.6574
      6 O1B        -1.5247    4.9267    3.8532 O.co2     1 ATP        -0.8530
      7 O2B        -3.5551    6.3192    2.9187 O.co2     1 ATP        -0.8530
      8 O3B        -1.1657    7.2172    2.7804 O.3       1 ATP        -0.8003
      9 PA         -0.4410    4.8279    0.6352 P.3       1 ATP         1.7415
     10 O1A         0.6017    5.9035    0.5369 O.2       1 ATP        -0.8661
     11 O2A        -0.9414    4.2532   -0.7921 O.3       1 ATP        -0.8077
     12 O3A        -1.8155    5.3004    1.3453 O.3       1 ATP        -0.7685
     13 O5'         0.0171    3.5129    1.4593 O.3       1 ATP        -0.5590
     14 C5'        -0.8811    2.4285    1.6206 C.3       1 ATP         0.1960
     15 C4'        -0.1994    1.3333    2.4288 C.3       1 ATP         0.0976
     16 O4'        -1.1285    0.2356    2.5840 O.3       1 ATP        -0.3865
     17 C3'         1.0324    0.7610    1.7344 C.3       1 ATP         0.0901
     18 O3'         1.9175    0.2377    2.7247 O.3       1 ATP        -0.5889
     19 C2'         0.4468   -0.3802    0.9263 C.3       1 ATP         0.0574
     20 O2'         1.3993   -1.3703    0.5961 O.3       1 ATP        -0.5923
     21 C1'        -0.6159   -0.9100    1.8769 C.3       1 ATP         0.2452
     22 N9         -1.7127   -1.6108    1.2130 N.pl3     1 ATP        -0.1834
     23 C8         -1.7690   -2.9583    0.9549 C.ar      1 ATP         0.4338
     24 N7         -2.8827   -3.3076    0.3418 N.2       1 ATP        -0.6101
     25 C5         -3.5683   -2.1351    0.2017 C.ar      1 ATP         0.2154
     26 C6         -4.8617   -1.9185   -0.4044 C.ar      1 ATP         0.6130
     27 N6         -5.5166   -2.9094   -0.8993 N.2       1 ATP        -0.8165
     28 N1         -5.1837   -0.5701   -0.3344 N.pl3     1 ATP        -0.8617
     29 C2         -4.3821    0.4180    0.2330 C.ar      1 ATP         0.6151
     30 N3         -3.2117    0.2488    0.7860 N.2       1 ATP        -0.5797
     31 C4         -2.8672   -1.0657    0.7327 C.ar      1 ATP         0.0328
     32 HOG3       -0.1971    9.7714    2.2588 H         1 ATP         0.4197
     33 HOA2       -0.2861    3.8370   -1.3917 H         1 ATP         0.4550
     34 H5'1       -1.7775    2.7843    2.1389 H         1 ATP         0.0431
     35 H5'2       -1.1658    2.0534    0.6322 H         1 ATP         0.0431
     36 H4'         0.0402    1.7079    3.4342 H         1 ATP         0.1325
     37 H3'         1.5907    1.4859    1.1353 H         1 ATP         0.0782
     38 HO3'        2.6839   -0.1150    2.2479 H         1 ATP         0.4062
     39 H2'        -0.0017    0.0018    0.0005 H         1 ATP         0.0689
     40 HO2'        2.0953   -0.9375    0.0709 H         1 ATP         0.4089
     41 H1'        -0.1998   -1.6319    2.6178 H         1 ATP         0.1098
     42 H8         -0.9697   -3.6300    1.2371 H         1 ATP         0.0929
     43 HN62       -6.4060   -2.5723   -1.2840 H         1 ATP         0.3678
     44 H2         -4.8409    1.4176    0.1757 H         1 ATP         0.0383
     45 H45        -6.0768   -0.2826   -0.7263 H         1 ATP         0.4286
@<TRIPOS>BOND
     1    1    2 2
     2    1    3 1
     3    1    4 1
     4    1    8 1
     5    4   32 1
     6    5    6 2
     7    5    7 1
     8    5    8 1
     9    5   12 1
    10    9   10 2
    11    9   11 1
    12    9   12 1
    13    9   13 1
    14   11   33 1
    15   13   14 1
    16   14   15 1
    17   14   34 1
    18   14   35 1
    19   15   16 1
    20   15   17 1
    21   15   36 1
    22   16   21 1
    23   17   18 1
    24   17   19 1
    25   17   37 1
    26   18   38 1
    27   19   20 1
    28   19   21 1
    29   19   39 1
    30   20   40 1
    31   21   22 1
    32   21   41 1
    33   22   23 ar
    34   22   31 ar
    35   23   24 ar
    36   23   42 1
    37   24   25 ar
    38   25   26 ar
    39   25   31 ar
    40   26   27 2
    41   26   28 ar
    42   27   43 1
    43   28   29 ar
    44   28   45 1
    45   29   30 ar
    46   29   44 1
    47   30   31 ar
@<TRIPOS>SUBSTRUCTURE
     1 ATP         1 GROUP 0 A     ****
@<TRIPOS>MOLECULE
[[[3,4-dihydroxy-5-(6-imino-1~{H}-purin-9-yl)tetrahydrofuran-2-yl]methoxy-hydroxy-phosphoryl]oxy-oxido-phosphoryl] hydrogen phosphate
   45    47     1     0     0
SMALL
USER_CHARGES

@<TRIPOS>ATOM
      1 PG         -3.2296    5.9807   -3.2674 P.3       1 ATP         1.5414
      2 O1G        -3.2421    4.8977   -4.3230 O.co2     1 ATP        -0.8562
      3 O2G        -2.3227    7.1840   -3.3986 O.co2     1 ATP        -0.8562
      4 O3G        -4.7597    6.5058   -3.0452 O.3       1 ATP        -0.7907
      5 PB         -3.0385    5.9477   -0.3137 P.3       1 ATP         1.6574
      6 O1B        -1.8849    6.9160   -0.1742 O.co2     1 ATP        -0.8530
      7 O2B        -4.4577    6.3771   -0.0148 O.co2     1 ATP        -0.8530
      8 O3B        -2.9924    5.2940   -1.8077 O.3       1 ATP        -0.8003
      9 PA         -2.5525    4.3888    2.1550 P.3       1 ATP         1.7415
     10 O1A        -3.7892    4.7207    2.9387 O.2       1 ATP        -0.8661
     11 O2A        -1.2618    5.2871    2.5359 O.3       1 ATP        -0.8077
     12 O3A        -2.6994    4.6113    0.5595 O.3       1 ATP        -0.7685
     13 O5'        -2.0397    2.8622    2.3122 O.3       1 ATP        -0.5590
     14 C5'        -0.8811    2.4285    1.6206 C.3       1 ATP         0.1960
     15 C4'        -0.1994    1.3333    2.4288 C.3       1 ATP         0.0976
     16 O4'        -1.1285    0.2356    2.5840 O.3       1 ATP        -0.3865
     17 C3'         1.0324    0.7610    1.7344 C.3       1 ATP         0.0901
     18 O3'         1.9175    0.2377    2.7247 O.3       1 ATP        -0.5889
     19 C2'         0.4468   -0.3802    0.9263 C.3       1 ATP         0.0574
     20 O2'         1.3993   -1.3703    0.5961 O.3       1 ATP        -0.5923
     21 C1'        -0.6159   -0.9100    1.8769 C.3       1 ATP         0.2452
     22 N9         -1.7127   -1.6108    1.2130 N.pl3     1 ATP        -0.1834
     23 C8         -2.8662   -1.0361    0.7388 C.ar      1 ATP         0.4338
     24 N7         -3.6774   -1.9166    0.1867 N.2       1 ATP        -0.6101
     25 C5         -3.0159   -3.1045    0.3122 C.ar      1 ATP         0.2154
     26 C6         -3.4377   -4.4169   -0.1199 C.ar      1 ATP         0.6130
     27 N6         -4.5720   -4.5691   -0.7080 N.2       1 ATP        -0.8165
     28 N1         -2.4600   -5.3463    0.2071 N.pl3     1 ATP        -0.8617
     29 C2         -1.2595   -5.0554    0.8515 C.ar      1 ATP         0.6151
     30 N3         -0.8555   -3.8803    1.2516 N.2       1 ATP        -0.5797
     31 C4         -1.7946   -2.9457    0.9448 C.ar      1 ATP         0.0328
     32 HOG3       -4.9188    7.2146   -2.3859 H         1 ATP         0.4197
     33 HOA2       -0.9230    5.2641    3.4562 H         1 ATP         0.4550
     34 H5'1       -1.1761    2.0499    0.6365 H         1 ATP         0.0431
     35 H5'2       -0.2073    3.2811    1.4874 H         1 ATP         0.0431
     36 H4'         0.0402    1.7079    3.4342 H         1 ATP         0.1325
     37 H3'         1.5907    1.4859    1.1353 H         1 ATP         0.0782
     38 HO3'        2.6839   -0.1150    2.2479 H         1 ATP         0.4062
     39 H2'        -0.0017    0.0018    0.0005 H         1 ATP         0.0689
     40 HO2'        2.0953   -0.9375    0.0709 H         1 ATP         0.4089
     41 H1'        -0.1998   -1.6319    2.6178 H         1 ATP         0.1098
     42 H8         -3.0558    0.0252    0.8256 H         1 ATP         0.0929
     43 HN62       -4.7047   -5.5592   -0.9421 H         1 ATP         0.3678
     44 H2         -0.6372   -5.9505    1.0077 H         1 ATP         0.0383
     45 H45        -2.6338   -6.3155   -0.0469 H         1 ATP         0.4286
@<TRIPOS>BOND
     1    1    2 2
     2    1    3 1
     3    1    4 1
     4    1    8 1
     5    4   32 1
     6    5    6 2
     7    5    7 1
     8    5    8 1
     9    5   12 1
    10    9   10 2
    11    9   11 1
    12    9   12 1
    13    9   13 1
    14   11   33 1
    15   13   14 1
    16   14   15 1
    17   14   34 1
    18   14   35 1
    19   15   16 1
    20   15   17 1
    21   15   36 1
    22   16   21 1
    23   17   18 1
    24   17   19 1
    25   17   37 1
    26   18   38 1
    27   19   20 1
    28   19   21 1
    29   19   39 1
    30   20   40 1
    31   21   22 1
    32   21   41 1
    33   22   23 ar
    34   22   31 ar
    35   23   24 ar
    36   23   42 1
    37   24   25 ar
    38   25   26 ar
    39   25   31 ar
    40   26   27 2
    41   26   28 ar
    42   27   43 1
    43   28   29 ar
    44   28   45 1
    45   29   30 ar
    46   29   44 1
    47   30   31 ar
@<TRIPOS>SUBSTRUCTURE
     1 ATP         1 GROUP 0 A     ****
@<TRIPOS>MOLECULE
[[[3,4-dihydroxy-5-(6-imino-1~{H}-purin-9-yl)tetrahydrofuran-2-yl]methoxy-hydroxy-phosphoryl]oxy-oxido-phosphoryl] hydrogen phosphate
   45    47     1     0     0
SMALL
USER_CHARGES

@<TRIPOS>ATOM
      1 PG         -3.9184    8.8272    1.8552 P.3       1 ATP         1.5414
      2 O1G        -4.1682    9.3573    0.4609 O.co2     1 ATP        -0.8562
      3 O2G        -3.1400    9.6377    2.8674 O.co2     1 ATP        -0.8562
      4 O3G        -5.3523    8.4104    2.5160 O.3       1 ATP        -0.7907
      5 PB         -1.8026    6.8710    1.1778 P.3       1 ATP         1.6574
      6 O1B        -1.7599    7.1261   -0.3124 O.co2     1 ATP        -0.8530
      7 O2B        -0.7269    7.4123    2.0930 O.co2     1 ATP        -0.8530
      8 O3B        -3.2584    7.3402    1.7454 O.3       1 ATP        -0.8003
      9 PA         -2.1760    4.4068    2.7745 P.3       1 ATP         1.7415
     10 O1A        -3.4497    4.7369    3.4974 O.2       1 ATP        -0.8661
     11 O2A        -0.8322    4.6898    3.6302 O.3       1 ATP        -0.8077
     12 O3A        -1.9401    5.2633    1.4227 O.3       1 ATP        -0.7685
     13 O5'        -2.0397    2.8622    2.3122 O.3       1 ATP        -0.5590
     14 C5'        -0.8811    2.4285    1.6206 C.3       1 ATP         0.1960
     15 C4'        -0.1994    1.3333    2.4288 C.3       1 ATP         0.0976
     16 O4'        -1.1285    0.2356    2.5840 O.3       1 ATP        -0.3865
     17 C3'         1.0324    0.7610    1.7344 C.3       1 ATP         0.0901
     18 O3'         1.9175    0.2377    2.7247 O.3       1 ATP        -0.5889
     19 C2'         0.4468   -0.3802    0.9263 C.3       1 ATP         0.0574
     20 O2'         1.3993   -1.3703    0.5961 O.3       1 ATP        -0.5923
     21 C1'        -0.6159   -0.9100    1.8769 C.3       1 ATP         0.2452
     22 N9         -1.7127   -1.6108    1.2130 N.pl3     1 ATP        -0.1834
     23 C8         -2.8662   -1.0361    0.7388 C.ar      1 ATP         0.4338
     24 N7         -3.6774   -1.9166    0.1867 N.2       1 ATP        -0.6101
     25 C5         -3.0159   -3.1045    0.3122 C.ar      1 ATP         0.2154
     26 C6         -3.4377   -4.4169   -0.1199 C.ar      1 ATP         0.6130
     27 N6         -4.5720   -4.5691   -0.7080 N.2       1 ATP        -0.8165
     28 N1         -2.4600   -5.3463    0.2071 N.pl3     1 ATP        -0.8617
     29 C2         -1.2595   -5.0554    0.8515 C.ar      1 ATP         0.6151
     30 N3         -0.8555   -3.8803    1.2516 N.2       1 ATP        -0.5797
     31 C4         -1.7946   -2.9457    0.9448 C.ar      1 ATP         0.0328
     32 HOG3       -5.3581    8.0461    3.4268 H         1 ATP         0.4197
     33 HOA2       -0.7033    4.2178    4.4804 H         1 ATP         0.4550
     34 H5'1       -1.1761    2.0499    0.6365 H         1 ATP         0.0431
     35 H5'2       -0.2073    3.2811    1.4874 H         1 ATP         0.0431
     36 H4'         0.0402    1.7079    3.4342 H         1 ATP         0.1325
     37 H3'         1.5907    1.4859    1.1353 H         1 ATP         0.0782
     38 HO3'        2.6839   -0.1150    2.2479 H         1 ATP         0.4062
     39 H2'        -0.0017    0.0018    0.0005 H         1 ATP         0.0689
     40 HO2'        2.0953   -0.9375    0.0709 H         1 ATP         0.4089
     41 H1'        -0.1998   -1.6319    2.6178 H         1 ATP         0.1098
     42 H8         -3.0558    0.0252    0.8256 H         1 ATP         0.0929
     43 HN62       -4.7047   -5.5592   -0.9421 H         1 ATP         0.3678
     44 H2         -0.6372   -5.9505    1.0077 H         1 ATP         0.0383
     45 H45        -2.6338   -6.3155   -0.0469 H         1 ATP         0.4286
@<TRIPOS>BOND
     1    1    2 2
     2    1    3 1
     3    1    4 1
     4    1    8 1
     5    4   32 1
     6    5    6 2
     7    5    7 1
     8    5    8 1
     9    5   12 1
    10    9   10 2
    11    9   11 1
    12    9   12 1
    13    9   13 1
    14   11   33 1
    15   13   14 1
    16   14   15 1
    17   14   34 1
    18   14   35 1
    19   15   16 1
    20   15   17 1
    21   15   36 1
    22   16   21 1
    23   17   18 1
    24   17   19 1
    25   17   37 1
    26   18   38 1
    27   19   20 1
    28   19   21 1
    29   19   39 1
    30   20   40 1
    31   21   22 1
    32   21   41 1
    33   22   23 ar
    34   22   31 ar
    35   23   24 ar
    36   23   42 1
    37   24   25 ar
    38   25   26 ar
    39   25   31 ar
    40   26   27 2
    41   26   28 ar
    42   27   43 1
    43   28   29 ar
    44   28   45 1
    45   29   30 ar
    46   29   44 1
    47   30   31 ar
@<TRIPOS>SUBSTRUCTURE
     1 ATP         1 GROUP 0 A     ****
@<TRIPOS>MOLECULE
[[[3,4-dihydroxy-5-(6-imino-1~{H}-purin-9-yl)tetrahydrofuran-2-yl]methoxy-hydroxy-phosphoryl]oxy-oxido-phosphoryl] hydrogen phosphate
   45    47     1     0     0
SMALL
USER_CHARGES

@<TRIPOS>ATOM
      1 PG          3.9826    4.8454   -3.8249 P.3       1 ATP         1.5414
      2 O1G         3.8976    3.9749   -5.0588 O.co2     1 ATP        -0.8562
      3 O2G         4.4311    6.2867   -3.9195 O.co2     1 ATP        -0.8562
      4 O3G         2.5420    4.7993   -3.0577 O.3       1 ATP        -0.7907
      5 PB          6.4721    3.7120   -2.6935 P.3       1 ATP         1.6574
      6 O1B         6.7324    2.6805   -3.7686 O.co2     1 ATP        -0.8530
      7 O2B         7.2698    4.9958   -2.6348 O.co2     1 ATP        -0.8530
      8 O3B         4.8832    4.0822   -2.7001 O.3       1 ATP        -0.8003
      9 PA          6.2291    3.5148    0.2499 P.3       1 ATP         1.7415
     10 O1A         6.6826    4.9226    0.5070 O.2       1 ATP        -0.8661
     11 O2A         6.9222    2.4072    1.2042 O.3       1 ATP        -0.8077
     12 O3A         6.5556    2.9751   -1.2397 O.3       1 ATP        -0.7685
     13 O5'         4.6408    3.2692    0.4376 O.3       1 ATP        -0.5590
     14 C5'         4.0922    1.9801    0.2227 C.3       1 ATP         0.1960
     15 C4'         2.5944    2.0310    0.4653 C.3       1 ATP         0.0976
     16 O4'         1.9327    2.5740   -0.6889 O.3       1 ATP        -0.3865
     17 C3'         1.9685    0.6634    0.6767 C.3       1 ATP         0.0901
     18 O3'         2.1425    0.1975    1.9977 O.3       1 ATP        -0.5889
     19 C2'         0.5176    0.9128    0.3099 C.3       1 ATP         0.0574
     20 O2'        -0.2103    1.4454    1.4152 O.3       1 ATP        -0.5923
     21 C1'         0.6219    1.9765   -0.7844 C.3       1 ATP         0.2452
     22 N9          0.4237    1.4496   -2.1357 N.pl3     1 ATP        -0.1834
     23 C8          1.4069    0.9710   -2.9662 C.ar      1 ATP         0.4338
     24 N7          0.9316    0.5623   -4.1260 N.2       1 ATP        -0.6101
     25 C5         -0.4120    0.7884   -4.0344 C.ar      1 ATP         0.2154
     26 C6         -1.4353    0.5283   -5.0204 C.ar      1 ATP         0.6130
     27 N6         -1.1199    0.0176   -6.1586 N.2       1 ATP        -0.8165
     28 N1         -2.6704    0.9095   -4.5147 N.pl3     1 ATP        -0.8617
     29 C2         -2.8863    1.4571   -3.2520 C.ar      1 ATP         0.6151
     30 N3         -1.9805    1.7017   -2.3442 N.2       1 ATP        -0.5797
     31 C4         -0.7561    1.3381   -2.8112 C.ar      1 ATP         0.0328
     32 HOG3        2.4362    5.3180   -2.2318 H         1 ATP         0.4197
     33 HOA2        6.8036    2.4773    2.1755 H         1 ATP         0.4550
     34 H5'1        4.3024    1.6722   -0.8067 H         1 ATP         0.0431
     35 H5'2        4.5673    1.2731    0.9105 H         1 ATP         0.0431
     36 H4'         2.3752    2.7029    1.3156 H         1 ATP         0.1325
     37 H3'         2.4336   -0.1217   -0.0016 H         1 ATP         0.0782
     38 HO3'        1.7160   -0.6716    2.0397 H         1 ATP         0.4062
     39 H2'         0.0316    0.0155   -0.0339 H         1 ATP         0.0689
     40 HO2'       -1.1270    1.5823    1.1180 H         1 ATP         0.4089
     41 H1'        -0.1474    2.7798   -0.6651 H         1 ATP         0.1098
     42 H8          2.4466    0.9468   -2.6694 H         1 ATP         0.0929
     43 HN62       -1.9661   -0.0965   -6.7275 H         1 ATP         0.3678
     44 H2         -3.9481    1.6825   -3.0660 H         1 ATP         0.0383
     45 H45        -3.4814    0.7753   -5.1133 H         1 ATP         0.4286
@<TRIPOS>BOND
     1    1    2 2
     2    1    3 1
     3    1    4 1
     4    1    8 1
     5    4   32 1
     6    5    6 2
     7    5    7 1
     8    5    8 1
     9    5   12 1
    10    9   10 2
    11    9   11 1
    12    9   12 1
    13    9   13 1
    14   11   33 1
    15   13   14 1
    16   14   15 1
    17   14   34 1
    18   14   35 1
    19   15   16 1
    20   15   17 1
    21   15   36 1
    22   16   21 1
    23   17   18 1
    24   17   19 1
    25   17   37 1
    26   18   38 1
    27   19   20 1
    28   19   21 1
    29   19   39 1
    30   20   40 1
    31   21   22 1
    32   21   41 1
    33   22   23 ar
    34   22   31 ar
    35   23   24 ar
    36   23   42 1
    37   24   25 ar
    38   25   26 ar
    39   25   31 ar
    40   26   27 2
    41   26   28 ar
    42   27   43 1
    43   28   29 ar
    44   28   45 1
    45   29   30 ar
    46   29   44 1
    47   30   31 ar
@<TRIPOS>SUBSTRUCTURE
     1 ATP         1 GROUP 0 A     ****
@<TRIPOS>MOLECULE
[[[3,4-dihydroxy-5-(6-imino-1~{H}-purin-9-yl)tetrahydrofuran-2-yl]methoxy-hydroxy-phosphoryl]oxy-oxido-phosphoryl] hydrogen phosphate
   45    47     1     0     0
SMALL
USER_CHARGES

@<TRIPOS>ATOM
      1 PG         -5.2851    6.5301   -0.7893 P.3       1 ATP         1.5414
      2 O1G        -5.7984    5.7901   -2.0044 O.co2     1 ATP        -0.8562
      3 O2G        -5.1178    8.0332   -0.8075 O.co2     1 ATP        -0.8562
      4 O3G        -6.2116    6.1265    0.4932 O.3       1 ATP        -0.7907
      5 PB         -2.4287    5.7938   -1.0365 P.3       1 ATP         1.6574
      6 O1B        -2.5446    4.9477   -2.2849 O.co2     1 ATP        -0.8530
      7 O2B        -1.8633    7.1955   -1.0940 O.co2     1 ATP        -0.8530
      8 O3B        -3.8863    5.8463   -0.3054 O.3       1 ATP        -0.8003
      9 PA         -0.0705    4.4476    0.1413 P.3       1 ATP         1.7415
     10 O1A         0.9358    5.5605    0.0915 O.2       1 ATP        -0.8661
     11 O2A         0.0245    3.4081   -1.0950 O.3       1 ATP        -0.8077
     12 O3A        -1.6095    4.9430    0.0898 O.3       1 ATP        -0.7685
     13 O5'         0.0171    3.5129    1.4593 O.3       1 ATP        -0.5590
     14 C5'        -0.8811    2.4285    1.6206 C.3       1 ATP         0.1960
     15 C4'        -0.1994    1.3333    2.4288 C.3       1 ATP         0.0976
     16 O4'        -1.1285    0.2356    2.5840 O.3       1 ATP        -0.3865
     17 C3'         1.0324    0.7610    1.7344 C.3       1 ATP         0.0901
     18 O3'         1.9175    0.2377    2.7247 O.3       1 ATP        -0.5889
     19 C2'         0.4468   -0.3802    0.9263 C.3       1 ATP         0.0574
     20 O2'         1.3993   -1.3703    0.5961 O.3       1 ATP        -0.5923
     21 C1'        -0.6159   -0.9100    1.8769 C.3       1 ATP         0.2452
     22 N9         -1.7127   -1.6108    1.2130 N.pl3     1 ATP        -0.1834
     23 C8         -2.8662   -1.0361    0.7388 C.ar      1 ATP         0.4338
     24 N7         -3.6774   -1.9166    0.1867 N.2       1 ATP        -0.6101
     25 C5         -3.0159   -3.1045    0.3122 C.ar      1 ATP         0.2154
     26 C6         -3.4377   -4.4169   -0.1199 C.ar      1 ATP         0.6130
     27 N6         -4.5720   -4.5691   -0.7080 N.2       1 ATP        -0.8165
     28 N1         -2.4600   -5.3463    0.2071 N.pl3     1 ATP        -0.8617
     29 C2         -1.2595   -5.0554    0.8515 C.ar      1 ATP         0.6151
     30 N3         -0.8555   -3.8803    1.2516 N.2       1 ATP        -0.5797
     31 C4         -1.7946   -2.9457    0.9448 C.ar      1 ATP         0.0328
     32 HOG3       -6.0036    6.5278    1.3639 H         1 ATP         0.4197
     33 HOA2       -0.1001    3.7446   -2.0080 H         1 ATP         0.4550
     34 H5'1       -1.7775    2.7843    2.1389 H         1 ATP         0.0431
     35 H5'2       -1.1658    2.0534    0.6322 H         1 ATP         0.0431
     36 H4'         0.0402    1.7079    3.4342 H         1 ATP         0.1325
     37 H3'         1.5907    1.4859    1.1353 H         1 ATP         0.0782
     38 HO3'        2.1521    0.9800    3.3017 H         1 ATP         0.4062
     39 H2'        -0.0017    0.0018    0.0005 H         1 ATP         0.0689
     40 HO2'        0.9369   -2.0558    0.0825 H         1 ATP         0.4089
     41 H1'        -0.1998   -1.6319    2.6178 H         1 ATP         0.1098
     42 H8         -3.0558    0.0252    0.8256 H         1 ATP         0.0929
     43 HN62       -4.7047   -5.5592   -0.9421 H         1 ATP         0.3678
     44 H2         -0.6372   -5.9505    1.0077 H         1 ATP         0.0383
     45 H45        -2.6338   -6.3155   -0.0469 H         1 ATP         0.4286
@<TRIPOS>BOND
     1    1    2 2
     2    1    3 1
     3    1    4 1
     4    1    8 1
     5    4   32 1
     6    5    6 2
     7    5    7 1
     8    5    8 1
     9    5   12 1
    10    9   10 2
    11    9   11 1
    12    9   12 1
    13    9   13 1
    14   11   33 1
    15   13   14 1
    16   14   15 1
    17   14   34 1
    18   14   35 1
    19   15   16 1
    20   15   17 1
    21   15   36 1
    22   16   21 1
    23   17   18 1
    24   17   19 1
    25   17   37 1
    26   18   38 1
    27   19   20 1
    28   19   21 1
    29   19   39 1
    30   20   40 1
    31   21   22 1
    32   21   41 1
    33   22   23 ar
    34   22   31 ar
    35   23   24 ar
    36   23   42 1
    37   24   25 ar
    38   25   26 ar
    39   25   31 ar
    40   26   27 2
    41   26   28 ar
    42   27   43 1
    43   28   29 ar
    44   28   45 1
    45   29   30 ar
    46   29   44 1
    47   30   31 ar
@<TRIPOS>SUBSTRUCTURE
     1 ATP         1 GROUP 0 A     ****
@<TRIPOS>MOLECULE
[[[3,4-dihydroxy-5-(6-imino-1~{H}-purin-9-yl)tetrahydrofuran-2-yl]methoxy-hydroxy-phosphoryl]oxy-oxido-phosphoryl] hydrogen phosphate
   45    47     1     0     0
SMALL
USER_CHARGES

@<TRIPOS>ATOM
      1 PG         -1.9635    3.1485    6.1835 P.3       1 ATP         1.5414
      2 O1G        -1.1786    1.8946    6.4986 O.co2     1 ATP        -0.8562
      3 O2G        -2.9442    3.1834    5.0326 O.co2     1 ATP        -0.8562
      4 O3G        -2.7363    3.6306    7.5388 O.3       1 ATP        -0.7907
      5 PB          0.2198    4.6910    4.9124 P.3       1 ATP         1.6574
      6 O1B         0.7807    6.0764    5.1444 O.co2     1 ATP        -0.8530
      7 O2B         1.1297    3.4863    4.8215 O.co2     1 ATP        -0.8530
      8 O3B        -0.9268    4.3982    6.0355 O.3       1 ATP        -0.8003
      9 PA         -0.3718    4.9776    2.0264 P.3       1 ATP         1.7415
     10 O1A         0.6640    6.0385    1.7915 O.2       1 ATP        -0.8661
     11 O2A        -1.8128    5.2955    1.3627 O.3       1 ATP        -0.8077
     12 O3A        -0.7290    4.7337    3.5851 O.3       1 ATP        -0.7685
     13 O5'         0.0171    3.5129    1.4593 O.3       1 ATP        -0.5590
     14 C5'        -0.8811    2.4285    1.6206 C.3       1 ATP         0.1960
     15 C4'        -0.1994    1.3333    2.4288 C.3       1 ATP         0.0976
     16 O4'        -1.1285    0.2356    2.5840 O.3       1 ATP        -0.3865
     17 C3'         1.0324    0.7610    1.7344 C.3       1 ATP         0.0901
     18 O3'         1.9175    0.2377    2.7247 O.3       1 ATP        -0.5889
     19 C2'         0.4468   -0.3802    0.9263 C.3       1 ATP         0.0574
     20 O2'         1.3993   -1.3703    0.5961 O.3       1 ATP        -0.5923
     21 C1'        -0.6159   -0.9100    1.8769 C.3       1 ATP         0.2452
     22 N9         -1.7127   -1.6108    1.2130 N.pl3     1 ATP        -0.1834
     23 C8         -2.8662   -1.0361    0.7388 C.ar      1 ATP         0.4338
     24 N7         -3.6774   -1.9166    0.1867 N.2       1 ATP        -0.6101
     25 C5         -3.0159   -3.1045    0.3122 C.ar      1 ATP         0.2154
     26 C6         -3.4377   -4.4169   -0.1199 C.ar      1 ATP         0.6130
     27 N6         -4.5720   -4.5691   -0.7080 N.2       1 ATP        -0.8165
     28 N1         -2.4600   -5.3463    0.2071 N.pl3     1 ATP        -0.8617
     29 C2         -1.2595   -5.0554    0.8515 C.ar      1 ATP         0.6151
     30 N3         -0.8555   -3.8803    1.2516 N.2       1 ATP        -0.5797
     31 C4         -1.7946   -2.9457    0.9448 C.ar      1 ATP         0.0328
     32 HOG3       -3.2926    4.4374    7.4968 H         1 ATP         0.4197
     33 HOA2       -1.8712    5.4150    0.3908 H         1 ATP         0.4550
     34 H5'1       -1.7775    2.7843    2.1389 H         1 ATP         0.0431
     35 H5'2       -1.1658    2.0534    0.6322 H         1 ATP         0.0431
     36 H4'         0.0402    1.7079    3.4342 H         1 ATP         0.1325
     37 H3'         1.5907    1.4859    1.1353 H         1 ATP         0.0782
     38 HO3'        2.6839   -0.1150    2.2479 H         1 ATP         0.4062
     39 H2'        -0.0017    0.0018    0.0005 H         1 ATP         0.0689
     40 HO2'        2.0953   -0.9375    0.0709 H         1 ATP         0.4089
     41 H1'        -0.1998   -1.6319    2.6178 H         1 ATP         0.1098
     42 H8         -3.0558    0.0252    0.8256 H         1 ATP         0.0929
     43 HN62       -4.7047   -5.5592   -0.9421 H         1 ATP         0.3678
     44 H2         -0.6372   -5.9505    1.0077 H         1 ATP         0.0383
     45 H45        -2.6338   -6.3155   -0.0469 H         1 ATP         0.4286
@<TRIPOS>BOND
     1    1    2 2
     2    1    3 1
     3    1    4 1
     4    1    8 1
     5    4   32 1
     6    5    6 2
     7    5    7 1
     8    5    8 1
     9    5   12 1
    10    9   10 2
    11    9   11 1
    12    9   12 1
    13    9   13 1
    14   11   33 1
    15   13   14 1
    16   14   15 1
    17   14   34 1
    18   14   35 1
    19   15   16 1
    20   15   17 1
    21   15   36 1
    22   16   21 1
    23   17   18 1
    24   17   19 1
    25   17   37 1
    26   18   38 1
    27   19   20 1
    28   19   21 1
    29   19   39 1
    30   20   40 1
    31   21   22 1
    32   21   41 1
    33   22   23 ar
    34   22   31 ar
    35   23   24 ar
    36   23   42 1
    37   24   25 ar
    38   25   26 ar
    39   25   31 ar
    40   26   27 2
    41   26   28 ar
    42   27   43 1
    43   28   29 ar
    44   28   45 1
    45   29   30 ar
    46   29   44 1
    47   30   31 ar
@<TRIPOS>SUBSTRUCTURE
     1 ATP         1 GROUP 0 A     ****
@<TRIPOS>MOLECULE
[[[3,4-dihydroxy-5-(6-imino-1~{H}-purin-9-yl)tetrahydrofuran-2-yl]methoxy-hydroxy-phosphoryl]oxy-oxido-phosphoryl] hydrogen phosphate
   45    47     1     0     0
SMALL
USER_CHARGES

@<TRIPOS>ATOM
      1 PG         -7.3631    1.6365    0.0509 P.3       1 ATP         1.5414
      2 O1G        -8.4015    2.2091    0.9898 O.co2     1 ATP        -0.8562
      3 O2G        -7.5151    0.2446   -0.5210 O.co2     1 ATP        -0.8562
      4 O3G        -7.1461    2.6838   -1.1829 O.3       1 ATP        -0.7907
      5 PB         -5.2792    1.0304    2.0638 P.3       1 ATP         1.6574
      6 O1B        -6.0262    1.5220    3.2836 O.co2     1 ATP        -0.8530
      7 O2B        -5.1440   -0.4482    1.7754 O.co2     1 ATP        -0.8530
      8 O3B        -5.8933    1.7677    0.7444 O.3       1 ATP        -0.8003
      9 PA         -3.3206    3.2472    2.1686 P.3       1 ATP         1.7415
     10 O1A        -4.1117    4.0663    3.1469 O.2       1 ATP        -0.8661
     11 O2A        -3.4109    3.7667    0.6390 O.3       1 ATP        -0.8077
     12 O3A        -3.7924    1.7035    2.0627 O.3       1 ATP        -0.7685
     13 O5'        -1.7334    3.1724    2.4743 O.3       1 ATP        -0.5590
     14 C5'        -0.8811    2.4285    1.6206 C.3       1 ATP         0.1960
     15 C4'        -0.1994    1.3333    2.4288 C.3       1 ATP         0.0976
     16 O4'        -1.1285    0.2356    2.5840 O.3       1 ATP        -0.3865
     17 C3'         1.0324    0.7610    1.7344 C.3       1 ATP         0.0901
     18 O3'         1.9175    0.2377    2.7247 O.3       1 ATP        -0.5889
     19 C2'         0.4468   -0.3802    0.9263 C.3       1 ATP         0.0574
     20 O2'         1.3993   -1.3703    0.5961 O.3       1 ATP        -0.5923
     21 C1'        -0.6159   -0.9100    1.8769 C.3       1 ATP         0.2452
     22 N9         -1.7127   -1.6108    1.2130 N.pl3     1 ATP        -0.1834
     23 C8         -2.5485   -1.0808    0.2609 C.ar      1 ATP         0.4338
     24 N7         -3.4476   -1.9486   -0.1593 N.2       1 ATP        -0.6101
     25 C5         -3.1762   -3.0816    0.5530 C.ar      1 ATP         0.2154
     26 C6         -3.8510   -4.3579    0.5006 C.ar      1 ATP         0.6130
     27 N6         -4.8468   -4.5293   -0.2961 N.2       1 ATP        -0.8165
     28 N1         -3.2499   -5.2342    1.3937 N.pl3     1 ATP        -0.8617
     29 C2         -2.1646   -4.9275    2.2116 C.ar      1 ATP         0.6151
     30 N3         -1.5382   -3.7840    2.2778 N.2       1 ATP        -0.5797
     31 C4         -2.1054   -2.9018    1.4120 C.ar      1 ATP         0.0328
     32 HOG3       -6.4978    2.4533   -1.8821 H         1 ATP         0.4197
     33 HOA2       -4.2880    3.8021    0.2012 H         1 ATP         0.4550
     34 H5'1       -1.4795    1.9922    0.8142 H         1 ATP         0.0431
     35 H5'2       -0.1362    3.1035    1.1868 H         1 ATP         0.0431
     36 H4'         0.0402    1.7079    3.4342 H         1 ATP         0.1325
     37 H3'         1.5907    1.4859    1.1353 H         1 ATP         0.0782
     38 HO3'        2.6839   -0.1150    2.2479 H         1 ATP         0.4062
     39 H2'        -0.0017    0.0018    0.0005 H         1 ATP         0.0689
     40 HO2'        2.0953   -0.9375    0.0709 H         1 ATP         0.4089
     41 H1'        -0.1998   -1.6319    2.6178 H         1 ATP         0.1098
     42 H8         -2.4515   -0.0599   -0.0829 H         1 ATP         0.0929
     43 HN62       -5.1990   -5.4882   -0.2005 H         1 ATP         0.3678
     44 H2         -1.8555   -5.7783    2.8388 H         1 ATP         0.0383
     45 H45        -3.6312   -6.1750    1.4526 H         1 ATP         0.4286
@<TRIPOS>BOND
     1    1    2 2
     2    1    3 1
     3    1    4 1
     4    1    8 1
     5    4   32 1
     6    5    6 2
     7    5    7 1
     8    5    8 1
     9    5   12 1
    10    9   10 2
    11    9   11 1
    12    9   12 1
    13    9   13 1
    14   11   33 1
    15   13   14 1
    16   14   15 1
    17   14   34 1
    18   14   35 1
    19   15   16 1
    20   15   17 1
    21   15   36 1
    22   16   21 1
    23   17   18 1
    24   17   19 1
    25   17   37 1
    26   18   38 1
    27   19   20 1
    28   19   21 1
    29   19   39 1
    30   20   40 1
    31   21   22 1
    32   21   41 1
    33   22   23 ar
    34   22   31 ar
    35   23   24 ar
    36   23   42 1
    37   24   25 ar
    38   25   26 ar
    39   25   31 ar
    40   26   27 2
    41   26   28 ar
    42   27   43 1
    43   28   29 ar
    44   28   45 1
    45   29   30 ar
    46   29   44 1
    47   30   31 ar
@<TRIPOS>SUBSTRUCTURE
     1 ATP         1 GROUP 0 A     ****
@<TRIPOS>MOLECULE
[[[3,4-dihydroxy-5-(6-imino-1~{H}-purin-9-yl)tetrahydrofuran-2-yl]methoxy-hydroxy-phosphoryl]oxy-oxido-phosphoryl] hydrogen phosphate
   45    47     1     0     0
SMALL
USER_CHARGES

@<TRIPOS>ATOM
      1 PG          0.2955    8.5522    2.4162 P.3       1 ATP         1.5414
      2 O1G        -0.6105    9.4710    3.2053 O.co2     1 ATP        -0.8562
      3 O2G         0.9651    9.0242    1.1449 O.co2     1 ATP        -0.8562
      4 O3G         1.4423    7.9670    3.4206 O.3       1 ATP        -0.7907
      5 PB         -1.8026    6.8710    1.1778 P.3       1 ATP         1.6574
      6 O1B        -3.0017    7.5537    1.7975 O.co2     1 ATP        -0.8530
      7 O2B        -1.4279    7.1128   -0.2675 O.co2     1 ATP        -0.8530
      8 O3B        -0.4974    7.1601    2.1130 O.3       1 ATP        -0.8003
      9 PA         -2.1760    4.4068    2.7745 P.3       1 ATP         1.7415
     10 O1A        -3.4497    4.7369    3.4974 O.2       1 ATP        -0.8661
     11 O2A        -0.8322    4.6898    3.6302 O.3       1 ATP        -0.8077
     12 O3A        -1.9401    5.2633    1.4227 O.3       1 ATP        -0.7685
     13 O5'        -2.0397    2.8622    2.3122 O.3       1 ATP        -0.5590
     14 C5'        -0.8811    2.4285    1.6206 C.3       1 ATP         0.1960
     15 C4'        -0.1994    1.3333    2.4288 C.3       1 ATP         0.0976
     16 O4'        -1.1285    0.2356    2.5840 O.3       1 ATP        -0.3865
     17 C3'         1.0324    0.7610    1.7344 C.3       1 ATP         0.0901
     18 O3'         1.9175    0.2377    2.7247 O.3       1 ATP        -0.5889
     19 C2'         0.4468   -0.3802    0.9263 C.3       1 ATP         0.0574
     20 O2'         1.3993   -1.3703    0.5961 O.3       1 ATP        -0.5923
     21 C1'        -0.6159   -0.9100    1.8769 C.3       1 ATP         0.2452
     22 N9         -1.7127   -1.6108    1.2130 N.pl3     1 ATP        -0.1834
     23 C8         -2.8662   -1.0361    0.7388 C.ar      1 ATP         0.4338
     24 N7         -3.6774   -1.9166    0.1867 N.2       1 ATP        -0.6101
     25 C5         -3.0159   -3.1045    0.3122 C.ar      1 ATP         0.2154
     26 C6         -3.4377   -4.4169   -0.1199 C.ar      1 ATP         0.6130
     27 N6         -4.5720   -4.5691   -0.7080 N.2       1 ATP        -0.8165
     28 N1         -2.4600   -5.3463    0.2071 N.pl3     1 ATP        -0.8617
     29 C2         -1.2595   -5.0554    0.8515 C.ar      1 ATP         0.6151
     30 N3         -0.8555   -3.8803    1.2516 N.2       1 ATP        -0.5797
     31 C4         -1.7946   -2.9457    0.9448 C.ar      1 ATP         0.0328
     32 HOG3        2.1122    7.3506    3.0552 H         1 ATP         0.4197
     33 HOA2       -0.7033    4.2178    4.4804 H         1 ATP         0.4550
     34 H5'1       -1.1761    2.0499    0.6365 H         1 ATP         0.0431
     35 H5'2       -0.2073    3.2811    1.4874 H         1 ATP         0.0431
     36 H4'         0.0402    1.7079    3.4342 H         1 ATP         0.1325
     37 H3'         1.5907    1.4859    1.1353 H         1 ATP         0.0782
     38 HO3'        2.6839   -0.1150    2.2479 H         1 ATP         0.4062
     39 H2'        -0.0017    0.0018    0.0005 H         1 ATP         0.0689
     40 HO2'        2.0953   -0.9375    0.0709 H         1 ATP         0.4089
     41 H1'        -0.1998   -1.6319    2.6178 H         1 ATP         0.1098
     42 H8         -3.0558    0.0252    0.8256 H         1 ATP         0.0929
     43 HN62       -4.7047   -5.5592   -0.9421 H         1 ATP         0.3678
     44 H2         -0.6372   -5.9505    1.0077 H         1 ATP         0.0383
     45 H45        -2.6338   -6.3155   -0.0469 H         1 ATP         0.4286
@<TRIPOS>BOND
     1    1    2 2
     2    1    3 1
     3    1    4 1
     4    1    8 1
     5    4   32 1
     6    5    6 2
     7    5    7 1
     8    5    8 1
     9    5   12 1
    10    9   10 2
    11    9   11 1
    12    9   12 1
    13    9   13 1
    14   11   33 1
    15   13   14 1
    16   14   15 1
    17   14   34 1
    18   14   35 1
    19   15   16 1
    20   15   17 1
    21   15   36 1
    22   16   21 1
    23   17   18 1
    24   17   19 1
    25   17   37 1
    26   18   38 1
    27   19   20 1
    28   19   21 1
    29   19   39 1
    30   20   40 1
    31   21   22 1
    32   21   41 1
    33   22   23 ar
    34   22   31 ar
    35   23   24 ar
    36   23   42 1
    37   24   25 ar
    38   25   26 ar
    39   25   31 ar
    40   26   27 2
    41   26   28 ar
    42   27   43 1
    43   28   29 ar
    44   28   45 1
    45   29   30 ar
    46   29   44 1
    47   30   31 ar
@<TRIPOS>SUBSTRUCTURE
     1 ATP         1 GROUP 0 A     ****
@<TRIPOS>MOLECULE
[[[3,4-dihydroxy-5-(6-imino-1~{H}-purin-9-yl)tetrahydrofuran-2-yl]methoxy-hydroxy-phosphoryl]oxy-oxido-phosphoryl] hydrogen phosphate
   45    47     1     0     0
SMALL
USER_CHARGES

@<TRIPOS>ATOM
      1 PG         -2.0719    7.0771   -2.2508 P.3       1 ATP         1.5414
      2 O1G        -0.8283    7.8611   -2.6061 O.co2     1 ATP        -0.8562
      3 O2G        -3.4427    7.7094   -2.3437 O.co2     1 ATP        -0.8562
      4 O3G        -2.0784    5.6939   -3.1186 O.3       1 ATP        -0.7907
      5 PB         -2.8249    5.3825    0.0564 P.3       1 ATP         1.6574
      6 O1B        -4.1326    6.0648    0.3912 O.co2     1 ATP        -0.8530
      7 O2B        -2.8011    4.0487   -0.6565 O.co2     1 ATP        -0.8530
      8 O3B        -1.8844    6.4326   -0.7649 O.3       1 ATP        -0.8003
      9 PA         -2.1760    4.4068    2.7745 P.3       1 ATP         1.7415
     10 O1A        -3.4497    4.7369    3.4974 O.2       1 ATP        -0.8661
     11 O2A        -0.8322    4.6898    3.6302 O.3       1 ATP        -0.8077
     12 O3A        -1.9401    5.2633    1.4227 O.3       1 ATP        -0.7685
     13 O5'        -2.0397    2.8622    2.3122 O.3       1 ATP        -0.5590
     14 C5'        -0.8811    2.4285    1.6206 C.3       1 ATP         0.1960
     15 C4'        -0.1994    1.3333    2.4288 C.3       1 ATP         0.0976
     16 O4'        -1.1285    0.2356    2.5840 O.3       1 ATP        -0.3865
     17 C3'         1.0324    0.7610    1.7344 C.3       1 ATP         0.0901
     18 O3'         1.9175    0.2377    2.7247 O.3       1 ATP        -0.5889
     19 C2'         0.4468   -0.3802    0.9263 C.3       1 ATP         0.0574
     20 O2'         1.3993   -1.3703    0.5961 O.3       1 ATP        -0.5923
     21 C1'        -0.6159   -0.9100    1.8769 C.3       1 ATP         0.2452
     22 N9         -1.7127   -1.6108    1.2130 N.pl3     1 ATP        -0.1834
     23 C8         -2.8662   -1.0361    0.7388 C.ar      1 ATP         0.4338
     24 N7         -3.6774   -1.9166    0.1867 N.2       1 ATP        -0.6101
     25 C5         -3.0159   -3.1045    0.3122 C.ar      1 ATP         0.2154
     26 C6         -3.4377   -4.4169   -0.1199 C.ar      1 ATP         0.6130
     27 N6         -4.5720   -4.5691   -0.7080 N.2       1 ATP        -0.8165
     28 N1         -2.4600   -5.3463    0.2071 N.pl3     1 ATP        -0.8617
     29 C2         -1.2595   -5.0554    0.8515 C.ar      1 ATP         0.6151
     30 N3         -0.8555   -3.8803    1.2516 N.2       1 ATP        -0.5797
     31 C4         -1.7946   -2.9457    0.9448 C.ar      1 ATP         0.0328
     32 HOG3       -2.8274    5.0717   -2.9994 H         1 ATP         0.4197
     33 HOA2       -0.7033    4.2178    4.4804 H         1 ATP         0.4550
     34 H5'1       -1.1761    2.0499    0.6365 H         1 ATP         0.0431
     35 H5'2       -0.2073    3.2811    1.4874 H         1 ATP         0.0431
     36 H4'         0.0402    1.7079    3.4342 H         1 ATP         0.1325
     37 H3'         1.5907    1.4859    1.1353 H         1 ATP         0.0782
     38 HO3'        2.1521    0.9800    3.3017 H         1 ATP         0.4062
     39 H2'        -0.0017    0.0018    0.0005 H         1 ATP         0.0689
     40 HO2'        0.9369   -2.0558    0.0825 H         1 ATP         0.4089
     41 H1'        -0.1998   -1.6319    2.6178 H         1 ATP         0.1098
     42 H8         -3.0558    0.0252    0.8256 H         1 ATP         0.0929
     43 HN62       -4.7047   -5.5592   -0.9421 H         1 ATP         0.3678
     44 H2         -0.6372   -5.9505    1.0077 H         1 ATP         0.0383
     45 H45        -2.6338   -6.3155   -0.0469 H         1 ATP         0.4286
@<TRIPOS>BOND
     1    1    2 2
     2    1    3 1
     3    1    4 1
     4    1    8 1
     5    4   32 1
     6    5    6 2
     7    5    7 1
     8    5    8 1
     9    5   12 1
    10    9   10 2
    11    9   11 1
    12    9   12 1
    13    9   13 1
    14   11   33 1
    15   13   14 1
    16   14   15 1
    17   14   34 1
    18   14   35 1
    19   15   16 1
    20   15   17 1
    21   15   36 1
    22   16   21 1
    23   17   18 1
    24   17   19 1
    25   17   37 1
    26   18   38 1
    27   19   20 1
    28   19   21 1
    29   19   39 1
    30   20   40 1
    31   21   22 1
    32   21   41 1
    33   22   23 ar
    34   22   31 ar
    35   23   24 ar
    36   23   42 1
    37   24   25 ar
    38   25   26 ar
    39   25   31 ar
    40   26   27 2
    41   26   28 ar
    42   27   43 1
    43   28   29 ar
    44   28   45 1
    45   29   30 ar
    46   29   44 1
    47   30   31 ar
@<TRIPOS>SUBSTRUCTURE
     1 ATP         1 GROUP 0 A     ****
@<TRIPOS>MOLECULE
[[[3,4-dihydroxy-5-(6-imino-1~{H}-purin-9-yl)tetrahydrofuran-2-yl]methoxy-hydroxy-phosphoryl]oxy-oxido-phosphoryl] hydrogen phosphate
   45    47     1     0     0
SMALL
USER_CHARGES

@<TRIPOS>ATOM
      1 PG         -5.1855    6.9712    0.4647 P.3       1 ATP         1.5414
      2 O1G        -6.1406    5.8081    0.3147 O.co2     1 ATP        -0.8562
      3 O2G        -5.0154    7.9857   -0.6440 O.co2     1 ATP        -0.8562
      4 O3G        -5.5488    7.7658    1.8441 O.3       1 ATP        -0.7907
      5 PB         -2.6594    5.4837    0.0541 P.3       1 ATP         1.6574
      6 O1B        -3.2627    4.1118   -0.1497 O.co2     1 ATP        -0.8530
      7 O2B        -2.1392    6.2888   -1.1159 O.co2     1 ATP        -0.8530
      8 O3B        -3.7190    6.3998    0.8907 O.3       1 ATP        -0.8003
      9 PA         -1.4923    4.7597    2.6761 P.3       1 ATP         1.7415
     10 O1A        -2.4628    5.4303    3.6046 O.2       1 ATP        -0.8661
     11 O2A         0.0554    4.8757    3.1335 O.3       1 ATP        -0.8077
     12 O3A        -1.4809    5.3679    1.1772 O.3       1 ATP        -0.7685
     13 O5'        -1.7334    3.1724    2.4743 O.3       1 ATP        -0.5590
     14 C5'        -0.8811    2.4285    1.6206 C.3       1 ATP         0.1960
     15 C4'        -0.1994    1.3333    2.4288 C.3       1 ATP         0.0976
     16 O4'        -1.1285    0.2356    2.5840 O.3       1 ATP        -0.3865
     17 C3'         1.0324    0.7610    1.7344 C.3       1 ATP         0.0901
     18 O3'         1.9175    0.2377    2.7247 O.3       1 ATP        -0.5889
     19 C2'         0.4468   -0.3802    0.9263 C.3       1 ATP         0.0574
     20 O2'         1.3993   -1.3703    0.5961 O.3       1 ATP        -0.5923
     21 C1'        -0.6159   -0.9100    1.8769 C.3       1 ATP         0.2452
     22 N9         -1.7127   -1.6108    1.2130 N.pl3     1 ATP        -0.1834
     23 C8         -2.8662   -1.0361    0.7388 C.ar      1 ATP         0.4338
     24 N7         -3.6774   -1.9166    0.1867 N.2       1 ATP        -0.6101
     25 C5         -3.0159   -3.1045    0.3122 C.ar      1 ATP         0.2154
     26 C6         -3.4377   -4.4169   -0.1199 C.ar      1 ATP         0.6130
     27 N6         -4.5720   -4.5691   -0.7080 N.2       1 ATP        -0.8165
     28 N1         -2.4600   -5.3463    0.2071 N.pl3     1 ATP        -0.8617
     29 C2         -1.2595   -5.0554    0.8515 C.ar      1 ATP         0.6151
     30 N3         -0.8555   -3.8803    1.2516 N.2       1 ATP        -0.5797
     31 C4         -1.7946   -2.9457    0.9448 C.ar      1 ATP         0.0328
     32 HOG3       -5.0137    8.5521    2.0846 H         1 ATP         0.4197
     33 HOA2        0.3230    4.5022    4.0001 H         1 ATP         0.4550
     34 H5'1       -1.4795    1.9922    0.8142 H         1 ATP         0.0431
     35 H5'2       -0.1362    3.1035    1.1868 H         1 ATP         0.0431
     36 H4'         0.0402    1.7079    3.4342 H         1 ATP         0.1325
     37 H3'         1.5907    1.4859    1.1353 H         1 ATP         0.0782
     38 HO3'        2.1521    0.9800    3.3017 H         1 ATP         0.4062
     39 H2'        -0.0017    0.0018    0.0005 H         1 ATP         0.0689
     40 HO2'        0.9369   -2.0558    0.0825 H         1 ATP         0.4089
     41 H1'        -0.1998   -1.6319    2.6178 H         1 ATP         0.1098
     42 H8         -3.0558    0.0252    0.8256 H         1 ATP         0.0929
     43 HN62       -4.7047   -5.5592   -0.9421 H         1 ATP         0.3678
     44 H2         -0.6372   -5.9505    1.0077 H         1 ATP         0.0383
     45 H45        -2.6338   -6.3155   -0.0469 H         1 ATP         0.4286
@<TRIPOS>BOND
     1    1    2 2
     2    1    3 1
     3    1    4 1
     4    1    8 1
     5    4   32 1
     6    5    6 2
     7    5    7 1
     8    5    8 1
     9    5   12 1
    10    9   10 2
    11    9   11 1
    12    9   12 1
    13    9   13 1
    14   11   33 1
    15   13   14 1
    16   14   15 1
    17   14   34 1
    18   14   35 1
    19   15   16 1
    20   15   17 1
    21   15   36 1
    22   16   21 1
    23   17   18 1
    24   17   19 1
    25   17   37 1
    26   18   38 1
    27   19   20 1
    28   19   21 1
    29   19   39 1
    30   20   40 1
    31   21   22 1
    32   21   41 1
    33   22   23 ar
    34   22   31 ar
    35   23   24 ar
    36   23   42 1
    37   24   25 ar
    38   25   26 ar
    39   25   31 ar
    40   26   27 2
    41   26   28 ar
    42   27   43 1
    43   28   29 ar
    44   28   45 1
    45   29   30 ar
    46   29   44 1
    47   30   31 ar
@<TRIPOS>SUBSTRUCTURE
     1 ATP         1 GROUP 0 A     ****
@<TRIPOS>MOLECULE
[[[3,4-dihydroxy-5-(6-imino-1~{H}-purin-9-yl)tetrahydrofuran-2-yl]methoxy-hydroxy-phosphoryl]oxy-oxido-phosphoryl] hydrogen phosphate
   45    47     1     0     0
SMALL
USER_CHARGES

@<TRIPOS>ATOM
      1 PG         -3.1501    5.6734    6.3469 P.3       1 ATP         1.5414
      2 O1G        -2.6164    6.9735    6.9058 O.co2     1 ATP        -0.8562
      3 O2G        -2.9380    4.3671    7.0791 O.co2     1 ATP        -0.8562
      4 O3G        -4.7467    5.8513    6.0546 O.3       1 ATP        -0.7907
      5 PB         -1.1333    5.2840    4.2155 P.3       1 ATP         1.6574
      6 O1B        -0.3200    6.5326    4.4751 O.co2     1 ATP        -0.8530
      7 O2B        -0.6364    3.9243    4.6538 O.co2     1 ATP        -0.8530
      8 O3B        -2.6366    5.5087    4.8081 O.3       1 ATP        -0.8003
      9 PA         -0.5513    5.0219    1.3252 P.3       1 ATP         1.7415
     10 O1A         0.5022    6.0785    1.1591 O.2       1 ATP        -0.8661
     11 O2A        -1.6139    4.9440    0.1075 O.3       1 ATP        -0.8077
     12 O3A        -1.4932    5.2238    2.6247 O.3       1 ATP        -0.7685
     13 O5'         0.0171    3.5129    1.4593 O.3       1 ATP        -0.5590
     14 C5'        -0.8811    2.4285    1.6206 C.3       1 ATP         0.1960
     15 C4'        -0.1994    1.3333    2.4288 C.3       1 ATP         0.0976
     16 O4'        -1.1285    0.2356    2.5840 O.3       1 ATP        -0.3865
     17 C3'         1.0324    0.7610    1.7344 C.3       1 ATP         0.0901
     18 O3'         1.9175    0.2377    2.7247 O.3       1 ATP        -0.5889
     19 C2'         0.4468   -0.3802    0.9263 C.3       1 ATP         0.0574
     20 O2'         1.3993   -1.3703    0.5961 O.3       1 ATP        -0.5923
     21 C1'        -0.6159   -0.9100    1.8769 C.3       1 ATP         0.2452
     22 N9         -1.7127   -1.6108    1.2130 N.pl3     1 ATP        -0.1834
     23 C8         -2.8662   -1.0361    0.7388 C.ar      1 ATP         0.4338
     24 N7         -3.6774   -1.9166    0.1867 N.2       1 ATP        -0.6101
     25 C5         -3.0159   -3.1045    0.3122 C.ar      1 ATP         0.2154
     26 C6         -3.4377   -4.4169   -0.1199 C.ar      1 ATP         0.6130
     27 N6         -4.5720   -4.5691   -0.7080 N.2       1 ATP        -0.8165
     28 N1         -2.4600   -5.3463    0.2071 N.pl3     1 ATP        -0.8617
     29 C2         -1.2595   -5.0554    0.8515 C.ar      1 ATP         0.6151
     30 N3         -0.8555   -3.8803    1.2516 N.2       1 ATP        -0.5797
     31 C4         -1.7946   -2.9457    0.9448 C.ar      1 ATP         0.0328
     32 HOG3       -5.2416    5.0884    5.6865 H         1 ATP         0.4197
     33 HOA2       -2.1585    5.7336   -0.0979 H         1 ATP         0.4550
     34 H5'1       -1.7775    2.7843    2.1389 H         1 ATP         0.0431
     35 H5'2       -1.1658    2.0534    0.6322 H         1 ATP         0.0431
     36 H4'         0.0402    1.7079    3.4342 H         1 ATP         0.1325
     37 H3'         1.5907    1.4859    1.1353 H         1 ATP         0.0782
     38 HO3'        2.6839   -0.1150    2.2479 H         1 ATP         0.4062
     39 H2'        -0.0017    0.0018    0.0005 H         1 ATP         0.0689
     40 HO2'        2.0953   -0.9375    0.0709 H         1 ATP         0.4089
     41 H1'        -0.1998   -1.6319    2.6178 H         1 ATP         0.1098
     42 H8         -3.0558    0.0252    0.8256 H         1 ATP         0.0929
     43 HN62       -4.7047   -5.5592   -0.9421 H         1 ATP         0.3678
     44 H2         -0.6372   -5.9505    1.0077 H         1 ATP         0.0383
     45 H45        -2.6338   -6.3155   -0.0469 H         1 ATP         0.4286
@<TRIPOS>BOND
     1    1    2 2
     2    1    3 1
     3    1    4 1
     4    1    8 1
     5    4   32 1
     6    5    6 2
     7    5    7 1
     8    5    8 1
     9    5   12 1
    10    9   10 2
    11    9   11 1
    12    9   12 1
    13    9   13 1
    14   11   33 1
    15   13   14 1
    16   14   15 1
    17   14   34 1
    18   14   35 1
    19   15   16 1
    20   15   17 1
    21   15   36 1
    22   16   21 1
    23   17   18 1
    24   17   19 1
    25   17   37 1
    26   18   38 1
    27   19   20 1
    28   19   21 1
    29   19   39 1
    30   20   40 1
    31   21   22 1
    32   21   41 1
    33   22   23 ar
    34   22   31 ar
    35   23   24 ar
    36   23   42 1
    37   24   25 ar
    38   25   26 ar
    39   25   31 ar
    40   26   27 2
    41   26   28 ar
    42   27   43 1
    43   28   29 ar
    44   28   45 1
    45   29   30 ar
    46   29   44 1
    47   30   31 ar
@<TRIPOS>SUBSTRUCTURE
     1 ATP         1 GROUP 0 A     ****
@<TRIPOS>MOLECULE
[[[3,4-dihydroxy-5-(6-imino-1~{H}-purin-9-yl)tetrahydrofuran-2-yl]methoxy-hydroxy-phosphoryl]oxy-oxido-phosphoryl] hydrogen phosphate
   45    47     1     0     0
SMALL
USER_CHARGES

@<TRIPOS>ATOM
      1 PG         -0.4237    6.1706   -1.3461 P.3       1 ATP         1.5414
      2 O1G        -0.5557    4.6671   -1.2470 O.co2     1 ATP        -0.8562
      3 O2G         0.8946    6.8558   -1.0633 O.co2     1 ATP        -0.8562
      4 O3G        -0.9478    6.6410   -2.8193 O.3       1 ATP        -0.7907
      5 PB         -1.8026    6.8710    1.1778 P.3       1 ATP         1.6574
      6 O1B        -0.5253    7.3473    1.8331 O.co2     1 ATP        -0.8530
      7 O2B        -3.1301    7.5258    1.4890 O.co2     1 ATP        -0.8530
      8 O3B        -1.5877    6.8646   -0.4394 O.3       1 ATP        -0.8003
      9 PA         -2.1760    4.4068    2.7745 P.3       1 ATP         1.7415
     10 O1A        -3.4497    4.7369    3.4974 O.2       1 ATP        -0.8661
     11 O2A        -0.8322    4.6898    3.6302 O.3       1 ATP        -0.8077
     12 O3A        -1.9401    5.2633    1.4227 O.3       1 ATP        -0.7685
     13 O5'        -2.0397    2.8622    2.3122 O.3       1 ATP        -0.5590
     14 C5'        -0.8811    2.4285    1.6206 C.3       1 ATP         0.1960
     15 C4'        -0.1994    1.3333    2.4288 C.3       1 ATP         0.0976
     16 O4'        -1.1285    0.2356    2.5840 O.3       1 ATP        -0.3865
     17 C3'         1.0324    0.7610    1.7344 C.3       1 ATP         0.0901
     18 O3'         1.9175    0.2377    2.7247 O.3       1 ATP        -0.5889
     19 C2'         0.4468   -0.3802    0.9263 C.3       1 ATP         0.0574
     20 O2'         1.3993   -1.3703    0.5961 O.3       1 ATP        -0.5923
     21 C1'        -0.6159   -0.9100    1.8769 C.3       1 ATP         0.2452
     22 N9         -1.7127   -1.6108    1.2130 N.pl3     1 ATP        -0.1834
     23 C8         -1.7690   -2.9583    0.9549 C.ar      1 ATP         0.4338
     24 N7         -2.8827   -3.3076    0.3418 N.2       1 ATP        -0.6101
     25 C5         -3.5683   -2.1351    0.2017 C.ar      1 ATP         0.2154
     26 C6         -4.8617   -1.9185   -0.4044 C.ar      1 ATP         0.6130
     27 N6         -5.5166   -2.9094   -0.8993 N.2       1 ATP        -0.8165
     28 N1         -5.1837   -0.5701   -0.3344 N.pl3     1 ATP        -0.8617
     29 C2         -4.3821    0.4180    0.2330 C.ar      1 ATP         0.6151
     30 N3         -3.2117    0.2488    0.7860 N.2       1 ATP        -0.5797
     31 C4         -2.8672   -1.0657    0.7327 C.ar      1 ATP         0.0328
     32 HOG3       -0.9255    7.5968   -3.0393 H         1 ATP         0.4197
     33 HOA2       -0.7033    4.2178    4.4804 H         1 ATP         0.4550
     34 H5'1       -1.1761    2.0499    0.6365 H         1 ATP         0.0431
     35 H5'2       -0.2073    3.2811    1.4874 H         1 ATP         0.0431
     36 H4'         0.0402    1.7079    3.4342 H         1 ATP         0.1325
     37 H3'         1.5907    1.4859    1.1353 H         1 ATP         0.0782
     38 HO3'        2.6839   -0.1150    2.2479 H         1 ATP         0.4062
     39 H2'        -0.0017    0.0018    0.0005 H         1 ATP         0.0689
     40 HO2'        2.0953   -0.9375    0.0709 H         1 ATP         0.4089
     41 H1'        -0.1998   -1.6319    2.6178 H         1 ATP         0.1098
     42 H8         -0.9697   -3.6300    1.2371 H         1 ATP         0.0929
     43 HN62       -6.4060   -2.5723   -1.2840 H         1 ATP         0.3678
     44 H2         -4.8409    1.4176    0.1757 H         1 ATP         0.0383
     45 H45        -6.0768   -0.2826   -0.7263 H         1 ATP         0.4286
@<TRIPOS>BOND
     1    1    2 2
     2    1    3 1
     3    1    4 1
     4    1    8 1
     5    4   32 1
     6    5    6 2
     7    5    7 1
     8    5    8 1
     9    5   12 1
    10    9   10 2
    11    9   11 1
    12    9   12 1
    13    9   13 1
    14   11   33 1
    15   13   14 1
    16   14   15 1
    17   14   34 1
    18   14   35 1
    19   15   16 1
    20   15   17 1
    21   15   36 1
    22   16   21 1
    23   17   18 1
    24   17   19 1
    25   17   37 1
    26   18   38 1
    27   19   20 1
    28   19   21 1
    29   19   39 1
    30   20   40 1
    31   21   22 1
    32   21   41 1
    33   22   23 ar
    34   22   31 ar
    35   23   24 ar
    36   23   42 1
    37   24   25 ar
    38   25   26 ar
    39   25   31 ar
    40   26   27 2
    41   26   28 ar
    42   27   43 1
    43   28   29 ar
    44   28   45 1
    45   29   30 ar
    46   29   44 1
    47   30   31 ar
@<TRIPOS>SUBSTRUCTURE
     1 ATP         1 GROUP 0 A     ****
@<TRIPOS>MOLECULE
[[[3,4-dihydroxy-5-(6-imino-1~{H}-purin-9-yl)tetrahydrofuran-2-yl]methoxy-hydroxy-phosphoryl]oxy-oxido-phosphoryl] hydrogen phosphate
   45    47     1     0     0
SMALL
USER_CHARGES

@<TRIPOS>ATOM
      1 PG          6.3675   -0.2074   -3.3197 P.3       1 ATP         1.5414
      2 O1G         5.0216   -0.3819   -3.9874 O.co2     1 ATP        -0.8562
      3 O2G         6.5485   -0.5001   -1.8469 O.co2     1 ATP        -0.8562
      4 O3G         7.4773   -1.0618   -4.1590 O.3       1 ATP        -0.7907
      5 PB          6.3644    2.7481   -3.1558 P.3       1 ATP         1.6574
      6 O1B         7.3503    3.8107   -3.5878 O.co2     1 ATP        -0.8530
      7 O2B         4.8997    2.8492   -3.5191 O.co2     1 ATP        -0.8530
      8 O3B         6.9239    1.2924   -3.6350 O.3       1 ATP        -0.8003
      9 PA          6.1388    3.5441   -0.3139 P.3       1 ATP         1.7415
     10 O1A         6.5122    4.9778   -0.5559 O.2       1 ATP        -0.8661
     11 O2A         6.8954    2.8621    0.9433 O.3       1 ATP        -0.8077
     12 O3A         6.4925    2.5510   -1.5408 O.3       1 ATP        -0.7685
     13 O5'         4.5673    3.2930   -0.0211 O.3       1 ATP        -0.5590
     14 C5'         4.0922    1.9801    0.2227 C.3       1 ATP         0.1960
     15 C4'         2.5944    2.0310    0.4653 C.3       1 ATP         0.0976
     16 O4'         1.9327    2.5740   -0.6889 O.3       1 ATP        -0.3865
     17 C3'         1.9685    0.6634    0.6767 C.3       1 ATP         0.0901
     18 O3'         2.1425    0.1975    1.9977 O.3       1 ATP        -0.5889
     19 C2'         0.5176    0.9128    0.3099 C.3       1 ATP         0.0574
     20 O2'        -0.2103    1.4454    1.4152 O.3       1 ATP        -0.5923
     21 C1'         0.6219    1.9765   -0.7844 C.3       1 ATP         0.2452
     22 N9          0.4237    1.4496   -2.1357 N.pl3     1 ATP        -0.1834
     23 C8          1.4069    0.9710   -2.9662 C.ar      1 ATP         0.4338
     24 N7          0.9316    0.5623   -4.1260 N.2       1 ATP        -0.6101
     25 C5         -0.4120    0.7884   -4.0344 C.ar      1 ATP         0.2154
     26 C6         -1.4353    0.5283   -5.0204 C.ar      1 ATP         0.6130
     27 N6         -1.1199    0.0176   -6.1586 N.2       1 ATP        -0.8165
     28 N1         -2.6704    0.9095   -4.5147 N.pl3     1 ATP        -0.8617
     29 C2         -2.8863    1.4571   -3.2520 C.ar      1 ATP         0.6151
     30 N3         -1.9805    1.7017   -2.3442 N.2       1 ATP        -0.5797
     31 C4         -0.7561    1.3381   -2.8112 C.ar      1 ATP         0.0328
     32 HOG3        8.4078   -1.0499   -3.8486 H         1 ATP         0.4197
     33 HOA2        6.7749    3.2497    1.8363 H         1 ATP         0.4550
     34 H5'1        4.3175    1.3541   -0.6468 H         1 ATP         0.0431
     35 H5'2        4.6079    1.5730    1.0985 H         1 ATP         0.0431
     36 H4'         2.3752    2.7029    1.3156 H         1 ATP         0.1325
     37 H3'         2.4336   -0.1217   -0.0016 H         1 ATP         0.0782
     38 HO3'        1.7160   -0.6716    2.0397 H         1 ATP         0.4062
     39 H2'         0.0316    0.0155   -0.0339 H         1 ATP         0.0689
     40 HO2'       -0.1608    0.7921    2.1351 H         1 ATP         0.4089
     41 H1'        -0.1474    2.7798   -0.6651 H         1 ATP         0.1098
     42 H8          2.4466    0.9468   -2.6694 H         1 ATP         0.0929
     43 HN62       -1.9661   -0.0965   -6.7275 H         1 ATP         0.3678
     44 H2         -3.9481    1.6825   -3.0660 H         1 ATP         0.0383
     45 H45        -3.4814    0.7753   -5.1133 H         1 ATP         0.4286
@<TRIPOS>BOND
     1    1    2 2
     2    1    3 1
     3    1    4 1
     4    1    8 1
     5    4   32 1
     6    5    6 2
     7    5    7 1
     8    5    8 1
     9    5   12 1
    10    9   10 2
    11    9   11 1
    12    9   12 1
    13    9   13 1
    14   11   33 1
    15   13   14 1
    16   14   15 1
    17   14   34 1
    18   14   35 1
    19   15   16 1
    20   15   17 1
    21   15   36 1
    22   16   21 1
    23   17   18 1
    24   17   19 1
    25   17   37 1
    26   18   38 1
    27   19   20 1
    28   19   21 1
    29   19   39 1
    30   20   40 1
    31   21   22 1
    32   21   41 1
    33   22   23 ar
    34   22   31 ar
    35   23   24 ar
    36   23   42 1
    37   24   25 ar
    38   25   26 ar
    39   25   31 ar
    40   26   27 2
    41   26   28 ar
    42   27   43 1
    43   28   29 ar
    44   28   45 1
    45   29   30 ar
    46   29   44 1
    47   30   31 ar
@<TRIPOS>SUBSTRUCTURE
     1 ATP         1 GROUP 0 A     ****
@<TRIPOS>MOLECULE
[[[3,4-dihydroxy-5-(6-imino-1~{H}-purin-9-yl)tetrahydrofuran-2-yl]methoxy-hydroxy-phosphoryl]oxy-oxido-phosphoryl] hydrogen phosphate
   45    47     1     0     0
SMALL
USER_CHARGES

@<TRIPOS>ATOM
      1 PG          3.8893    3.9570   -4.7247 P.3       1 ATP         1.5414
      2 O1G         4.1441    5.3243   -5.3189 O.co2     1 ATP        -0.8562
      3 O2G         2.9678    3.7844   -3.5379 O.co2     1 ATP        -0.8562
      4 O3G         3.3928    2.9579   -5.9170 O.3       1 ATP        -0.7907
      5 PB          6.4635    3.6433   -3.2975 P.3       1 ATP         1.6574
      6 O1B         7.5161    2.5571   -3.2860 O.co2     1 ATP        -0.8530
      7 O2B         6.8425    5.0947   -3.4913 O.co2     1 ATP        -0.8530
      8 O3B         5.3203    3.2495   -4.3928 O.3       1 ATP        -0.8003
      9 PA          5.9543    3.7373   -0.3833 P.3       1 ATP         1.7415
     10 O1A         6.4347    5.1233   -0.0640 O.2       1 ATP        -0.8661
     11 O2A         7.0417    2.5735   -0.0984 O.3       1 ATP        -0.8077
     12 O3A         5.5700    3.5110   -1.9382 O.3       1 ATP        -0.7685
     13 O5'         4.6408    3.2692    0.4376 O.3       1 ATP        -0.5590
     14 C5'         4.0922    1.9801    0.2227 C.3       1 ATP         0.1960
     15 C4'         2.5944    2.0310    0.4653 C.3       1 ATP         0.0976
     16 O4'         1.9327    2.5740   -0.6889 O.3       1 ATP        -0.3865
     17 C3'         1.9685    0.6634    0.6767 C.3       1 ATP         0.0901
     18 O3'         2.1425    0.1975    1.9977 O.3       1 ATP        -0.5889
     19 C2'         0.5176    0.9128    0.3099 C.3       1 ATP         0.0574
     20 O2'        -0.2103    1.4454    1.4152 O.3       1 ATP        -0.5923
     21 C1'         0.6219    1.9765   -0.7844 C.3       1 ATP         0.2452
     22 N9          0.4237    1.4496   -2.1357 N.pl3     1 ATP        -0.1834
     23 C8          1.4069    0.9710   -2.9662 C.ar      1 ATP         0.4338
     24 N7          0.9316    0.5623   -4.1260 N.2       1 ATP        -0.6101
     25 C5         -0.4120    0.7884   -4.0344 C.ar      1 ATP         0.2154
     26 C6         -1.4353    0.5283   -5.0204 C.ar      1 ATP         0.6130
     27 N6         -1.1199    0.0176   -6.1586 N.2       1 ATP        -0.8165
     28 N1         -2.6704    0.9095   -4.5147 N.pl3     1 ATP        -0.8617
     29 C2         -2.8863    1.4571   -3.2520 C.ar      1 ATP         0.6151
     30 N3         -1.9805    1.7017   -2.3442 N.2       1 ATP        -0.5797
     31 C4         -0.7561    1.3381   -2.8112 C.ar      1 ATP         0.0328
     32 HOG3        3.1855    2.0265   -5.6894 H         1 ATP         0.4197
     33 HOA2        7.3839    2.4574    0.8135 H         1 ATP         0.4550
     34 H5'1        4.3024    1.6722   -0.8067 H         1 ATP         0.0431
     35 H5'2        4.5673    1.2731    0.9105 H         1 ATP         0.0431
     36 H4'         2.3752    2.7029    1.3156 H         1 ATP         0.1325
     37 H3'         2.4336   -0.1217   -0.0016 H         1 ATP         0.0782
     38 HO3'        1.7160   -0.6716    2.0397 H         1 ATP         0.4062
     39 H2'         0.0316    0.0155   -0.0339 H         1 ATP         0.0689
     40 HO2'       -0.1608    0.7921    2.1351 H         1 ATP         0.4089
     41 H1'        -0.1474    2.7798   -0.6651 H         1 ATP         0.1098
     42 H8          2.4466    0.9468   -2.6694 H         1 ATP         0.0929
     43 HN62       -1.9661   -0.0965   -6.7275 H         1 ATP         0.3678
     44 H2         -3.9481    1.6825   -3.0660 H         1 ATP         0.0383
     45 H45        -3.4814    0.7753   -5.1133 H         1 ATP         0.4286
@<TRIPOS>BOND
     1    1    2 2
     2    1    3 1
     3    1    4 1
     4    1    8 1
     5    4   32 1
     6    5    6 2
     7    5    7 1
     8    5    8 1
     9    5   12 1
    10    9   10 2
    11    9   11 1
    12    9   12 1
    13    9   13 1
    14   11   33 1
    15   13   14 1
    16   14   15 1
    17   14   34 1
    18   14   35 1
    19   15   16 1
    20   15   17 1
    21   15   36 1
    22   16   21 1
    23   17   18 1
    24   17   19 1
    25   17   37 1
    26   18   38 1
    27   19   20 1
    28   19   21 1
    29   19   39 1
    30   20   40 1
    31   21   22 1
    32   21   41 1
    33   22   23 ar
    34   22   31 ar
    35   23   24 ar
    36   23   42 1
    37   24   25 ar
    38   25   26 ar
    39   25   31 ar
    40   26   27 2
    41   26   28 ar
    42   27   43 1
    43   28   29 ar
    44   28   45 1
    45   29   30 ar
    46   29   44 1
    47   30   31 ar
@<TRIPOS>SUBSTRUCTURE
     1 ATP         1 GROUP 0 A     ****
@<TRIPOS>MOLECULE
[[[3,4-dihydroxy-5-(6-imino-1~{H}-purin-9-yl)tetrahydrofuran-2-yl]methoxy-hydroxy-phosphoryl]oxy-oxido-phosphoryl] hydrogen phosphate
   45    47     1     0     0
SMALL
USER_CHARGES

@<TRIPOS>ATOM
      1 PG         -4.3724    6.5388   -1.6095 P.3       1 ATP         1.5414
      2 O1G        -3.8311    7.8516   -2.1302 O.co2     1 ATP        -0.8562
      3 O2G        -5.7715    6.4445   -1.0429 O.co2     1 ATP        -0.8562
      4 O3G        -4.2085    5.4104   -2.7783 O.3       1 ATP        -0.7907
      5 PB         -2.8854    6.4674    0.9490 P.3       1 ATP         1.6574
      6 O1B        -2.1337    7.7694    0.7833 O.co2     1 ATP        -0.8530
      7 O2B        -4.0786    6.3678    1.8732 O.co2     1 ATP        -0.8530
      8 O3B        -3.3190    5.9244   -0.5271 O.3       1 ATP        -0.8003
      9 PA         -0.4410    4.8279    0.6352 P.3       1 ATP         1.7415
     10 O1A         0.6017    5.9035    0.5369 O.2       1 ATP        -0.8661
     11 O2A        -0.9414    4.2532   -0.7921 O.3       1 ATP        -0.8077
     12 O3A        -1.8155    5.3004    1.3453 O.3       1 ATP        -0.7685
     13 O5'         0.0171    3.5129    1.4593 O.3       1 ATP        -0.5590
     14 C5'        -0.8811    2.4285    1.6206 C.3       1 ATP         0.1960
     15 C4'        -0.1994    1.3333    2.4288 C.3       1 ATP         0.0976
     16 O4'        -1.1285    0.2356    2.5840 O.3       1 ATP        -0.3865
     17 C3'         1.0324    0.7610    1.7344 C.3       1 ATP         0.0901
     18 O3'         1.9175    0.2377    2.7247 O.3       1 ATP        -0.5889
     19 C2'         0.4468   -0.3802    0.9263 C.3       1 ATP         0.0574
     20 O2'         1.3993   -1.3703    0.5961 O.3       1 ATP        -0.5923
     21 C1'        -0.6159   -0.9100    1.8769 C.3       1 ATP         0.2452
     22 N9         -1.7127   -1.6108    1.2130 N.pl3     1 ATP        -0.1834
     23 C8         -1.7690   -2.9583    0.9549 C.ar      1 ATP         0.4338
     24 N7         -2.8827   -3.3076    0.3418 N.2       1 ATP        -0.6101
     25 C5         -3.5683   -2.1351    0.2017 C.ar      1 ATP         0.2154
     26 C6         -4.8617   -1.9185   -0.4044 C.ar      1 ATP         0.6130
     27 N6         -5.5166   -2.9094   -0.8993 N.2       1 ATP        -0.8165
     28 N1         -5.1837   -0.5701   -0.3344 N.pl3     1 ATP        -0.8617
     29 C2         -4.3821    0.4180    0.2330 C.ar      1 ATP         0.6151
     30 N3         -3.2117    0.2488    0.7860 N.2       1 ATP        -0.5797
     31 C4         -2.8672   -1.0657    0.7327 C.ar      1 ATP         0.0328
     32 HOG3       -4.5163    4.4977   -2.5923 H         1 ATP         0.4197
     33 HOA2       -1.3554    4.8699   -1.4328 H         1 ATP         0.4550
     34 H5'1       -1.7775    2.7843    2.1389 H         1 ATP         0.0431
     35 H5'2       -1.1658    2.0534    0.6322 H         1 ATP         0.0431
     36 H4'         0.0402    1.7079    3.4342 H         1 ATP         0.1325
     37 H3'         1.5907    1.4859    1.1353 H         1 ATP         0.0782
     38 HO3'        2.6839   -0.1150    2.2479 H         1 ATP         0.4062
     39 H2'        -0.0017    0.0018    0.0005 H         1 ATP         0.0689
     40 HO2'        2.0953   -0.9375    0.0709 H         1 ATP         0.4089
     41 H1'        -0.1998   -1.6319    2.6178 H         1 ATP         0.1098
     42 H8         -0.9697   -3.6300    1.2371 H         1 ATP         0.0929
     43 HN62       -6.4060   -2.5723   -1.2840 H         1 ATP         0.3678
     44 H2         -4.8409    1.4176    0.1757 H         1 ATP         0.0383
     45 H45        -6.0768   -0.2826   -0.7263 H         1 ATP         0.4286
@<TRIPOS>BOND
     1    1    2 2
     2    1    3 1
     3    1    4 1
     4    1    8 1
     5    4   32 1
     6    5    6 2
     7    5    7 1
     8    5    8 1
     9    5   12 1
    10    9   10 2
    11    9   11 1
    12    9   12 1
    13    9   13 1
    14   11   33 1
    15   13   14 1
    16   14   15 1
    17   14   34 1
    18   14   35 1
    19   15   16 1
    20   15   17 1
    21   15   36 1
    22   16   21 1
    23   17   18 1
    24   17   19 1
    25   17   37 1
    26   18   38 1
    27   19   20 1
    28   19   21 1
    29   19   39 1
    30   20   40 1
    31   21   22 1
    32   21   41 1
    33   22   23 ar
    34   22   31 ar
    35   23   24 ar
    36   23   42 1
    37   24   25 ar
    38   25   26 ar
    39   25   31 ar
    40   26   27 2
    41   26   28 ar
    42   27   43 1
    43   28   29 ar
    44   28   45 1
    45   29   30 ar
    46   29   44 1
    47   30   31 ar
@<TRIPOS>SUBSTRUCTURE
     1 ATP         1 GROUP 0 A     ****
@<TRIPOS>MOLECULE
[[[3,4-dihydroxy-5-(6-imino-1~{H}-purin-9-yl)tetrahydrofuran-2-yl]methoxy-hydroxy-phosphoryl]oxy-oxido-phosphoryl] hydrogen phosphate
   45    47     1     0     0
SMALL
USER_CHARGES

@<TRIPOS>ATOM
      1 PG         -2.1921    9.3381    0.7480 P.3       1 ATP         1.5414
      2 O1G        -3.1149    9.8531    1.8300 O.co2     1 ATP        -0.8562
      3 O2G        -2.5238    9.5333   -0.7147 O.co2     1 ATP        -0.8562
      4 O3G        -0.6930    9.9241    1.0229 O.3       1 ATP        -0.7907
      5 PB         -2.8854    6.4674    0.9490 P.3       1 ATP         1.6574
      6 O1B        -3.9029    6.5818    2.0622 O.co2     1 ATP        -0.8530
      7 O2B        -3.3185    6.2635   -0.4857 O.co2     1 ATP        -0.8530
      8 O3B        -1.8905    7.7586    1.0176 O.3       1 ATP        -0.8003
      9 PA         -0.4410    4.8279    0.6352 P.3       1 ATP         1.7415
     10 O1A         0.6017    5.9035    0.5369 O.2       1 ATP        -0.8661
     11 O2A        -0.9414    4.2532   -0.7921 O.3       1 ATP        -0.8077
     12 O3A        -1.8155    5.3004    1.3453 O.3       1 ATP        -0.7685
     13 O5'         0.0171    3.5129    1.4593 O.3       1 ATP        -0.5590
     14 C5'        -0.8811    2.4285    1.6206 C.3       1 ATP         0.1960
     15 C4'        -0.1994    1.3333    2.4288 C.3       1 ATP         0.0976
     16 O4'        -1.1285    0.2356    2.5840 O.3       1 ATP        -0.3865
     17 C3'         1.0324    0.7610    1.7344 C.3       1 ATP         0.0901
     18 O3'         1.9175    0.2377    2.7247 O.3       1 ATP        -0.5889
     19 C2'         0.4468   -0.3802    0.9263 C.3       1 ATP         0.0574
     20 O2'         1.3993   -1.3703    0.5961 O.3       1 ATP        -0.5923
     21 C1'        -0.6159   -0.9100    1.8769 C.3       1 ATP         0.2452
     22 N9         -1.7127   -1.6108    1.2130 N.pl3     1 ATP        -0.1834
     23 C8         -1.7690   -2.9583    0.9549 C.ar      1 ATP         0.4338
     24 N7         -2.8827   -3.3076    0.3418 N.2       1 ATP        -0.6101
     25 C5         -3.5683   -2.1351    0.2017 C.ar      1 ATP         0.2154
     26 C6         -4.8617   -1.9185   -0.4044 C.ar      1 ATP         0.6130
     27 N6         -5.5166   -2.9094   -0.8993 N.2       1 ATP        -0.8165
     28 N1         -5.1837   -0.5701   -0.3344 N.pl3     1 ATP        -0.8617
     29 C2         -4.3821    0.4180    0.2330 C.ar      1 ATP         0.6151
     30 N3         -3.2117    0.2488    0.7860 N.2       1 ATP        -0.5797
     31 C4         -2.8672   -1.0657    0.7327 C.ar      1 ATP         0.0328
     32 HOG3        0.0254    9.6781    0.4018 H         1 ATP         0.4197
     33 HOA2       -0.2861    3.8370   -1.3917 H         1 ATP         0.4550
     34 H5'1       -1.7775    2.7843    2.1389 H         1 ATP         0.0431
     35 H5'2       -1.1658    2.0534    0.6322 H         1 ATP         0.0431
     36 H4'         0.0402    1.7079    3.4342 H         1 ATP         0.1325
     37 H3'         1.5907    1.4859    1.1353 H         1 ATP         0.0782
     38 HO3'        2.6839   -0.1150    2.2479 H         1 ATP         0.4062
     39 H2'        -0.0017    0.0018    0.0005 H         1 ATP         0.0689
     40 HO2'        2.0953   -0.9375    0.0709 H         1 ATP         0.4089
     41 H1'        -0.1998   -1.6319    2.6178 H         1 ATP         0.1098
     42 H8         -0.9697   -3.6300    1.2371 H         1 ATP         0.0929
     43 HN62       -6.4060   -2.5723   -1.2840 H         1 ATP         0.3678
     44 H2         -4.8409    1.4176    0.1757 H         1 ATP         0.0383
     45 H45        -6.0768   -0.2826   -0.7263 H         1 ATP         0.4286
@<TRIPOS>BOND
     1    1    2 2
     2    1    3 1
     3    1    4 1
     4    1    8 1
     5    4   32 1
     6    5    6 2
     7    5    7 1
     8    5    8 1
     9    5   12 1
    10    9   10 2
    11    9   11 1
    12    9   12 1
    13    9   13 1
    14   11   33 1
    15   13   14 1
    16   14   15 1
    17   14   34 1
    18   14   35 1
    19   15   16 1
    20   15   17 1
    21   15   36 1
    22   16   21 1
    23   17   18 1
    24   17   19 1
    25   17   37 1
    26   18   38 1
    27   19   20 1
    28   19   21 1
    29   19   39 1
    30   20   40 1
    31   21   22 1
    32   21   41 1
    33   22   23 ar
    34   22   31 ar
    35   23   24 ar
    36   23   42 1
    37   24   25 ar
    38   25   26 ar
    39   25   31 ar
    40   26   27 2
    41   26   28 ar
    42   27   43 1
    43   28   29 ar
    44   28   45 1
    45   29   30 ar
    46   29   44 1
    47   30   31 ar
@<TRIPOS>SUBSTRUCTURE
     1 ATP         1 GROUP 0 A     ****
@<TRIPOS>MOLECULE
[[[3,4-dihydroxy-5-(6-imino-1~{H}-purin-9-yl)tetrahydrofuran-2-yl]methoxy-hydroxy-phosphoryl]oxy-oxido-phosphoryl] hydrogen phosphate
   45    47     1     0     0
SMALL
USER_CHARGES

@<TRIPOS>ATOM
      1 PG         -4.6151    1.5093   -2.0724 P.3       1 ATP         1.5414
      2 O1G        -6.1267    1.5599   -2.0706 O.co2     1 ATP        -0.8562
      3 O2G        -3.8616    0.7392   -1.0110 O.co2     1 ATP        -0.8562
      4 O3G        -4.1154    0.9955   -3.5396 O.3       1 ATP        -0.7907
      5 PB         -4.1117    4.2370   -1.0390 P.3       1 ATP         1.6574
      6 O1B        -3.2641    5.3903   -1.5282 O.co2     1 ATP        -0.8530
      7 O2B        -5.5572    4.4437   -0.6446 O.co2     1 ATP        -0.8530
      8 O3B        -4.0350    3.0318   -2.1359 O.3       1 ATP        -0.8003
      9 PA         -2.9690    4.0281    1.6835 P.3       1 ATP         1.7415
     10 O1A        -4.1648    4.3954    2.5134 O.2       1 ATP        -0.8661
     11 O2A        -1.9470    5.2523    1.4099 O.3       1 ATP        -0.8077
     12 O3A        -3.3299    3.5086    0.1947 O.3       1 ATP        -0.7685
     13 O5'        -2.0397    2.8622    2.3122 O.3       1 ATP        -0.5590
     14 C5'        -0.8811    2.4285    1.6206 C.3       1 ATP         0.1960
     15 C4'        -0.1994    1.3333    2.4288 C.3       1 ATP         0.0976
     16 O4'        -1.1285    0.2356    2.5840 O.3       1 ATP        -0.3865
     17 C3'         1.0324    0.7610    1.7344 C.3       1 ATP         0.0901
     18 O3'         1.9175    0.2377    2.7247 O.3       1 ATP        -0.5889
     19 C2'         0.4468   -0.3802    0.9263 C.3       1 ATP         0.0574
     20 O2'         1.3993   -1.3703    0.5961 O.3       1 ATP        -0.5923
     21 C1'        -0.6159   -0.9100    1.8769 C.3       1 ATP         0.2452
     22 N9         -1.7127   -1.6108    1.2130 N.pl3     1 ATP        -0.1834
     23 C8         -3.0370   -1.2489    1.2455 C.ar      1 ATP         0.4338
     24 N7         -3.8008   -2.0709    0.5534 N.2       1 ATP        -0.6101
     25 C5         -2.9295   -2.9976    0.0567 C.ar      1 ATP         0.2154
     26 C6         -3.2152   -4.1411   -0.7786 C.ar      1 ATP         0.6130
     27 N6         -4.4238   -4.3865   -1.1456 N.2       1 ATP        -0.8165
     28 N1         -2.0349   -4.8186   -1.0521 N.pl3     1 ATP        -0.8617
     29 C2         -0.7728   -4.4501   -0.5916 C.ar      1 ATP         0.6151
     30 N3         -0.4885   -3.4234    0.1630 N.2       1 ATP        -0.5797
     31 C4         -1.6274   -2.7377    0.4492 C.ar      1 ATP         0.0328
     32 HOG3       -3.1515    0.9091   -3.7004 H         1 ATP         0.4197
     33 HOA2       -1.5253    5.6979    2.1752 H         1 ATP         0.4550
     34 H5'1       -1.1761    2.0499    0.6365 H         1 ATP         0.0431
     35 H5'2       -0.2073    3.2811    1.4874 H         1 ATP         0.0431
     36 H4'         0.0402    1.7079    3.4342 H         1 ATP         0.1325
     37 H3'         1.5907    1.4859    1.1353 H         1 ATP         0.0782
     38 HO3'        2.6839   -0.1150    2.2479 H         1 ATP         0.4062
     39 H2'        -0.0017    0.0018    0.0005 H         1 ATP         0.0689
     40 HO2'        2.0953   -0.9375    0.0709 H         1 ATP         0.4089
     41 H1'        -0.1998   -1.6319    2.6178 H         1 ATP         0.1098
     42 H8         -3.3806   -0.3795    1.7893 H         1 ATP         0.0929
     43 HN62       -4.4384   -5.2300   -1.7295 H         1 ATP         0.3678
     44 H2          0.0180   -5.1355   -0.9348 H         1 ATP         0.0383
     45 H45        -2.0977   -5.6477   -1.6374 H         1 ATP         0.4286
@<TRIPOS>BOND
     1    1    2 2
     2    1    3 1
     3    1    4 1
     4    1    8 1
     5    4   32 1
     6    5    6 2
     7    5    7 1
     8    5    8 1
     9    5   12 1
    10    9   10 2
    11    9   11 1
    12    9   12 1
    13    9   13 1
    14   11   33 1
    15   13   14 1
    16   14   15 1
    17   14   34 1
    18   14   35 1
    19   15   16 1
    20   15   17 1
    21   15   36 1
    22   16   21 1
    23   17   18 1
    24   17   19 1
    25   17   37 1
    26   18   38 1
    27   19   20 1
    28   19   21 1
    29   19   39 1
    30   20   40 1
    31   21   22 1
    32   21   41 1
    33   22   23 ar
    34   22   31 ar
    35   23   24 ar
    36   23   42 1
    37   24   25 ar
    38   25   26 ar
    39   25   31 ar
    40   26   27 2
    41   26   28 ar
    42   27   43 1
    43   28   29 ar
    44   28   45 1
    45   29   30 ar
    46   29   44 1
    47   30   31 ar
@<TRIPOS>SUBSTRUCTURE
     1 ATP         1 GROUP 0 A     ****
@<TRIPOS>MOLECULE
[[[3,4-dihydroxy-5-(6-imino-1~{H}-purin-9-yl)tetrahydrofuran-2-yl]methoxy-hydroxy-phosphoryl]oxy-oxido-phosphoryl] hydrogen phosphate
   45    47     1     0     0
SMALL
USER_CHARGES

@<TRIPOS>ATOM
      1 PG         -4.2870    6.3364   -1.2057 P.3       1 ATP         1.5414
      2 O1G        -3.6097    5.4059   -2.1871 O.co2     1 ATP        -0.8562
      3 O2G        -4.1351    7.8365   -1.3248 O.co2     1 ATP        -0.8562
      4 O3G        -5.8794    5.9775   -1.1653 O.3       1 ATP        -0.7907
      5 PB         -2.4601    5.9172    1.0853 P.3       1 ATP         1.6574
      6 O1B        -1.8919    7.3155    0.9868 O.co2     1 ATP        -0.8530
      7 O2B        -2.6137    5.2302    2.4240 O.co2     1 ATP        -0.8530
      8 O3B        -3.8954    5.8821    0.3105 O.3       1 ATP        -0.8003
      9 PA         -0.0705    4.4476    0.1413 P.3       1 ATP         1.7415
     10 O1A         0.9358    5.5605    0.0915 O.2       1 ATP        -0.8661
     11 O2A         0.0245    3.4081   -1.0950 O.3       1 ATP        -0.8077
     12 O3A        -1.6095    4.9430    0.0898 O.3       1 ATP        -0.7685
     13 O5'         0.0171    3.5129    1.4593 O.3       1 ATP        -0.5590
     14 C5'        -0.8811    2.4285    1.6206 C.3       1 ATP         0.1960
     15 C4'        -0.1994    1.3333    2.4288 C.3       1 ATP         0.0976
     16 O4'        -1.1285    0.2356    2.5840 O.3       1 ATP        -0.3865
     17 C3'         1.0324    0.7610    1.7344 C.3       1 ATP         0.0901
     18 O3'         1.9175    0.2377    2.7247 O.3       1 ATP        -0.5889
     19 C2'         0.4468   -0.3802    0.9263 C.3       1 ATP         0.0574
     20 O2'         1.3993   -1.3703    0.5961 O.3       1 ATP        -0.5923
     21 C1'        -0.6159   -0.9100    1.8769 C.3       1 ATP         0.2452
     22 N9         -1.7127   -1.6108    1.2130 N.pl3     1 ATP        -0.1834
     23 C8         -1.7690   -2.9583    0.9549 C.ar      1 ATP         0.4338
     24 N7         -2.8827   -3.3076    0.3418 N.2       1 ATP        -0.6101
     25 C5         -3.5683   -2.1351    0.2017 C.ar      1 ATP         0.2154
     26 C6         -4.8617   -1.9185   -0.4044 C.ar      1 ATP         0.6130
     27 N6         -5.5166   -2.9094   -0.8993 N.2       1 ATP        -0.8165
     28 N1         -5.1837   -0.5701   -0.3344 N.pl3     1 ATP        -0.8617
     29 C2         -4.3821    0.4180    0.2330 C.ar      1 ATP         0.6151
     30 N3         -3.2117    0.2488    0.7860 N.2       1 ATP        -0.5797
     31 C4         -2.8672   -1.0657    0.7327 C.ar      1 ATP         0.0328
     32 HOG3       -6.4602    6.4982   -0.5705 H         1 ATP         0.4197
     33 HOA2        0.8591    2.9119   -1.2342 H         1 ATP         0.4550
     34 H5'1       -1.7775    2.7843    2.1389 H         1 ATP         0.0431
     35 H5'2       -1.1658    2.0534    0.6322 H         1 ATP         0.0431
     36 H4'         0.0402    1.7079    3.4342 H         1 ATP         0.1325
     37 H3'         1.5907    1.4859    1.1353 H         1 ATP         0.0782
     38 HO3'        2.6839   -0.1150    2.2479 H         1 ATP         0.4062
     39 H2'        -0.0017    0.0018    0.0005 H         1 ATP         0.0689
     40 HO2'        2.0953   -0.9375    0.0709 H         1 ATP         0.4089
     41 H1'        -0.1998   -1.6319    2.6178 H         1 ATP         0.1098
     42 H8         -0.9697   -3.6300    1.2371 H         1 ATP         0.0929
     43 HN62       -6.4060   -2.5723   -1.2840 H         1 ATP         0.3678
     44 H2         -4.8409    1.4176    0.1757 H         1 ATP         0.0383
     45 H45        -6.0768   -0.2826   -0.7263 H         1 ATP         0.4286
@<TRIPOS>BOND
     1    1    2 2
     2    1    3 1
     3    1    4 1
     4    1    8 1
     5    4   32 1
     6    5    6 2
     7    5    7 1
     8    5    8 1
     9    5   12 1
    10    9   10 2
    11    9   11 1
    12    9   12 1
    13    9   13 1
    14   11   33 1
    15   13   14 1
    16   14   15 1
    17   14   34 1
    18   14   35 1
    19   15   16 1
    20   15   17 1
    21   15   36 1
    22   16   21 1
    23   17   18 1
    24   17   19 1
    25   17   37 1
    26   18   38 1
    27   19   20 1
    28   19   21 1
    29   19   39 1
    30   20   40 1
    31   21   22 1
    32   21   41 1
    33   22   23 ar
    34   22   31 ar
    35   23   24 ar
    36   23   42 1
    37   24   25 ar
    38   25   26 ar
    39   25   31 ar
    40   26   27 2
    41   26   28 ar
    42   27   43 1
    43   28   29 ar
    44   28   45 1
    45   29   30 ar
    46   29   44 1
    47   30   31 ar
@<TRIPOS>SUBSTRUCTURE
     1 ATP         1 GROUP 0 A     ****
@<TRIPOS>MOLECULE
[[[3,4-dihydroxy-5-(6-imino-1~{H}-purin-9-yl)tetrahydrofuran-2-yl]methoxy-hydroxy-phosphoryl]oxy-oxido-phosphoryl] hydrogen phosphate
   45    47     1     0     0
SMALL
USER_CHARGES

@<TRIPOS>ATOM
      1 PG         -0.1774    3.8689    6.7055 P.3       1 ATP         1.5414
      2 O1G         0.7466    4.8435    7.4011 O.co2     1 ATP        -0.8562
      3 O2G         0.3632    2.8409    5.7369 O.co2     1 ATP        -0.8562
      4 O3G        -1.0657    3.0982    7.8382 O.3       1 ATP        -0.7907
      5 PB         -1.3291    5.7397    4.7216 P.3       1 ATP         1.6574
      6 O1B        -2.7473    6.1012    4.3399 O.co2     1 ATP        -0.8530
      7 O2B        -0.3026    6.8116    5.0136 O.co2     1 ATP        -0.8530
      8 O3B        -1.3764    4.7026    5.9801 O.3       1 ATP        -0.8003
      9 PA         -0.3718    4.9776    2.0264 P.3       1 ATP         1.7415
     10 O1A         0.6640    6.0385    1.7915 O.2       1 ATP        -0.8661
     11 O2A        -1.8128    5.2955    1.3627 O.3       1 ATP        -0.8077
     12 O3A        -0.7290    4.7337    3.5851 O.3       1 ATP        -0.7685
     13 O5'         0.0171    3.5129    1.4593 O.3       1 ATP        -0.5590
     14 C5'        -0.8811    2.4285    1.6206 C.3       1 ATP         0.1960
     15 C4'        -0.1994    1.3333    2.4288 C.3       1 ATP         0.0976
     16 O4'        -1.1285    0.2356    2.5840 O.3       1 ATP        -0.3865
     17 C3'         1.0324    0.7610    1.7344 C.3       1 ATP         0.0901
     18 O3'         1.9175    0.2377    2.7247 O.3       1 ATP        -0.5889
     19 C2'         0.4468   -0.3802    0.9263 C.3       1 ATP         0.0574
     20 O2'         1.3993   -1.3703    0.5961 O.3       1 ATP        -0.5923
     21 C1'        -0.6159   -0.9100    1.8769 C.3       1 ATP         0.2452
     22 N9         -1.7127   -1.6108    1.2130 N.pl3     1 ATP        -0.1834
     23 C8         -2.8662   -1.0361    0.7388 C.ar      1 ATP         0.4338
     24 N7         -3.6774   -1.9166    0.1867 N.2       1 ATP        -0.6101
     25 C5         -3.0159   -3.1045    0.3122 C.ar      1 ATP         0.2154
     26 C6         -3.4377   -4.4169   -0.1199 C.ar      1 ATP         0.6130
     27 N6         -4.5720   -4.5691   -0.7080 N.2       1 ATP        -0.8165
     28 N1         -2.4600   -5.3463    0.2071 N.pl3     1 ATP        -0.8617
     29 C2         -1.2595   -5.0554    0.8515 C.ar      1 ATP         0.6151
     30 N3         -0.8555   -3.8803    1.2516 N.2       1 ATP        -0.5797
     31 C4         -1.7946   -2.9457    0.9448 C.ar      1 ATP         0.0328
     32 HOG3       -1.7184    2.4279    7.5431 H         1 ATP         0.4197
     33 HOA2       -1.8712    5.4150    0.3908 H         1 ATP         0.4550
     34 H5'1       -1.7775    2.7843    2.1389 H         1 ATP         0.0431
     35 H5'2       -1.1658    2.0534    0.6322 H         1 ATP         0.0431
     36 H4'         0.0402    1.7079    3.4342 H         1 ATP         0.1325
     37 H3'         1.5907    1.4859    1.1353 H         1 ATP         0.0782
     38 HO3'        2.6839   -0.1150    2.2479 H         1 ATP         0.4062
     39 H2'        -0.0017    0.0018    0.0005 H         1 ATP         0.0689
     40 HO2'        2.0953   -0.9375    0.0709 H         1 ATP         0.4089
     41 H1'        -0.1998   -1.6319    2.6178 H         1 ATP         0.1098
     42 H8         -3.0558    0.0252    0.8256 H         1 ATP         0.0929
     43 HN62       -4.7047   -5.5592   -0.9421 H         1 ATP         0.3678
     44 H2         -0.6372   -5.9505    1.0077 H         1 ATP         0.0383
     45 H45        -2.6338   -6.3155   -0.0469 H         1 ATP         0.4286
@<TRIPOS>BOND
     1    1    2 2
     2    1    3 1
     3    1    4 1
     4    1    8 1
     5    4   32 1
     6    5    6 2
     7    5    7 1
     8    5    8 1
     9    5   12 1
    10    9   10 2
    11    9   11 1
    12    9   12 1
    13    9   13 1
    14   11   33 1
    15   13   14 1
    16   14   15 1
    17   14   34 1
    18   14   35 1
    19   15   16 1
    20   15   17 1
    21   15   36 1
    22   16   21 1
    23   17   18 1
    24   17   19 1
    25   17   37 1
    26   18   38 1
    27   19   20 1
    28   19   21 1
    29   19   39 1
    30   20   40 1
    31   21   22 1
    32   21   41 1
    33   22   23 ar
    34   22   31 ar
    35   23   24 ar
    36   23   42 1
    37   24   25 ar
    38   25   26 ar
    39   25   31 ar
    40   26   27 2
    41   26   28 ar
    42   27   43 1
    43   28   29 ar
    44   28   45 1
    45   29   30 ar
    46   29   44 1
    47   30   31 ar
@<TRIPOS>SUBSTRUCTURE
     1 ATP         1 GROUP 0 A     ****
@<TRIPOS>MOLECULE
[[[3,4-dihydroxy-5-(6-imino-1~{H}-purin-9-yl)tetrahydrofuran-2-yl]methoxy-hydroxy-phosphoryl]oxy-oxido-phosphoryl] hydrogen phosphate
   45    47     1     0     0
SMALL
USER_CHARGES

@<TRIPOS>ATOM
      1 PG         -3.8951    1.8870   -2.0034 P.3       1 ATP         1.5414
      2 O1G        -3.9736    0.4229   -1.6324 O.co2     1 ATP        -0.8562
      3 O2G        -2.5641    2.6025   -2.0679 O.co2     1 ATP        -0.8562
      4 O3G        -4.6706    2.1043   -3.4238 O.3       1 ATP        -0.7907
      5 PB         -4.8447    3.0127    0.5644 P.3       1 ATP         1.6574
      6 O1B        -5.9345    3.9980    0.9237 O.co2     1 ATP        -0.8530
      7 O2B        -4.7214    1.6887    1.2853 O.co2     1 ATP        -0.8530
      8 O3B        -4.9053    2.7313   -1.0415 O.3       1 ATP        -0.8003
      9 PA         -2.5925    4.4094    1.8827 P.3       1 ATP         1.7415
     10 O1A        -3.4550    5.1144    2.8891 O.2       1 ATP        -0.8661
     11 O2A        -1.4926    5.3570    1.1685 O.3       1 ATP        -0.8077
     12 O3A        -3.4080    3.7839    0.6336 O.3       1 ATP        -0.7685
     13 O5'        -1.7334    3.1724    2.4743 O.3       1 ATP        -0.5590
     14 C5'        -0.8811    2.4285    1.6206 C.3       1 ATP         0.1960
     15 C4'        -0.1994    1.3333    2.4288 C.3       1 ATP         0.0976
     16 O4'        -1.1285    0.2356    2.5840 O.3       1 ATP        -0.3865
     17 C3'         1.0324    0.7610    1.7344 C.3       1 ATP         0.0901
     18 O3'         1.9175    0.2377    2.7247 O.3       1 ATP        -0.5889
     19 C2'         0.4468   -0.3802    0.9263 C.3       1 ATP         0.0574
     20 O2'         1.3993   -1.3703    0.5961 O.3       1 ATP        -0.5923
     21 C1'        -0.6159   -0.9100    1.8769 C.3       1 ATP         0.2452
     22 N9         -1.7127   -1.6108    1.2130 N.pl3     1 ATP        -0.1834
     23 C8         -3.0370   -1.2489    1.2455 C.ar      1 ATP         0.4338
     24 N7         -3.8008   -2.0709    0.5534 N.2       1 ATP        -0.6101
     25 C5         -2.9295   -2.9976    0.0567 C.ar      1 ATP         0.2154
     26 C6         -3.2152   -4.1411   -0.7786 C.ar      1 ATP         0.6130
     27 N6         -4.4238   -4.3865   -1.1456 N.2       1 ATP        -0.8165
     28 N1         -2.0349   -4.8186   -1.0521 N.pl3     1 ATP        -0.8617
     29 C2         -0.7728   -4.4501   -0.5916 C.ar      1 ATP         0.6151
     30 N3         -0.4885   -3.4234    0.1630 N.2       1 ATP        -0.5797
     31 C4         -1.6274   -2.7377    0.4492 C.ar      1 ATP         0.0328
     32 HOG3       -4.7078    3.0088   -3.8016 H         1 ATP         0.4197
     33 HOA2       -0.8196    5.8045    1.7244 H         1 ATP         0.4550
     34 H5'1       -1.4795    1.9922    0.8142 H         1 ATP         0.0431
     35 H5'2       -0.1362    3.1035    1.1868 H         1 ATP         0.0431
     36 H4'         0.0402    1.7079    3.4342 H         1 ATP         0.1325
     37 H3'         1.5907    1.4859    1.1353 H         1 ATP         0.0782
     38 HO3'        2.6839   -0.1150    2.2479 H         1 ATP         0.4062
     39 H2'        -0.0017    0.0018    0.0005 H         1 ATP         0.0689
     40 HO2'        2.0953   -0.9375    0.0709 H         1 ATP         0.4089
     41 H1'        -0.1998   -1.6319    2.6178 H         1 ATP         0.1098
     42 H8         -3.3806   -0.3795    1.7893 H         1 ATP         0.0929
     43 HN62       -4.4384   -5.2300   -1.7295 H         1 ATP         0.3678
     44 H2          0.0180   -5.1355   -0.9348 H         1 ATP         0.0383
     45 H45        -2.0977   -5.6477   -1.6374 H         1 ATP         0.4286
@<TRIPOS>BOND
     1    1    2 2
     2    1    3 1
     3    1    4 1
     4    1    8 1
     5    4   32 1
     6    5    6 2
     7    5    7 1
     8    5    8 1
     9    5   12 1
    10    9   10 2
    11    9   11 1
    12    9   12 1
    13    9   13 1
    14   11   33 1
    15   13   14 1
    16   14   15 1
    17   14   34 1
    18   14   35 1
    19   15   16 1
    20   15   17 1
    21   15   36 1
    22   16   21 1
    23   17   18 1
    24   17   19 1
    25   17   37 1
    26   18   38 1
    27   19   20 1
    28   19   21 1
    29   19   39 1
    30   20   40 1
    31   21   22 1
    32   21   41 1
    33   22   23 ar
    34   22   31 ar
    35   23   24 ar
    36   23   42 1
    37   24   25 ar
    38   25   26 ar
    39   25   31 ar
    40   26   27 2
    41   26   28 ar
    42   27   43 1
    43   28   29 ar
    44   28   45 1
    45   29   30 ar
    46   29   44 1
    47   30   31 ar
@<TRIPOS>SUBSTRUCTURE
     1 ATP         1 GROUP 0 A     ****
@<TRIPOS>MOLECULE
[[[3,4-dihydroxy-5-(6-imino-1~{H}-purin-9-yl)tetrahydrofuran-2-yl]methoxy-hydroxy-phosphoryl]oxy-oxido-phosphoryl] hydrogen phosphate
   45    47     1     0     0
SMALL
USER_CHARGES

@<TRIPOS>ATOM
      1 PG         -1.4259    7.9523   -0.3922 P.3       1 ATP         1.5414
      2 O1G        -0.5137    7.9078    0.8134 O.co2     1 ATP        -0.8562
      3 O2G        -2.6409    8.8526   -0.4151 O.co2     1 ATP        -0.8562
      4 O3G        -0.5218    8.2666   -1.7150 O.3       1 ATP        -0.7907
      5 PB         -2.8249    5.3825    0.0564 P.3       1 ATP         1.6574
      6 O1B        -4.1326    6.0648    0.3912 O.co2     1 ATP        -0.8530
      7 O2B        -2.8011    4.0487   -0.6565 O.co2     1 ATP        -0.8530
      8 O3B        -1.8844    6.4326   -0.7649 O.3       1 ATP        -0.8003
      9 PA         -2.1760    4.4068    2.7745 P.3       1 ATP         1.7415
     10 O1A        -3.4497    4.7369    3.4974 O.2       1 ATP        -0.8661
     11 O2A        -0.8322    4.6898    3.6302 O.3       1 ATP        -0.8077
     12 O3A        -1.9401    5.2633    1.4227 O.3       1 ATP        -0.7685
     13 O5'        -2.0397    2.8622    2.3122 O.3       1 ATP        -0.5590
     14 C5'        -0.8811    2.4285    1.6206 C.3       1 ATP         0.1960
     15 C4'        -0.1994    1.3333    2.4288 C.3       1 ATP         0.0976
     16 O4'        -1.1285    0.2356    2.5840 O.3       1 ATP        -0.3865
     17 C3'         1.0324    0.7610    1.7344 C.3       1 ATP         0.0901
     18 O3'         1.9175    0.2377    2.7247 O.3       1 ATP        -0.5889
     19 C2'         0.4468   -0.3802    0.9263 C.3       1 ATP         0.0574
     20 O2'         1.3993   -1.3703    0.5961 O.3       1 ATP        -0.5923
     21 C1'        -0.6159   -0.9100    1.8769 C.3       1 ATP         0.2452
     22 N9         -1.7127   -1.6108    1.2130 N.pl3     1 ATP        -0.1834
     23 C8         -1.7690   -2.9583    0.9549 C.ar      1 ATP         0.4338
     24 N7         -2.8827   -3.3076    0.3418 N.2       1 ATP        -0.6101
     25 C5         -3.5683   -2.1351    0.2017 C.ar      1 ATP         0.2154
     26 C6         -4.8617   -1.9185   -0.4044 C.ar      1 ATP         0.6130
     27 N6         -5.5166   -2.9094   -0.8993 N.2       1 ATP        -0.8165
     28 N1         -5.1837   -0.5701   -0.3344 N.pl3     1 ATP        -0.8617
     29 C2         -4.3821    0.4180    0.2330 C.ar      1 ATP         0.6151
     30 N3         -3.2117    0.2488    0.7860 N.2       1 ATP        -0.5797
     31 C4         -2.8672   -1.0657    0.7327 C.ar      1 ATP         0.0328
     32 HOG3       -0.9722    8.3276   -2.5844 H         1 ATP         0.4197
     33 HOA2       -0.6510    5.6026    3.9402 H         1 ATP         0.4550
     34 H5'1       -1.1761    2.0499    0.6365 H         1 ATP         0.0431
     35 H5'2       -0.2073    3.2811    1.4874 H         1 ATP         0.0431
     36 H4'         0.0402    1.7079    3.4342 H         1 ATP         0.1325
     37 H3'         1.5907    1.4859    1.1353 H         1 ATP         0.0782
     38 HO3'        2.1521    0.9800    3.3017 H         1 ATP         0.4062
     39 H2'        -0.0017    0.0018    0.0005 H         1 ATP         0.0689
     40 HO2'        0.9369   -2.0558    0.0825 H         1 ATP         0.4089
     41 H1'        -0.1998   -1.6319    2.6178 H         1 ATP         0.1098
     42 H8         -0.9697   -3.6300    1.2371 H         1 ATP         0.0929
     43 HN62       -6.4060   -2.5723   -1.2840 H         1 ATP         0.3678
     44 H2         -4.8409    1.4176    0.1757 H         1 ATP         0.0383
     45 H45        -6.0768   -0.2826   -0.7263 H         1 ATP         0.4286
@<TRIPOS>BOND
     1    1    2 2
     2    1    3 1
     3    1    4 1
     4    1    8 1
     5    4   32 1
     6    5    6 2
     7    5    7 1
     8    5    8 1
     9    5   12 1
    10    9   10 2
    11    9   11 1
    12    9   12 1
    13    9   13 1
    14   11   33 1
    15   13   14 1
    16   14   15 1
    17   14   34 1
    18   14   35 1
    19   15   16 1
    20   15   17 1
    21   15   36 1
    22   16   21 1
    23   17   18 1
    24   17   19 1
    25   17   37 1
    26   18   38 1
    27   19   20 1
    28   19   21 1
    29   19   39 1
    30   20   40 1
    31   21   22 1
    32   21   41 1
    33   22   23 ar
    34   22   31 ar
    35   23   24 ar
    36   23   42 1
    37   24   25 ar
    38   25   26 ar
    39   25   31 ar
    40   26   27 2
    41   26   28 ar
    42   27   43 1
    43   28   29 ar
    44   28   45 1
    45   29   30 ar
    46   29   44 1
    47   30   31 ar
@<TRIPOS>SUBSTRUCTURE
     1 ATP         1 GROUP 0 A     ****
@<TRIPOS>MOLECULE
[[[3,4-dihydroxy-5-(6-imino-1~{H}-purin-9-yl)tetrahydrofuran-2-yl]methoxy-hydroxy-phosphoryl]oxy-oxido-phosphoryl] hydrogen phosphate
   45    47     1     0     0
SMALL
USER_CHARGES

@<TRIPOS>ATOM
      1 PG         -4.7959    6.6590    3.8098 P.3       1 ATP         1.5414
      2 O1G        -6.1923    6.4911    3.2536 O.co2     1 ATP        -0.8562
      3 O2G        -4.3197    7.9993    4.3240 O.co2     1 ATP        -0.8562
      4 O3G        -4.5659    5.5429    4.9792 O.3       1 ATP        -0.7907
      5 PB         -2.1079    5.8866    2.8402 P.3       1 ATP         1.6574
      6 O1B        -1.4516    7.2442    2.9586 O.co2     1 ATP        -0.8530
      7 O2B        -1.8337    4.7967    3.8525 O.co2     1 ATP        -0.8530
      8 O3B        -3.7213    6.0964    2.7201 O.3       1 ATP        -0.8003
      9 PA         -0.4410    4.8279    0.6352 P.3       1 ATP         1.7415
     10 O1A         0.6017    5.9035    0.5369 O.2       1 ATP        -0.8661
     11 O2A        -0.9414    4.2532   -0.7921 O.3       1 ATP        -0.8077
     12 O3A        -1.8155    5.3004    1.3453 O.3       1 ATP        -0.7685
     13 O5'         0.0171    3.5129    1.4593 O.3       1 ATP        -0.5590
     14 C5'        -0.8811    2.4285    1.6206 C.3       1 ATP         0.1960
     15 C4'        -0.1994    1.3333    2.4288 C.3       1 ATP         0.0976
     16 O4'        -1.1285    0.2356    2.5840 O.3       1 ATP        -0.3865
     17 C3'         1.0324    0.7610    1.7344 C.3       1 ATP         0.0901
     18 O3'         1.9175    0.2377    2.7247 O.3       1 ATP        -0.5889
     19 C2'         0.4468   -0.3802    0.9263 C.3       1 ATP         0.0574
     20 O2'         1.3993   -1.3703    0.5961 O.3       1 ATP        -0.5923
     21 C1'        -0.6159   -0.9100    1.8769 C.3       1 ATP         0.2452
     22 N9         -1.7127   -1.6108    1.2130 N.pl3     1 ATP        -0.1834
     23 C8         -1.7690   -2.9583    0.9549 C.ar      1 ATP         0.4338
     24 N7         -2.8827   -3.3076    0.3418 N.2       1 ATP        -0.6101
     25 C5         -3.5683   -2.1351    0.2017 C.ar      1 ATP         0.2154
     26 C6         -4.8617   -1.9185   -0.4044 C.ar      1 ATP         0.6130
     27 N6         -5.5166   -2.9094   -0.8993 N.2       1 ATP        -0.8165
     28 N1         -5.1837   -0.5701   -0.3344 N.pl3     1 ATP        -0.8617
     29 C2         -4.3821    0.4180    0.2330 C.ar      1 ATP         0.6151
     30 N3         -3.2117    0.2488    0.7860 N.2       1 ATP        -0.5797
     31 C4         -2.8672   -1.0657    0.7327 C.ar      1 ATP         0.0328
     32 HOG3       -3.7007    5.5224    5.4411 H         1 ATP         0.4197
     33 HOA2       -0.2861    3.8370   -1.3917 H         1 ATP         0.4550
     34 H5'1       -1.7775    2.7843    2.1389 H         1 ATP         0.0431
     35 H5'2       -1.1658    2.0534    0.6322 H         1 ATP         0.0431
     36 H4'         0.0402    1.7079    3.4342 H         1 ATP         0.1325
     37 H3'         1.5907    1.4859    1.1353 H         1 ATP         0.0782
     38 HO3'        2.6839   -0.1150    2.2479 H         1 ATP         0.4062
     39 H2'        -0.0017    0.0018    0.0005 H         1 ATP         0.0689
     40 HO2'        2.0953   -0.9375    0.0709 H         1 ATP         0.4089
     41 H1'        -0.1998   -1.6319    2.6178 H         1 ATP         0.1098
     42 H8         -0.9697   -3.6300    1.2371 H         1 ATP         0.0929
     43 HN62       -6.4060   -2.5723   -1.2840 H         1 ATP         0.3678
     44 H2         -4.8409    1.4176    0.1757 H         1 ATP         0.0383
     45 H45        -6.0768   -0.2826   -0.7263 H         1 ATP         0.4286
@<TRIPOS>BOND
     1    1    2 2
     2    1    3 1
     3    1    4 1
     4    1    8 1
     5    4   32 1
     6    5    6 2
     7    5    7 1
     8    5    8 1
     9    5   12 1
    10    9   10 2
    11    9   11 1
    12    9   12 1
    13    9   13 1
    14   11   33 1
    15   13   14 1
    16   14   15 1
    17   14   34 1
    18   14   35 1
    19   15   16 1
    20   15   17 1
    21   15   36 1
    22   16   21 1
    23   17   18 1
    24   17   19 1
    25   17   37 1
    26   18   38 1
    27   19   20 1
    28   19   21 1
    29   19   39 1
    30   20   40 1
    31   21   22 1
    32   21   41 1
    33   22   23 ar
    34   22   31 ar
    35   23   24 ar
    36   23   42 1
    37   24   25 ar
    38   25   26 ar
    39   25   31 ar
    40   26   27 2
    41   26   28 ar
    42   27   43 1
    43   28   29 ar
    44   28   45 1
    45   29   30 ar
    46   29   44 1
    47   30   31 ar
@<TRIPOS>SUBSTRUCTURE
     1 ATP         1 GROUP 0 A     ****
@<TRIPOS>MOLECULE
[[[3,4-dihydroxy-5-(6-imino-1~{H}-purin-9-yl)tetrahydrofuran-2-yl]methoxy-hydroxy-phosphoryl]oxy-oxido-phosphoryl] hydrogen phosphate
   45    47     1     0     0
SMALL
USER_CHARGES

@<TRIPOS>ATOM
      1 PG          0.6441    6.7914    0.1444 P.3       1 ATP         1.5414
      2 O1G         1.8313    6.4057    0.9984 O.co2     1 ATP        -0.8562
      3 O2G        -0.7590    6.7706    0.7086 O.co2     1 ATP        -0.8562
      4 O3G         0.9241    8.2670   -0.4964 O.3       1 ATP        -0.7907
      5 PB          0.4770    4.3154   -1.4691 P.3       1 ATP         1.6574
      6 O1B         0.4305    4.0498   -2.9574 O.co2     1 ATP        -0.8530
      7 O2B         1.4397    3.5682   -0.5731 O.co2     1 ATP        -0.8530
      8 O3B         0.6759    5.9172   -1.2315 O.3       1 ATP        -0.8003
      9 PA         -1.9904    2.8591   -0.7259 P.3       1 ATP         1.7415
     10 O1A        -2.3196    2.1913   -2.0295 O.2       1 ATP        -0.8661
     11 O2A        -3.2755    3.4364    0.0698 O.3       1 ATP        -0.8077
     12 O3A        -1.0319    4.1544   -0.8684 O.3       1 ATP        -0.7685
     13 O5'        -1.2435    1.9111    0.3519 O.3       1 ATP        -0.5590
     14 C5'        -0.8811    2.4285    1.6206 C.3       1 ATP         0.1960
     15 C4'        -0.1994    1.3333    2.4288 C.3       1 ATP         0.0976
     16 O4'        -1.1285    0.2356    2.5840 O.3       1 ATP        -0.3865
     17 C3'         1.0324    0.7610    1.7344 C.3       1 ATP         0.0901
     18 O3'         1.9175    0.2377    2.7247 O.3       1 ATP        -0.5889
     19 C2'         0.4468   -0.3802    0.9263 C.3       1 ATP         0.0574
     20 O2'         1.3993   -1.3703    0.5961 O.3       1 ATP        -0.5923
     21 C1'        -0.6159   -0.9100    1.8769 C.3       1 ATP         0.2452
     22 N9         -1.7127   -1.6108    1.2130 N.pl3     1 ATP        -0.1834
     23 C8         -2.8662   -1.0361    0.7388 C.ar      1 ATP         0.4338
     24 N7         -3.6774   -1.9166    0.1867 N.2       1 ATP        -0.6101
     25 C5         -3.0159   -3.1045    0.3122 C.ar      1 ATP         0.2154
     26 C6         -3.4377   -4.4169   -0.1199 C.ar      1 ATP         0.6130
     27 N6         -4.5720   -4.5691   -0.7080 N.2       1 ATP        -0.8165
     28 N1         -2.4600   -5.3463    0.2071 N.pl3     1 ATP        -0.8617
     29 C2         -1.2595   -5.0554    0.8515 C.ar      1 ATP         0.6151
     30 N3         -0.8555   -3.8803    1.2516 N.2       1 ATP        -0.5797
     31 C4         -1.7946   -2.9457    0.9448 C.ar      1 ATP         0.0328
     32 HOG3        0.2403    8.6597   -1.0800 H         1 ATP         0.4197
     33 HOA2       -3.9837    2.8144    0.3413 H         1 ATP         0.4550
     34 H5'1       -0.2031    3.2762    1.4776 H         1 ATP         0.0431
     35 H5'2       -1.7839    2.7764    2.1331 H         1 ATP         0.0431
     36 H4'         0.0402    1.7079    3.4342 H         1 ATP         0.1325
     37 H3'         1.5907    1.4859    1.1353 H         1 ATP         0.0782
     38 HO3'        2.6839   -0.1150    2.2479 H         1 ATP         0.4062
     39 H2'        -0.0017    0.0018    0.0005 H         1 ATP         0.0689
     40 HO2'        2.0953   -0.9375    0.0709 H         1 ATP         0.4089
     41 H1'        -0.1998   -1.6319    2.6178 H         1 ATP         0.1098
     42 H8         -3.0558    0.0252    0.8256 H         1 ATP         0.0929
     43 HN62       -4.7047   -5.5592   -0.9421 H         1 ATP         0.3678
     44 H2         -0.6372   -5.9505    1.0077 H         1 ATP         0.0383
     45 H45        -2.6338   -6.3155   -0.0469 H         1 ATP         0.4286
@<TRIPOS>BOND
     1    1    2 2
     2    1    3 1
     3    1    4 1
     4    1    8 1
     5    4   32 1
     6    5    6 2
     7    5    7 1
     8    5    8 1
     9    5   12 1
    10    9   10 2
    11    9   11 1
    12    9   12 1
    13    9   13 1
    14   11   33 1
    15   13   14 1
    16   14   15 1
    17   14   34 1
    18   14   35 1
    19   15   16 1
    20   15   17 1
    21   15   36 1
    22   16   21 1
    23   17   18 1
    24   17   19 1
    25   17   37 1
    26   18   38 1
    27   19   20 1
    28   19   21 1
    29   19   39 1
    30   20   40 1
    31   21   22 1
    32   21   41 1
    33   22   23 ar
    34   22   31 ar
    35   23   24 ar
    36   23   42 1
    37   24   25 ar
    38   25   26 ar
    39   25   31 ar
    40   26   27 2
    41   26   28 ar
    42   27   43 1
    43   28   29 ar
    44   28   45 1
    45   29   30 ar
    46   29   44 1
    47   30   31 ar
@<TRIPOS>SUBSTRUCTURE
     1 ATP         1 GROUP 0 A     ****
@<TRIPOS>MOLECULE
[[[3,4-dihydroxy-5-(6-imino-1~{H}-purin-9-yl)tetrahydrofuran-2-yl]methoxy-hydroxy-phosphoryl]oxy-oxido-phosphoryl] hydrogen phosphate
   45    47     1     0     0
SMALL
USER_CHARGES

@<TRIPOS>ATOM
      1 PG          5.3276    1.0358   -6.0709 P.3       1 ATP         1.5414
      2 O1G         6.2978   -0.1243   -6.0486 O.co2     1 ATP        -0.8562
      3 O2G         5.4750    2.1535   -7.0791 O.co2     1 ATP        -0.8562
      4 O3G         3.8104    0.4409   -6.1736 O.3       1 ATP        -0.7907
      5 PB          6.3586    2.4790   -3.7011 P.3       1 ATP         1.6574
      6 O1B         7.4710    1.5177   -3.3461 O.co2     1 ATP        -0.8530
      7 O2B         6.6544    3.7975   -4.3807 O.co2     1 ATP        -0.8530
      8 O3B         5.2374    1.6788   -4.5752 O.3       1 ATP        -0.8003
      9 PA          5.8506    3.5249   -0.9791 P.3       1 ATP         1.7415
     10 O1A         6.2523    4.9605   -1.1558 O.2       1 ATP        -0.8661
     11 O2A         7.0027    2.5847   -0.3414 O.3       1 ATP        -0.8077
     12 O3A         5.4767    2.7667   -2.3582 O.3       1 ATP        -0.7685
     13 O5'         4.5673    3.2930   -0.0211 O.3       1 ATP        -0.5590
     14 C5'         4.0922    1.9801    0.2227 C.3       1 ATP         0.1960
     15 C4'         2.5944    2.0310    0.4653 C.3       1 ATP         0.0976
     16 O4'         1.9327    2.5740   -0.6889 O.3       1 ATP        -0.3865
     17 C3'         1.9685    0.6634    0.6767 C.3       1 ATP         0.0901
     18 O3'         2.1425    0.1975    1.9977 O.3       1 ATP        -0.5889
     19 C2'         0.5176    0.9128    0.3099 C.3       1 ATP         0.0574
     20 O2'        -0.2103    1.4454    1.4152 O.3       1 ATP        -0.5923
     21 C1'         0.6219    1.9765   -0.7844 C.3       1 ATP         0.2452
     22 N9          0.4237    1.4496   -2.1357 N.pl3     1 ATP        -0.1834
     23 C8          1.4069    0.9710   -2.9662 C.ar      1 ATP         0.4338
     24 N7          0.9316    0.5623   -4.1260 N.2       1 ATP        -0.6101
     25 C5         -0.4120    0.7884   -4.0344 C.ar      1 ATP         0.2154
     26 C6         -1.4353    0.5283   -5.0204 C.ar      1 ATP         0.6130
     27 N6         -1.1199    0.0176   -6.1586 N.2       1 ATP        -0.8165
     28 N1         -2.6704    0.9095   -4.5147 N.pl3     1 ATP        -0.8617
     29 C2         -2.8863    1.4571   -3.2520 C.ar      1 ATP         0.6151
     30 N3         -1.9805    1.7017   -2.3442 N.2       1 ATP        -0.5797
     31 C4         -0.7561    1.3381   -2.8112 C.ar      1 ATP         0.0328
     32 HOG3        3.0615    1.0741   -6.1982 H         1 ATP         0.4197
     33 HOA2        7.3527    2.8015    0.5489 H         1 ATP         0.4550
     34 H5'1        4.3175    1.3541   -0.6468 H         1 ATP         0.0431
     35 H5'2        4.6079    1.5730    1.0985 H         1 ATP         0.0431
     36 H4'         2.3752    2.7029    1.3156 H         1 ATP         0.1325
     37 H3'         2.4336   -0.1217   -0.0016 H         1 ATP         0.0782
     38 HO3'        1.7160   -0.6716    2.0397 H         1 ATP         0.4062
     39 H2'         0.0316    0.0155   -0.0339 H         1 ATP         0.0689
     40 HO2'       -0.1608    0.7921    2.1351 H         1 ATP         0.4089
     41 H1'        -0.1474    2.7798   -0.6651 H         1 ATP         0.1098
     42 H8          2.4466    0.9468   -2.6694 H         1 ATP         0.0929
     43 HN62       -1.9661   -0.0965   -6.7275 H         1 ATP         0.3678
     44 H2         -3.9481    1.6825   -3.0660 H         1 ATP         0.0383
     45 H45        -3.4814    0.7753   -5.1133 H         1 ATP         0.4286
@<TRIPOS>BOND
     1    1    2 2
     2    1    3 1
     3    1    4 1
     4    1    8 1
     5    4   32 1
     6    5    6 2
     7    5    7 1
     8    5    8 1
     9    5   12 1
    10    9   10 2
    11    9   11 1
    12    9   12 1
    13    9   13 1
    14   11   33 1
    15   13   14 1
    16   14   15 1
    17   14   34 1
    18   14   35 1
    19   15   16 1
    20   15   17 1
    21   15   36 1
    22   16   21 1
    23   17   18 1
    24   17   19 1
    25   17   37 1
    26   18   38 1
    27   19   20 1
    28   19   21 1
    29   19   39 1
    30   20   40 1
    31   21   22 1
    32   21   41 1
    33   22   23 ar
    34   22   31 ar
    35   23   24 ar
    36   23   42 1
    37   24   25 ar
    38   25   26 ar
    39   25   31 ar
    40   26   27 2
    41   26   28 ar
    42   27   43 1
    43   28   29 ar
    44   28   45 1
    45   29   30 ar
    46   29   44 1
    47   30   31 ar
@<TRIPOS>SUBSTRUCTURE
     1 ATP         1 GROUP 0 A     ****
@<TRIPOS>MOLECULE
[[[3,4-dihydroxy-5-(6-imino-1~{H}-purin-9-yl)tetrahydrofuran-2-yl]methoxy-hydroxy-phosphoryl]oxy-oxido-phosphoryl] hydrogen phosphate
   45    47     1     0     0
SMALL
USER_CHARGES

@<TRIPOS>ATOM
      1 PG         -5.3308    7.0586    2.5086 P.3       1 ATP         1.5414
      2 O1G        -5.8480    6.5938    3.8517 O.co2     1 ATP        -0.8562
      3 O2G        -6.2193    7.0410    1.2848 O.co2     1 ATP        -0.8562
      4 O3G        -4.7154    8.5611    2.6817 O.3       1 ATP        -0.7907
      5 PB         -2.8854    6.4674    0.9490 P.3       1 ATP         1.6574
      6 O1B        -3.5606    6.0775   -0.3471 O.co2     1 ATP        -0.8530
      7 O2B        -2.2158    7.8147    1.1051 O.co2     1 ATP        -0.8530
      8 O3B        -3.9470    6.2650    2.1712 O.3       1 ATP        -0.8003
      9 PA         -0.4410    4.8279    0.6352 P.3       1 ATP         1.7415
     10 O1A         0.6017    5.9035    0.5369 O.2       1 ATP        -0.8661
     11 O2A        -0.9414    4.2532   -0.7921 O.3       1 ATP        -0.8077
     12 O3A        -1.8155    5.3004    1.3453 O.3       1 ATP        -0.7685
     13 O5'         0.0171    3.5129    1.4593 O.3       1 ATP        -0.5590
     14 C5'        -0.8811    2.4285    1.6206 C.3       1 ATP         0.1960
     15 C4'        -0.1994    1.3333    2.4288 C.3       1 ATP         0.0976
     16 O4'        -1.1285    0.2356    2.5840 O.3       1 ATP        -0.3865
     17 C3'         1.0324    0.7610    1.7344 C.3       1 ATP         0.0901
     18 O3'         1.9175    0.2377    2.7247 O.3       1 ATP        -0.5889
     19 C2'         0.4468   -0.3802    0.9263 C.3       1 ATP         0.0574
     20 O2'         1.3993   -1.3703    0.5961 O.3       1 ATP        -0.5923
     21 C1'        -0.6159   -0.9100    1.8769 C.3       1 ATP         0.2452
     22 N9         -1.7127   -1.6108    1.2130 N.pl3     1 ATP        -0.1834
     23 C8         -1.7690   -2.9583    0.9549 C.ar      1 ATP         0.4338
     24 N7         -2.8827   -3.3076    0.3418 N.2       1 ATP        -0.6101
     25 C5         -3.5683   -2.1351    0.2017 C.ar      1 ATP         0.2154
     26 C6         -4.8617   -1.9185   -0.4044 C.ar      1 ATP         0.6130
     27 N6         -5.5166   -2.9094   -0.8993 N.2       1 ATP        -0.8165
     28 N1         -5.1837   -0.5701   -0.3344 N.pl3     1 ATP        -0.8617
     29 C2         -4.3821    0.4180    0.2330 C.ar      1 ATP         0.6151
     30 N3         -3.2117    0.2488    0.7860 N.2       1 ATP        -0.5797
     31 C4         -2.8672   -1.0657    0.7327 C.ar      1 ATP         0.0328
     32 HOG3       -4.3373    9.0044    1.8925 H         1 ATP         0.4197
     33 HOA2       -0.2861    3.8370   -1.3917 H         1 ATP         0.4550
     34 H5'1       -1.7775    2.7843    2.1389 H         1 ATP         0.0431
     35 H5'2       -1.1658    2.0534    0.6322 H         1 ATP         0.0431
     36 H4'         0.0402    1.7079    3.4342 H         1 ATP         0.1325
     37 H3'         1.5907    1.4859    1.1353 H         1 ATP         0.0782
     38 HO3'        2.6839   -0.1150    2.2479 H         1 ATP         0.4062
     39 H2'        -0.0017    0.0018    0.0005 H         1 ATP         0.0689
     40 HO2'        2.0953   -0.9375    0.0709 H         1 ATP         0.4089
     41 H1'        -0.1998   -1.6319    2.6178 H         1 ATP         0.1098
     42 H8         -0.9697   -3.6300    1.2371 H         1 ATP         0.0929
     43 HN62       -6.4060   -2.5723   -1.2840 H         1 ATP         0.3678
     44 H2         -4.8409    1.4176    0.1757 H         1 ATP         0.0383
     45 H45        -6.0768   -0.2826   -0.7263 H         1 ATP         0.4286
@<TRIPOS>BOND
     1    1    2 2
     2    1    3 1
     3    1    4 1
     4    1    8 1
     5    4   32 1
     6    5    6 2
     7    5    7 1
     8    5    8 1
     9    5   12 1
    10    9   10 2
    11    9   11 1
    12    9   12 1
    13    9   13 1
    14   11   33 1
    15   13   14 1
    16   14   15 1
    17   14   34 1
    18   14   35 1
    19   15   16 1
    20   15   17 1
    21   15   36 1
    22   16   21 1
    23   17   18 1
    24   17   19 1
    25   17   37 1
    26   18   38 1
    27   19   20 1
    28   19   21 1
    29   19   39 1
    30   20   40 1
    31   21   22 1
    32   21   41 1
    33   22   23 ar
    34   22   31 ar
    35   23   24 ar
    36   23   42 1
    37   24   25 ar
    38   25   26 ar
    39   25   31 ar
    40   26   27 2
    41   26   28 ar
    42   27   43 1
    43   28   29 ar
    44   28   45 1
    45   29   30 ar
    46   29   44 1
    47   30   31 ar
@<TRIPOS>SUBSTRUCTURE
     1 ATP         1 GROUP 0 A     ****
@<TRIPOS>MOLECULE
[[[3,4-dihydroxy-5-(6-imino-1~{H}-purin-9-yl)tetrahydrofuran-2-yl]methoxy-hydroxy-phosphoryl]oxy-oxido-phosphoryl] hydrogen phosphate
   45    47     1     0     0
SMALL
USER_CHARGES

@<TRIPOS>ATOM
      1 PG         -4.8932    3.7727   -2.2961 P.3       1 ATP         1.5414
      2 O1G        -3.5443    4.4543   -2.3550 O.co2     1 ATP        -0.8562
      3 O2G        -6.1721    4.5799   -2.2781 O.co2     1 ATP        -0.8562
      4 O3G        -4.9803    2.6893   -3.5146 O.3       1 ATP        -0.7907
      5 PB         -4.8447    3.0127    0.5644 P.3       1 ATP         1.6574
      6 O1B        -5.9345    3.9980    0.9237 O.co2     1 ATP        -0.8530
      7 O2B        -4.7214    1.6887    1.2853 O.co2     1 ATP        -0.8530
      8 O3B        -4.9053    2.7313   -1.0415 O.3       1 ATP        -0.8003
      9 PA         -2.5925    4.4094    1.8827 P.3       1 ATP         1.7415
     10 O1A        -3.4550    5.1144    2.8891 O.2       1 ATP        -0.8661
     11 O2A        -1.4926    5.3570    1.1685 O.3       1 ATP        -0.8077
     12 O3A        -3.4080    3.7839    0.6336 O.3       1 ATP        -0.7685
     13 O5'        -1.7334    3.1724    2.4743 O.3       1 ATP        -0.5590
     14 C5'        -0.8811    2.4285    1.6206 C.3       1 ATP         0.1960
     15 C4'        -0.1994    1.3333    2.4288 C.3       1 ATP         0.0976
     16 O4'        -1.1285    0.2356    2.5840 O.3       1 ATP        -0.3865
     17 C3'         1.0324    0.7610    1.7344 C.3       1 ATP         0.0901
     18 O3'         1.9175    0.2377    2.7247 O.3       1 ATP        -0.5889
     19 C2'         0.4468   -0.3802    0.9263 C.3       1 ATP         0.0574
     20 O2'         1.3993   -1.3703    0.5961 O.3       1 ATP        -0.5923
     21 C1'        -0.6159   -0.9100    1.8769 C.3       1 ATP         0.2452
     22 N9         -1.7127   -1.6108    1.2130 N.pl3     1 ATP        -0.1834
     23 C8         -2.8662   -1.0361    0.7388 C.ar      1 ATP         0.4338
     24 N7         -3.6774   -1.9166    0.1867 N.2       1 ATP        -0.6101
     25 C5         -3.0159   -3.1045    0.3122 C.ar      1 ATP         0.2154
     26 C6         -3.4377   -4.4169   -0.1199 C.ar      1 ATP         0.6130
     27 N6         -4.5720   -4.5691   -0.7080 N.2       1 ATP        -0.8165
     28 N1         -2.4600   -5.3463    0.2071 N.pl3     1 ATP        -0.8617
     29 C2         -1.2595   -5.0554    0.8515 C.ar      1 ATP         0.6151
     30 N3         -0.8555   -3.8803    1.2516 N.2       1 ATP        -0.5797
     31 C4         -1.7946   -2.9457    0.9448 C.ar      1 ATP         0.0328
     32 HOG3       -5.8013    2.1612   -3.6118 H         1 ATP         0.4197
     33 HOA2       -1.7986    6.1343    0.6543 H         1 ATP         0.4550
     34 H5'1       -1.4795    1.9922    0.8142 H         1 ATP         0.0431
     35 H5'2       -0.1362    3.1035    1.1868 H         1 ATP         0.0431
     36 H4'         0.0402    1.7079    3.4342 H         1 ATP         0.1325
     37 H3'         1.5907    1.4859    1.1353 H         1 ATP         0.0782
     38 HO3'        2.1521    0.9800    3.3017 H         1 ATP         0.4062
     39 H2'        -0.0017    0.0018    0.0005 H         1 ATP         0.0689
     40 HO2'        2.0953   -0.9375    0.0709 H         1 ATP         0.4089
     41 H1'        -0.1998   -1.6319    2.6178 H         1 ATP         0.1098
     42 H8         -3.0558    0.0252    0.8256 H         1 ATP         0.0929
     43 HN62       -4.7047   -5.5592   -0.9421 H         1 ATP         0.3678
     44 H2         -0.6372   -5.9505    1.0077 H         1 ATP         0.0383
     45 H45        -2.6338   -6.3155   -0.0469 H         1 ATP         0.4286
@<TRIPOS>BOND
     1    1    2 2
     2    1    3 1
     3    1    4 1
     4    1    8 1
     5    4   32 1
     6    5    6 2
     7    5    7 1
     8    5    8 1
     9    5   12 1
    10    9   10 2
    11    9   11 1
    12    9   12 1
    13    9   13 1
    14   11   33 1
    15   13   14 1
    16   14   15 1
    17   14   34 1
    18   14   35 1
    19   15   16 1
    20   15   17 1
    21   15   36 1
    22   16   21 1
    23   17   18 1
    24   17   19 1
    25   17   37 1
    26   18   38 1
    27   19   20 1
    28   19   21 1
    29   19   39 1
    30   20   40 1
    31   21   22 1
    32   21   41 1
    33   22   23 ar
    34   22   31 ar
    35   23   24 ar
    36   23   42 1
    37   24   25 ar
    38   25   26 ar
    39   25   31 ar
    40   26   27 2
    41   26   28 ar
    42   27   43 1
    43   28   29 ar
    44   28   45 1
    45   29   30 ar
    46   29   44 1
    47   30   31 ar
@<TRIPOS>SUBSTRUCTURE
     1 ATP         1 GROUP 0 A     ****
@<TRIPOS>MOLECULE
[[[3,4-dihydroxy-5-(6-imino-1~{H}-purin-9-yl)tetrahydrofuran-2-yl]methoxy-hydroxy-phosphoryl]oxy-oxido-phosphoryl] hydrogen phosphate
   45    47     1     0     0
SMALL
USER_CHARGES

@<TRIPOS>ATOM
      1 PG          4.2648    3.7166   -5.8184 P.3       1 ATP         1.5414
      2 O1G         5.0639    4.8124   -6.4880 O.co2     1 ATP        -0.8562
      3 O2G         2.7544    3.7758   -5.7677 O.co2     1 ATP        -0.8562
      4 O3G         4.7067    2.2838   -6.4650 O.3       1 ATP        -0.7907
      5 PB          4.8023    4.4751   -3.0081 P.3       1 ATP         1.6574
      6 O1B         5.6798    5.6753   -3.2861 O.co2     1 ATP        -0.8530
      7 O2B         3.3656    4.6447   -2.5666 O.co2     1 ATP        -0.8530
      8 O3B         4.8381    3.4909   -4.3088 O.3       1 ATP        -0.8003
      9 PA          5.9543    3.7373   -0.3833 P.3       1 ATP         1.7415
     10 O1A         6.4347    5.1233   -0.0640 O.2       1 ATP        -0.8661
     11 O2A         7.0417    2.5735   -0.0984 O.3       1 ATP        -0.8077
     12 O3A         5.5700    3.5110   -1.9382 O.3       1 ATP        -0.7685
     13 O5'         4.6408    3.2692    0.4376 O.3       1 ATP        -0.5590
     14 C5'         4.0922    1.9801    0.2227 C.3       1 ATP         0.1960
     15 C4'         2.5944    2.0310    0.4653 C.3       1 ATP         0.0976
     16 O4'         1.9327    2.5740   -0.6889 O.3       1 ATP        -0.3865
     17 C3'         1.9685    0.6634    0.6767 C.3       1 ATP         0.0901
     18 O3'         2.1425    0.1975    1.9977 O.3       1 ATP        -0.5889
     19 C2'         0.5176    0.9128    0.3099 C.3       1 ATP         0.0574
     20 O2'        -0.2103    1.4454    1.4152 O.3       1 ATP        -0.5923
     21 C1'         0.6219    1.9765   -0.7844 C.3       1 ATP         0.2452
     22 N9          0.4237    1.4496   -2.1357 N.pl3     1 ATP        -0.1834
     23 C8          1.4069    0.9710   -2.9662 C.ar      1 ATP         0.4338
     24 N7          0.9316    0.5623   -4.1260 N.2       1 ATP        -0.6101
     25 C5         -0.4120    0.7884   -4.0344 C.ar      1 ATP         0.2154
     26 C6         -1.4353    0.5283   -5.0204 C.ar      1 ATP         0.6130
     27 N6         -1.1199    0.0176   -6.1586 N.2       1 ATP        -0.8165
     28 N1         -2.6704    0.9095   -4.5147 N.pl3     1 ATP        -0.8617
     29 C2         -2.8863    1.4571   -3.2520 C.ar      1 ATP         0.6151
     30 N3         -1.9805    1.7017   -2.3442 N.2       1 ATP        -0.5797
     31 C4         -0.7561    1.3381   -2.8112 C.ar      1 ATP         0.0328
     32 HOG3        4.2741    1.4685   -6.1325 H         1 ATP         0.4197
     33 HOA2        7.3839    2.4574    0.8135 H         1 ATP         0.4550
     34 H5'1        4.3024    1.6722   -0.8067 H         1 ATP         0.0431
     35 H5'2        4.5673    1.2731    0.9105 H         1 ATP         0.0431
     36 H4'         2.3752    2.7029    1.3156 H         1 ATP         0.1325
     37 H3'         2.4336   -0.1217   -0.0016 H         1 ATP         0.0782
     38 HO3'        1.7160   -0.6716    2.0397 H         1 ATP         0.4062
     39 H2'         0.0316    0.0155   -0.0339 H         1 ATP         0.0689
     40 HO2'       -0.1608    0.7921    2.1351 H         1 ATP         0.4089
     41 H1'        -0.1474    2.7798   -0.6651 H         1 ATP         0.1098
     42 H8          2.4466    0.9468   -2.6694 H         1 ATP         0.0929
     43 HN62       -1.9661   -0.0965   -6.7275 H         1 ATP         0.3678
     44 H2         -3.9481    1.6825   -3.0660 H         1 ATP         0.0383
     45 H45        -3.4814    0.7753   -5.1133 H         1 ATP         0.4286
@<TRIPOS>BOND
     1    1    2 2
     2    1    3 1
     3    1    4 1
     4    1    8 1
     5    4   32 1
     6    5    6 2
     7    5    7 1
     8    5    8 1
     9    5   12 1
    10    9   10 2
    11    9   11 1
    12    9   12 1
    13    9   13 1
    14   11   33 1
    15   13   14 1
    16   14   15 1
    17   14   34 1
    18   14   35 1
    19   15   16 1
    20   15   17 1
    21   15   36 1
    22   16   21 1
    23   17   18 1
    24   17   19 1
    25   17   37 1
    26   18   38 1
    27   19   20 1
    28   19   21 1
    29   19   39 1
    30   20   40 1
    31   21   22 1
    32   21   41 1
    33   22   23 ar
    34   22   31 ar
    35   23   24 ar
    36   23   42 1
    37   24   25 ar
    38   25   26 ar
    39   25   31 ar
    40   26   27 2
    41   26   28 ar
    42   27   43 1
    43   28   29 ar
    44   28   45 1
    45   29   30 ar
    46   29   44 1
    47   30   31 ar
@<TRIPOS>SUBSTRUCTURE
     1 ATP         1 GROUP 0 A     ****
@<TRIPOS>MOLECULE
[[[3,4-dihydroxy-5-(6-imino-1~{H}-purin-9-yl)tetrahydrofuran-2-yl]methoxy-hydroxy-phosphoryl]oxy-oxido-phosphoryl] hydrogen phosphate
   45    47     1     0     0
SMALL
USER_CHARGES

@<TRIPOS>ATOM
      1 PG         -4.8495    3.3740    4.1448 P.3       1 ATP         1.5414
      2 O1G        -3.6909    2.4206    3.9542 O.co2     1 ATP        -0.8562
      3 O2G        -6.0370    3.3516    3.2085 O.co2     1 ATP        -0.8562
      4 O3G        -5.3939    3.2284    5.6773 O.3       1 ATP        -0.7907
      5 PB         -3.5463    5.8179    3.1003 P.3       1 ATP         1.6574
      6 O1B        -4.4263    5.8542    1.8706 O.co2     1 ATP        -0.8530
      7 O2B        -3.0608    7.0947    3.7499 O.co2     1 ATP        -0.8530
      8 O3B        -4.2725    4.8964    4.2339 O.3       1 ATP        -0.8003
      9 PA         -1.0201    5.0520    1.7613 P.3       1 ATP         1.7415
     10 O1A        -0.1913    6.2779    2.0142 O.2       1 ATP        -0.8661
     11 O2A        -1.7336    5.0186    0.3095 O.3       1 ATP        -0.8077
     12 O3A        -2.2583    4.8663    2.7856 O.3       1 ATP        -0.7685
     13 O5'        -0.2068    3.6554    1.8412 O.3       1 ATP        -0.5590
     14 C5'        -0.8811    2.4285    1.6206 C.3       1 ATP         0.1960
     15 C4'        -0.1994    1.3333    2.4288 C.3       1 ATP         0.0976
     16 O4'        -1.1285    0.2356    2.5840 O.3       1 ATP        -0.3865
     17 C3'         1.0324    0.7610    1.7344 C.3       1 ATP         0.0901
     18 O3'         1.9175    0.2377    2.7247 O.3       1 ATP        -0.5889
     19 C2'         0.4468   -0.3802    0.9263 C.3       1 ATP         0.0574
     20 O2'         1.3993   -1.3703    0.5961 O.3       1 ATP        -0.5923
     21 C1'        -0.6159   -0.9100    1.8769 C.3       1 ATP         0.2452
     22 N9         -1.7127   -1.6108    1.2130 N.pl3     1 ATP        -0.1834
     23 C8         -1.7690   -2.9583    0.9549 C.ar      1 ATP         0.4338
     24 N7         -2.8827   -3.3076    0.3418 N.2       1 ATP        -0.6101
     25 C5         -3.5683   -2.1351    0.2017 C.ar      1 ATP         0.2154
     26 C6         -4.8617   -1.9185   -0.4044 C.ar      1 ATP         0.6130
     27 N6         -5.5166   -2.9094   -0.8993 N.2       1 ATP        -0.8165
     28 N1         -5.1837   -0.5701   -0.3344 N.pl3     1 ATP        -0.8617
     29 C2         -4.3821    0.4180    0.2330 C.ar      1 ATP         0.6151
     30 N3         -3.2117    0.2488    0.7860 N.2       1 ATP        -0.5797
     31 C4         -2.8672   -1.0657    0.7327 C.ar      1 ATP         0.0328
     32 HOG3       -6.1502    3.7861    5.9589 H         1 ATP         0.4197
     33 HOA2       -2.3631    5.7331    0.0740 H         1 ATP         0.4550
     34 H5'1       -1.9259    2.5372    1.9293 H         1 ATP         0.0431
     35 H5'2       -0.8477    2.1923    0.5521 H         1 ATP         0.0431
     36 H4'         0.0402    1.7079    3.4342 H         1 ATP         0.1325
     37 H3'         1.5907    1.4859    1.1353 H         1 ATP         0.0782
     38 HO3'        2.6839   -0.1150    2.2479 H         1 ATP         0.4062
     39 H2'        -0.0017    0.0018    0.0005 H         1 ATP         0.0689
     40 HO2'        2.0953   -0.9375    0.0709 H         1 ATP         0.4089
     41 H1'        -0.1998   -1.6319    2.6178 H         1 ATP         0.1098
     42 H8         -0.9697   -3.6300    1.2371 H         1 ATP         0.0929
     43 HN62       -6.4060   -2.5723   -1.2840 H         1 ATP         0.3678
     44 H2         -4.8409    1.4176    0.1757 H         1 ATP         0.0383
     45 H45        -6.0768   -0.2826   -0.7263 H         1 ATP         0.4286
@<TRIPOS>BOND
     1    1    2 2
     2    1    3 1
     3    1    4 1
     4    1    8 1
     5    4   32 1
     6    5    6 2
     7    5    7 1
     8    5    8 1
     9    5   12 1
    10    9   10 2
    11    9   11 1
    12    9   12 1
    13    9   13 1
    14   11   33 1
    15   13   14 1
    16   14   15 1
    17   14   34 1
    18   14   35 1
    19   15   16 1
    20   15   17 1
    21   15   36 1
    22   16   21 1
    23   17   18 1
    24   17   19 1
    25   17   37 1
    26   18   38 1
    27   19   20 1
    28   19   21 1
    29   19   39 1
    30   20   40 1
    31   21   22 1
    32   21   41 1
    33   22   23 ar
    34   22   31 ar
    35   23   24 ar
    36   23   42 1
    37   24   25 ar
    38   25   26 ar
    39   25   31 ar
    40   26   27 2
    41   26   28 ar
    42   27   43 1
    43   28   29 ar
    44   28   45 1
    45   29   30 ar
    46   29   44 1
    47   30   31 ar
@<TRIPOS>SUBSTRUCTURE
     1 ATP         1 GROUP 0 A     ****
@<TRIPOS>MOLECULE
[[[3,4-dihydroxy-5-(6-imino-1~{H}-purin-9-yl)tetrahydrofuran-2-yl]methoxy-hydroxy-phosphoryl]oxy-oxido-phosphoryl] hydrogen phosphate
   45    47     1     0     0
SMALL
USER_CHARGES

@<TRIPOS>ATOM
      1 PG          1.2175    3.6617   -4.2595 P.3       1 ATP         1.5414
      2 O1G         2.2214    2.5708   -3.9601 O.co2     1 ATP        -0.8562
      3 O2G         1.6710    5.0402   -4.6858 O.co2     1 ATP        -0.8562
      4 O3G         0.1554    3.0997   -5.3651 O.3       1 ATP        -0.7907
      5 PB          0.4770    4.3154   -1.4691 P.3       1 ATP         1.6574
      6 O1B         1.3758    3.3125   -0.7804 O.co2     1 ATP        -0.8530
      7 O2B         0.8321    5.7852   -1.5051 O.co2     1 ATP        -0.8530
      8 O3B         0.1996    3.8058   -2.9939 O.3       1 ATP        -0.8003
      9 PA         -1.9904    2.8591   -0.7259 P.3       1 ATP         1.7415
     10 O1A        -2.3196    2.1913   -2.0295 O.2       1 ATP        -0.8661
     11 O2A        -3.2755    3.4364    0.0698 O.3       1 ATP        -0.8077
     12 O3A        -1.0319    4.1544   -0.8684 O.3       1 ATP        -0.7685
     13 O5'        -1.2435    1.9111    0.3519 O.3       1 ATP        -0.5590
     14 C5'        -0.8811    2.4285    1.6206 C.3       1 ATP         0.1960
     15 C4'        -0.1994    1.3333    2.4288 C.3       1 ATP         0.0976
     16 O4'        -1.1285    0.2356    2.5840 O.3       1 ATP        -0.3865
     17 C3'         1.0324    0.7610    1.7344 C.3       1 ATP         0.0901
     18 O3'         1.9175    0.2377    2.7247 O.3       1 ATP        -0.5889
     19 C2'         0.4468   -0.3802    0.9263 C.3       1 ATP         0.0574
     20 O2'         1.3993   -1.3703    0.5961 O.3       1 ATP        -0.5923
     21 C1'        -0.6159   -0.9100    1.8769 C.3       1 ATP         0.2452
     22 N9         -1.7127   -1.6108    1.2130 N.pl3     1 ATP        -0.1834
     23 C8         -2.8662   -1.0361    0.7388 C.ar      1 ATP         0.4338
     24 N7         -3.6774   -1.9166    0.1867 N.2       1 ATP        -0.6101
     25 C5         -3.0159   -3.1045    0.3122 C.ar      1 ATP         0.2154
     26 C6         -3.4377   -4.4169   -0.1199 C.ar      1 ATP         0.6130
     27 N6         -4.5720   -4.5691   -0.7080 N.2       1 ATP        -0.8165
     28 N1         -2.4600   -5.3463    0.2071 N.pl3     1 ATP        -0.8617
     29 C2         -1.2595   -5.0554    0.8515 C.ar      1 ATP         0.6151
     30 N3         -0.8555   -3.8803    1.2516 N.2       1 ATP        -0.5797
     31 C4         -1.7946   -2.9457    0.9448 C.ar      1 ATP         0.0328
     32 HOG3       -0.5642    3.6949   -5.6656 H         1 ATP         0.4197
     33 HOA2       -3.9837    2.8144    0.3413 H         1 ATP         0.4550
     34 H5'1       -0.2031    3.2762    1.4776 H         1 ATP         0.0431
     35 H5'2       -1.7839    2.7764    2.1331 H         1 ATP         0.0431
     36 H4'         0.0402    1.7079    3.4342 H         1 ATP         0.1325
     37 H3'         1.5907    1.4859    1.1353 H         1 ATP         0.0782
     38 HO3'        2.6839   -0.1150    2.2479 H         1 ATP         0.4062
     39 H2'        -0.0017    0.0018    0.0005 H         1 ATP         0.0689
     40 HO2'        2.0953   -0.9375    0.0709 H         1 ATP         0.4089
     41 H1'        -0.1998   -1.6319    2.6178 H         1 ATP         0.1098
     42 H8         -3.0558    0.0252    0.8256 H         1 ATP         0.0929
     43 HN62       -4.7047   -5.5592   -0.9421 H         1 ATP         0.3678
     44 H2         -0.6372   -5.9505    1.0077 H         1 ATP         0.0383
     45 H45        -2.6338   -6.3155   -0.0469 H         1 ATP         0.4286
@<TRIPOS>BOND
     1    1    2 2
     2    1    3 1
     3    1    4 1
     4    1    8 1
     5    4   32 1
     6    5    6 2
     7    5    7 1
     8    5    8 1
     9    5   12 1
    10    9   10 2
    11    9   11 1
    12    9   12 1
    13    9   13 1
    14   11   33 1
    15   13   14 1
    16   14   15 1
    17   14   34 1
    18   14   35 1
    19   15   16 1
    20   15   17 1
    21   15   36 1
    22   16   21 1
    23   17   18 1
    24   17   19 1
    25   17   37 1
    26   18   38 1
    27   19   20 1
    28   19   21 1
    29   19   39 1
    30   20   40 1
    31   21   22 1
    32   21   41 1
    33   22   23 ar
    34   22   31 ar
    35   23   24 ar
    36   23   42 1
    37   24   25 ar
    38   25   26 ar
    39   25   31 ar
    40   26   27 2
    41   26   28 ar
    42   27   43 1
    43   28   29 ar
    44   28   45 1
    45   29   30 ar
    46   29   44 1
    47   30   31 ar
@<TRIPOS>SUBSTRUCTURE
     1 ATP         1 GROUP 0 A     ****
@<TRIPOS>MOLECULE
[[[3,4-dihydroxy-5-(6-imino-1~{H}-purin-9-yl)tetrahydrofuran-2-yl]methoxy-hydroxy-phosphoryl]oxy-oxido-phosphoryl] hydrogen phosphate
   45    47     1     0     0
SMALL
USER_CHARGES

@<TRIPOS>ATOM
      1 PG         -3.3982    6.1442   -2.2157 P.3       1 ATP         1.5414
      2 O1G        -2.0966    6.7113   -1.6943 O.co2     1 ATP        -0.8562
      3 O2G        -4.6892    6.9229   -2.0954 O.co2     1 ATP        -0.8562
      4 O3G        -3.1904    5.7221   -3.7793 O.3       1 ATP        -0.7907
      5 PB         -3.8918    4.1894   -0.0484 P.3       1 ATP         1.6574
      6 O1B        -5.0743    4.9659    0.4870 O.co2     1 ATP        -0.8530
      7 O2B        -3.8573    2.6786    0.0154 O.co2     1 ATP        -0.8530
      8 O3B        -3.6160    4.6555   -1.5873 O.3       1 ATP        -0.8003
      9 PA         -2.0149    4.7373    2.1738 P.3       1 ATP         1.7415
     10 O1A        -2.9341    5.4101    3.1516 O.2       1 ATP        -0.8661
     11 O2A        -0.5416    5.3996    2.0809 O.3       1 ATP        -0.8077
     12 O3A        -2.5340    4.7752    0.6422 O.3       1 ATP        -0.7685
     13 O5'        -1.7334    3.1724    2.4743 O.3       1 ATP        -0.5590
     14 C5'        -0.8811    2.4285    1.6206 C.3       1 ATP         0.1960
     15 C4'        -0.1994    1.3333    2.4288 C.3       1 ATP         0.0976
     16 O4'        -1.1285    0.2356    2.5840 O.3       1 ATP        -0.3865
     17 C3'         1.0324    0.7610    1.7344 C.3       1 ATP         0.0901
     18 O3'         1.9175    0.2377    2.7247 O.3       1 ATP        -0.5889
     19 C2'         0.4468   -0.3802    0.9263 C.3       1 ATP         0.0574
     20 O2'         1.3993   -1.3703    0.5961 O.3       1 ATP        -0.5923
     21 C1'        -0.6159   -0.9100    1.8769 C.3       1 ATP         0.2452
     22 N9         -1.7127   -1.6108    1.2130 N.pl3     1 ATP        -0.1834
     23 C8         -2.5485   -1.0808    0.2609 C.ar      1 ATP         0.4338
     24 N7         -3.4476   -1.9486   -0.1593 N.2       1 ATP        -0.6101
     25 C5         -3.1762   -3.0816    0.5530 C.ar      1 ATP         0.2154
     26 C6         -3.8510   -4.3579    0.5006 C.ar      1 ATP         0.6130
     27 N6         -4.8468   -4.5293   -0.2961 N.2       1 ATP        -0.8165
     28 N1         -3.2499   -5.2342    1.3937 N.pl3     1 ATP        -0.8617
     29 C2         -2.1646   -4.9275    2.2116 C.ar      1 ATP         0.6151
     30 N3         -1.5382   -3.7840    2.2778 N.2       1 ATP        -0.5797
     31 C4         -2.1054   -2.9018    1.4120 C.ar      1 ATP         0.0328
     32 HOG3       -3.9509    5.3349   -4.2632 H         1 ATP         0.4197
     33 HOA2       -0.4603    6.3394    1.8118 H         1 ATP         0.4550
     34 H5'1       -1.4795    1.9922    0.8142 H         1 ATP         0.0431
     35 H5'2       -0.1362    3.1035    1.1868 H         1 ATP         0.0431
     36 H4'         0.0402    1.7079    3.4342 H         1 ATP         0.1325
     37 H3'         1.5907    1.4859    1.1353 H         1 ATP         0.0782
     38 HO3'        2.6839   -0.1150    2.2479 H         1 ATP         0.4062
     39 H2'        -0.0017    0.0018    0.0005 H         1 ATP         0.0689
     40 HO2'        2.0953   -0.9375    0.0709 H         1 ATP         0.4089
     41 H1'        -0.1998   -1.6319    2.6178 H         1 ATP         0.1098
     42 H8         -2.4515   -0.0599   -0.0829 H         1 ATP         0.0929
     43 HN62       -5.1990   -5.4882   -0.2005 H         1 ATP         0.3678
     44 H2         -1.8555   -5.7783    2.8388 H         1 ATP         0.0383
     45 H45        -3.6312   -6.1750    1.4526 H         1 ATP         0.4286
@<TRIPOS>BOND
     1    1    2 2
     2    1    3 1
     3    1    4 1
     4    1    8 1
     5    4   32 1
     6    5    6 2
     7    5    7 1
     8    5    8 1
     9    5   12 1
    10    9   10 2
    11    9   11 1
    12    9   12 1
    13    9   13 1
    14   11   33 1
    15   13   14 1
    16   14   15 1
    17   14   34 1
    18   14   35 1
    19   15   16 1
    20   15   17 1
    21   15   36 1
    22   16   21 1
    23   17   18 1
    24   17   19 1
    25   17   37 1
    26   18   38 1
    27   19   20 1
    28   19   21 1
    29   19   39 1
    30   20   40 1
    31   21   22 1
    32   21   41 1
    33   22   23 ar
    34   22   31 ar
    35   23   24 ar
    36   23   42 1
    37   24   25 ar
    38   25   26 ar
    39   25   31 ar
    40   26   27 2
    41   26   28 ar
    42   27   43 1
    43   28   29 ar
    44   28   45 1
    45   29   30 ar
    46   29   44 1
    47   30   31 ar
@<TRIPOS>SUBSTRUCTURE
     1 ATP         1 GROUP 0 A     ****
@<TRIPOS>MOLECULE
[[[3,4-dihydroxy-5-(6-imino-1~{H}-purin-9-yl)tetrahydrofuran-2-yl]methoxy-hydroxy-phosphoryl]oxy-oxido-phosphoryl] hydrogen phosphate
   45    47     1     0     0
SMALL
USER_CHARGES

@<TRIPOS>ATOM
      1 PG         -3.9499    7.0979    4.5008 P.3       1 ATP         1.5414
      2 O1G        -3.4491    8.5249    4.5222 O.co2     1 ATP        -0.8562
      3 O2G        -4.6076    6.4863    5.7177 O.co2     1 ATP        -0.8562
      4 O3G        -4.9522    6.9194    3.2242 O.3       1 ATP        -0.7907
      5 PB         -1.3291    5.7397    4.7216 P.3       1 ATP         1.6574
      6 O1B        -0.4622    6.9782    4.7703 O.co2     1 ATP        -0.8530
      7 O2B        -1.6202    4.9417    5.9730 O.co2     1 ATP        -0.8530
      8 O3B        -2.7430    6.1213    4.0026 O.3       1 ATP        -0.8003
      9 PA         -0.3718    4.9776    2.0264 P.3       1 ATP         1.7415
     10 O1A         0.6640    6.0385    1.7915 O.2       1 ATP        -0.8661
     11 O2A        -1.8128    5.2955    1.3627 O.3       1 ATP        -0.8077
     12 O3A        -0.7290    4.7337    3.5851 O.3       1 ATP        -0.7685
     13 O5'         0.0171    3.5129    1.4593 O.3       1 ATP        -0.5590
     14 C5'        -0.8811    2.4285    1.6206 C.3       1 ATP         0.1960
     15 C4'        -0.1994    1.3333    2.4288 C.3       1 ATP         0.0976
     16 O4'        -1.1285    0.2356    2.5840 O.3       1 ATP        -0.3865
     17 C3'         1.0324    0.7610    1.7344 C.3       1 ATP         0.0901
     18 O3'         1.9175    0.2377    2.7247 O.3       1 ATP        -0.5889
     19 C2'         0.4468   -0.3802    0.9263 C.3       1 ATP         0.0574
     20 O2'         1.3993   -1.3703    0.5961 O.3       1 ATP        -0.5923
     21 C1'        -0.6159   -0.9100    1.8769 C.3       1 ATP         0.2452
     22 N9         -1.7127   -1.6108    1.2130 N.pl3     1 ATP        -0.1834
     23 C8         -2.8662   -1.0361    0.7388 C.ar      1 ATP         0.4338
     24 N7         -3.6774   -1.9166    0.1867 N.2       1 ATP        -0.6101
     25 C5         -3.0159   -3.1045    0.3122 C.ar      1 ATP         0.2154
     26 C6         -3.4377   -4.4169   -0.1199 C.ar      1 ATP         0.6130
     27 N6         -4.5720   -4.5691   -0.7080 N.2       1 ATP        -0.8165
     28 N1         -2.4600   -5.3463    0.2071 N.pl3     1 ATP        -0.8617
     29 C2         -1.2595   -5.0554    0.8515 C.ar      1 ATP         0.6151
     30 N3         -0.8555   -3.8803    1.2516 N.2       1 ATP        -0.5797
     31 C4         -1.7946   -2.9457    0.9448 C.ar      1 ATP         0.0328
     32 HOG3       -5.3626    6.0414    3.0723 H         1 ATP         0.4197
     33 HOA2       -2.2941    6.1043    1.6391 H         1 ATP         0.4550
     34 H5'1       -1.7775    2.7843    2.1389 H         1 ATP         0.0431
     35 H5'2       -1.1658    2.0534    0.6322 H         1 ATP         0.0431
     36 H4'         0.0402    1.7079    3.4342 H         1 ATP         0.1325
     37 H3'         1.5907    1.4859    1.1353 H         1 ATP         0.0782
     38 HO3'        2.6839   -0.1150    2.2479 H         1 ATP         0.4062
     39 H2'        -0.0017    0.0018    0.0005 H         1 ATP         0.0689
     40 HO2'        0.9369   -2.0558    0.0825 H         1 ATP         0.4089
     41 H1'        -0.1998   -1.6319    2.6178 H         1 ATP         0.1098
     42 H8         -3.0558    0.0252    0.8256 H         1 ATP         0.0929
     43 HN62       -4.7047   -5.5592   -0.9421 H         1 ATP         0.3678
     44 H2         -0.6372   -5.9505    1.0077 H         1 ATP         0.0383
     45 H45        -2.6338   -6.3155   -0.0469 H         1 ATP         0.4286
@<TRIPOS>BOND
     1    1    2 2
     2    1    3 1
     3    1    4 1
     4    1    8 1
     5    4   32 1
     6    5    6 2
     7    5    7 1
     8    5    8 1
     9    5   12 1
    10    9   10 2
    11    9   11 1
    12    9   12 1
    13    9   13 1
    14   11   33 1
    15   13   14 1
    16   14   15 1
    17   14   34 1
    18   14   35 1
    19   15   16 1
    20   15   17 1
    21   15   36 1
    22   16   21 1
    23   17   18 1
    24   17   19 1
    25   17   37 1
    26   18   38 1
    27   19   20 1
    28   19   21 1
    29   19   39 1
    30   20   40 1
    31   21   22 1
    32   21   41 1
    33   22   23 ar
    34   22   31 ar
    35   23   24 ar
    36   23   42 1
    37   24   25 ar
    38   25   26 ar
    39   25   31 ar
    40   26   27 2
    41   26   28 ar
    42   27   43 1
    43   28   29 ar
    44   28   45 1
    45   29   30 ar
    46   29   44 1
    47   30   31 ar
@<TRIPOS>SUBSTRUCTURE
     1 ATP         1 GROUP 0 A     ****
@<TRIPOS>MOLECULE
[[[3,4-dihydroxy-5-(6-imino-1~{H}-purin-9-yl)tetrahydrofuran-2-yl]methoxy-hydroxy-phosphoryl]oxy-oxido-phosphoryl] hydrogen phosphate
   45    47     1     0     0
SMALL
USER_CHARGES

@<TRIPOS>ATOM
      1 PG         -5.2851    6.5301   -0.7893 P.3       1 ATP         1.5414
      2 O1G        -5.7984    5.7901   -2.0044 O.co2     1 ATP        -0.8562
      3 O2G        -5.1178    8.0332   -0.8075 O.co2     1 ATP        -0.8562
      4 O3G        -6.2116    6.1265    0.4932 O.3       1 ATP        -0.7907
      5 PB         -2.4287    5.7938   -1.0365 P.3       1 ATP         1.6574
      6 O1B        -2.5446    4.9477   -2.2849 O.co2     1 ATP        -0.8530
      7 O2B        -1.8633    7.1955   -1.0940 O.co2     1 ATP        -0.8530
      8 O3B        -3.8863    5.8463   -0.3054 O.3       1 ATP        -0.8003
      9 PA         -0.0705    4.4476    0.1413 P.3       1 ATP         1.7415
     10 O1A         0.9358    5.5605    0.0915 O.2       1 ATP        -0.8661
     11 O2A         0.0245    3.4081   -1.0950 O.3       1 ATP        -0.8077
     12 O3A        -1.6095    4.9430    0.0898 O.3       1 ATP        -0.7685
     13 O5'         0.0171    3.5129    1.4593 O.3       1 ATP        -0.5590
     14 C5'        -0.8811    2.4285    1.6206 C.3       1 ATP         0.1960
     15 C4'        -0.1994    1.3333    2.4288 C.3       1 ATP         0.0976
     16 O4'        -1.1285    0.2356    2.5840 O.3       1 ATP        -0.3865
     17 C3'         1.0324    0.7610    1.7344 C.3       1 ATP         0.0901
     18 O3'         1.9175    0.2377    2.7247 O.3       1 ATP        -0.5889
     19 C2'         0.4468   -0.3802    0.9263 C.3       1 ATP         0.0574
     20 O2'         1.3993   -1.3703    0.5961 O.3       1 ATP        -0.5923
     21 C1'        -0.6159   -0.9100    1.8769 C.3       1 ATP         0.2452
     22 N9         -1.7127   -1.6108    1.2130 N.pl3     1 ATP        -0.1834
     23 C8         -1.7690   -2.9583    0.9549 C.ar      1 ATP         0.4338
     24 N7         -2.8827   -3.3076    0.3418 N.2       1 ATP        -0.6101
     25 C5         -3.5683   -2.1351    0.2017 C.ar      1 ATP         0.2154
     26 C6         -4.8617   -1.9185   -0.4044 C.ar      1 ATP         0.6130
     27 N6         -5.5166   -2.9094   -0.8993 N.2       1 ATP        -0.8165
     28 N1         -5.1837   -0.5701   -0.3344 N.pl3     1 ATP        -0.8617
     29 C2         -4.3821    0.4180    0.2330 C.ar      1 ATP         0.6151
     30 N3         -3.2117    0.2488    0.7860 N.2       1 ATP        -0.5797
     31 C4         -2.8672   -1.0657    0.7327 C.ar      1 ATP         0.0328
     32 HOG3       -6.0036    6.5278    1.3639 H         1 ATP         0.4197
     33 HOA2       -0.1001    3.7446   -2.0080 H         1 ATP         0.4550
     34 H5'1       -1.7775    2.7843    2.1389 H         1 ATP         0.0431
     35 H5'2       -1.1658    2.0534    0.6322 H         1 ATP         0.0431
     36 H4'         0.0402    1.7079    3.4342 H         1 ATP         0.1325
     37 H3'         1.5907    1.4859    1.1353 H         1 ATP         0.0782
     38 HO3'        2.1521    0.9800    3.3017 H         1 ATP         0.4062
     39 H2'        -0.0017    0.0018    0.0005 H         1 ATP         0.0689
     40 HO2'        0.9369   -2.0558    0.0825 H         1 ATP         0.4089
     41 H1'        -0.1998   -1.6319    2.6178 H         1 ATP         0.1098
     42 H8         -0.9697   -3.6300    1.2371 H         1 ATP         0.0929
     43 HN62       -6.4060   -2.5723   -1.2840 H         1 ATP         0.3678
     44 H2         -4.8409    1.4176    0.1757 H         1 ATP         0.0383
     45 H45        -6.0768   -0.2826   -0.7263 H         1 ATP         0.4286
@<TRIPOS>BOND
     1    1    2 2
     2    1    3 1
     3    1    4 1
     4    1    8 1
     5    4   32 1
     6    5    6 2
     7    5    7 1
     8    5    8 1
     9    5   12 1
    10    9   10 2
    11    9   11 1
    12    9   12 1
    13    9   13 1
    14   11   33 1
    15   13   14 1
    16   14   15 1
    17   14   34 1
    18   14   35 1
    19   15   16 1
    20   15   17 1
    21   15   36 1
    22   16   21 1
    23   17   18 1
    24   17   19 1
    25   17   37 1
    26   18   38 1
    27   19   20 1
    28   19   21 1
    29   19   39 1
    30   20   40 1
    31   21   22 1
    32   21   41 1
    33   22   23 ar
    34   22   31 ar
    35   23   24 ar
    36   23   42 1
    37   24   25 ar
    38   25   26 ar
    39   25   31 ar
    40   26   27 2
    41   26   28 ar
    42   27   43 1
    43   28   29 ar
    44   28   45 1
    45   29   30 ar
    46   29   44 1
    47   30   31 ar
@<TRIPOS>SUBSTRUCTURE
     1 ATP         1 GROUP 0 A     ****
@<TRIPOS>MOLECULE
[[[3,4-dihydroxy-5-(6-imino-1~{H}-purin-9-yl)tetrahydrofuran-2-yl]methoxy-hydroxy-phosphoryl]oxy-oxido-phosphoryl] hydrogen phosphate
   45    47     1     0     0
SMALL
USER_CHARGES

@<TRIPOS>ATOM
      1 PG          1.7136    5.8101   -1.5823 P.3       1 ATP         1.5414
      2 O1G         1.9666    5.8577   -3.0727 O.co2     1 ATP        -0.8562
      3 O2G         2.0069    4.5598   -0.7834 O.co2     1 ATP        -0.8562
      4 O3G         2.4895    7.0659   -0.8844 O.3       1 ATP        -0.7907
      5 PB         -1.2344    5.5593   -1.6740 P.3       1 ATP         1.6574
      6 O1B        -2.3605    6.3282   -1.0194 O.co2     1 ATP        -0.8530
      7 O2B        -1.2464    5.2714   -3.1588 O.co2     1 ATP        -0.8530
      8 O3B         0.1792    6.2782   -1.2910 O.3       1 ATP        -0.8003
      9 PA         -1.9904    2.8591   -0.7259 P.3       1 ATP         1.7415
     10 O1A        -2.3196    2.1913   -2.0295 O.2       1 ATP        -0.8661
     11 O2A        -3.2755    3.4364    0.0698 O.3       1 ATP        -0.8077
     12 O3A        -1.0319    4.1544   -0.8684 O.3       1 ATP        -0.7685
     13 O5'        -1.2435    1.9111    0.3519 O.3       1 ATP        -0.5590
     14 C5'        -0.8811    2.4285    1.6206 C.3       1 ATP         0.1960
     15 C4'        -0.1994    1.3333    2.4288 C.3       1 ATP         0.0976
     16 O4'        -1.1285    0.2356    2.5840 O.3       1 ATP        -0.3865
     17 C3'         1.0324    0.7610    1.7344 C.3       1 ATP         0.0901
     18 O3'         1.9175    0.2377    2.7247 O.3       1 ATP        -0.5889
     19 C2'         0.4468   -0.3802    0.9263 C.3       1 ATP         0.0574
     20 O2'         1.3993   -1.3703    0.5961 O.3       1 ATP        -0.5923
     21 C1'        -0.6159   -0.9100    1.8769 C.3       1 ATP         0.2452
     22 N9         -1.7127   -1.6108    1.2130 N.pl3     1 ATP        -0.1834
     23 C8         -2.8662   -1.0361    0.7388 C.ar      1 ATP         0.4338
     24 N7         -3.6774   -1.9166    0.1867 N.2       1 ATP        -0.6101
     25 C5         -3.0159   -3.1045    0.3122 C.ar      1 ATP         0.2154
     26 C6         -3.4377   -4.4169   -0.1199 C.ar      1 ATP         0.6130
     27 N6         -4.5720   -4.5691   -0.7080 N.2       1 ATP        -0.8165
     28 N1         -2.4600   -5.3463    0.2071 N.pl3     1 ATP        -0.8617
     29 C2         -1.2595   -5.0554    0.8515 C.ar      1 ATP         0.6151
     30 N3         -0.8555   -3.8803    1.2516 N.2       1 ATP        -0.5797
     31 C4         -1.7946   -2.9457    0.9448 C.ar      1 ATP         0.0328
     32 HOG3        2.4218    7.1740    0.0883 H         1 ATP         0.4197
     33 HOA2       -3.9837    2.8144    0.3413 H         1 ATP         0.4550
     34 H5'1       -0.2031    3.2762    1.4776 H         1 ATP         0.0431
     35 H5'2       -1.7839    2.7764    2.1331 H         1 ATP         0.0431
     36 H4'         0.0402    1.7079    3.4342 H         1 ATP         0.1325
     37 H3'         1.5907    1.4859    1.1353 H         1 ATP         0.0782
     38 HO3'        2.6839   -0.1150    2.2479 H         1 ATP         0.4062
     39 H2'        -0.0017    0.0018    0.0005 H         1 ATP         0.0689
     40 HO2'        2.0953   -0.9375    0.0709 H         1 ATP         0.4089
     41 H1'        -0.1998   -1.6319    2.6178 H         1 ATP         0.1098
     42 H8         -3.0558    0.0252    0.8256 H         1 ATP         0.0929
     43 HN62       -4.7047   -5.5592   -0.9421 H         1 ATP         0.3678
     44 H2         -0.6372   -5.9505    1.0077 H         1 ATP         0.0383
     45 H45        -2.6338   -6.3155   -0.0469 H         1 ATP         0.4286
@<TRIPOS>BOND
     1    1    2 2
     2    1    3 1
     3    1    4 1
     4    1    8 1
     5    4   32 1
     6    5    6 2
     7    5    7 1
     8    5    8 1
     9    5   12 1
    10    9   10 2
    11    9   11 1
    12    9   12 1
    13    9   13 1
    14   11   33 1
    15   13   14 1
    16   14   15 1
    17   14   34 1
    18   14   35 1
    19   15   16 1
    20   15   17 1
    21   15   36 1
    22   16   21 1
    23   17   18 1
    24   17   19 1
    25   17   37 1
    26   18   38 1
    27   19   20 1
    28   19   21 1
    29   19   39 1
    30   20   40 1
    31   21   22 1
    32   21   41 1
    33   22   23 ar
    34   22   31 ar
    35   23   24 ar
    36   23   42 1
    37   24   25 ar
    38   25   26 ar
    39   25   31 ar
    40   26   27 2
    41   26   28 ar
    42   27   43 1
    43   28   29 ar
    44   28   45 1
    45   29   30 ar
    46   29   44 1
    47   30   31 ar
@<TRIPOS>SUBSTRUCTURE
     1 ATP         1 GROUP 0 A     ****
@<TRIPOS>MOLECULE
[[[3,4-dihydroxy-5-(6-imino-1~{H}-purin-9-yl)tetrahydrofuran-2-yl]methoxy-hydroxy-phosphoryl]oxy-oxido-phosphoryl] hydrogen phosphate
   45    47     1     0     0
SMALL
USER_CHARGES

@<TRIPOS>ATOM
      1 PG         -1.3686    8.1012   -1.4792 P.3       1 ATP         1.5414
      2 O1G        -0.0333    8.7517   -1.1937 O.co2     1 ATP        -0.8562
      3 O2G        -2.6366    8.9233   -1.5407 O.co2     1 ATP        -0.8562
      4 O3G        -1.2409    7.2399   -2.8606 O.3       1 ATP        -0.7907
      5 PB         -1.8026    6.8710    1.1778 P.3       1 ATP         1.6574
      6 O1B        -0.5253    7.3473    1.8331 O.co2     1 ATP        -0.8530
      7 O2B        -3.1301    7.5258    1.4890 O.co2     1 ATP        -0.8530
      8 O3B        -1.5877    6.8646   -0.4394 O.3       1 ATP        -0.8003
      9 PA         -2.1760    4.4068    2.7745 P.3       1 ATP         1.7415
     10 O1A        -3.4497    4.7369    3.4974 O.2       1 ATP        -0.8661
     11 O2A        -0.8322    4.6898    3.6302 O.3       1 ATP        -0.8077
     12 O3A        -1.9401    5.2633    1.4227 O.3       1 ATP        -0.7685
     13 O5'        -2.0397    2.8622    2.3122 O.3       1 ATP        -0.5590
     14 C5'        -0.8811    2.4285    1.6206 C.3       1 ATP         0.1960
     15 C4'        -0.1994    1.3333    2.4288 C.3       1 ATP         0.0976
     16 O4'        -1.1285    0.2356    2.5840 O.3       1 ATP        -0.3865
     17 C3'         1.0324    0.7610    1.7344 C.3       1 ATP         0.0901
     18 O3'         1.9175    0.2377    2.7247 O.3       1 ATP        -0.5889
     19 C2'         0.4468   -0.3802    0.9263 C.3       1 ATP         0.0574
     20 O2'         1.3993   -1.3703    0.5961 O.3       1 ATP        -0.5923
     21 C1'        -0.6159   -0.9100    1.8769 C.3       1 ATP         0.2452
     22 N9         -1.7127   -1.6108    1.2130 N.pl3     1 ATP        -0.1834
     23 C8         -2.5485   -1.0808    0.2609 C.ar      1 ATP         0.4338
     24 N7         -3.4476   -1.9486   -0.1593 N.2       1 ATP        -0.6101
     25 C5         -3.1762   -3.0816    0.5530 C.ar      1 ATP         0.2154
     26 C6         -3.8510   -4.3579    0.5006 C.ar      1 ATP         0.6130
     27 N6         -4.8468   -4.5293   -0.2961 N.2       1 ATP        -0.8165
     28 N1         -3.2499   -5.2342    1.3937 N.pl3     1 ATP        -0.8617
     29 C2         -2.1646   -4.9275    2.2116 C.ar      1 ATP         0.6151
     30 N3         -1.5382   -3.7840    2.2778 N.2       1 ATP        -0.5797
     31 C4         -2.1054   -2.9018    1.4120 C.ar      1 ATP         0.0328
     32 HOG3       -2.0303    6.7549   -3.1828 H         1 ATP         0.4197
     33 HOA2       -0.7033    4.2178    4.4804 H         1 ATP         0.4550
     34 H5'1       -1.1761    2.0499    0.6365 H         1 ATP         0.0431
     35 H5'2       -0.2073    3.2811    1.4874 H         1 ATP         0.0431
     36 H4'         0.0402    1.7079    3.4342 H         1 ATP         0.1325
     37 H3'         1.5907    1.4859    1.1353 H         1 ATP         0.0782
     38 HO3'        2.6839   -0.1150    2.2479 H         1 ATP         0.4062
     39 H2'        -0.0017    0.0018    0.0005 H         1 ATP         0.0689
     40 HO2'        2.0953   -0.9375    0.0709 H         1 ATP         0.4089
     41 H1'        -0.1998   -1.6319    2.6178 H         1 ATP         0.1098
     42 H8         -2.4515   -0.0599   -0.0829 H         1 ATP         0.0929
     43 HN62       -5.1990   -5.4882   -0.2005 H         1 ATP         0.3678
     44 H2         -1.8555   -5.7783    2.8388 H         1 ATP         0.0383
     45 H45        -3.6312   -6.1750    1.4526 H         1 ATP         0.4286
@<TRIPOS>BOND
     1    1    2 2
     2    1    3 1
     3    1    4 1
     4    1    8 1
     5    4   32 1
     6    5    6 2
     7    5    7 1
     8    5    8 1
     9    5   12 1
    10    9   10 2
    11    9   11 1
    12    9   12 1
    13    9   13 1
    14   11   33 1
    15   13   14 1
    16   14   15 1
    17   14   34 1
    18   14   35 1
    19   15   16 1
    20   15   17 1
    21   15   36 1
    22   16   21 1
    23   17   18 1
    24   17   19 1
    25   17   37 1
    26   18   38 1
    27   19   20 1
    28   19   21 1
    29   19   39 1
    30   20   40 1
    31   21   22 1
    32   21   41 1
    33   22   23 ar
    34   22   31 ar
    35   23   24 ar
    36   23   42 1
    37   24   25 ar
    38   25   26 ar
    39   25   31 ar
    40   26   27 2
    41   26   28 ar
    42   27   43 1
    43   28   29 ar
    44   28   45 1
    45   29   30 ar
    46   29   44 1
    47   30   31 ar
@<TRIPOS>SUBSTRUCTURE
     1 ATP         1 GROUP 0 A     ****
@<TRIPOS>MOLECULE
[[[3,4-dihydroxy-5-(6-imino-1~{H}-purin-9-yl)tetrahydrofuran-2-yl]methoxy-hydroxy-phosphoryl]oxy-oxido-phosphoryl] hydrogen phosphate
   45    47     1     0     0
SMALL
USER_CHARGES

@<TRIPOS>ATOM
      1 PG          6.3032    1.3336   -4.5856 P.3       1 ATP         1.5414
      2 O1G         6.8923    2.2829   -5.6052 O.co2     1 ATP        -0.8562
      3 O2G         4.9323    1.5789   -3.9958 O.co2     1 ATP        -0.8562
      4 O3G         6.3400   -0.1778   -5.2025 O.3       1 ATP        -0.7907
      5 PB          7.9146    2.1849   -2.2530 P.3       1 ATP         1.6574
      6 O1B         8.7702    1.4357   -1.2559 O.co2     1 ATP        -0.8530
      7 O2B         8.4366    3.4166   -2.9587 O.co2     1 ATP        -0.8530
      8 O3B         7.3738    1.1289   -3.3730 O.3       1 ATP        -0.8003
      9 PA          6.1388    3.5441   -0.3139 P.3       1 ATP         1.7415
     10 O1A         6.5122    4.9778   -0.5559 O.2       1 ATP        -0.8661
     11 O2A         6.8954    2.8621    0.9433 O.3       1 ATP        -0.8077
     12 O3A         6.4925    2.5510   -1.5408 O.3       1 ATP        -0.7685
     13 O5'         4.5673    3.2930   -0.0211 O.3       1 ATP        -0.5590
     14 C5'         4.0922    1.9801    0.2227 C.3       1 ATP         0.1960
     15 C4'         2.5944    2.0310    0.4653 C.3       1 ATP         0.0976
     16 O4'         1.9327    2.5740   -0.6889 O.3       1 ATP        -0.3865
     17 C3'         1.9685    0.6634    0.6767 C.3       1 ATP         0.0901
     18 O3'         2.1425    0.1975    1.9977 O.3       1 ATP        -0.5889
     19 C2'         0.5176    0.9128    0.3099 C.3       1 ATP         0.0574
     20 O2'        -0.2103    1.4454    1.4152 O.3       1 ATP        -0.5923
     21 C1'         0.6219    1.9765   -0.7844 C.3       1 ATP         0.2452
     22 N9          0.4237    1.4496   -2.1357 N.pl3     1 ATP        -0.1834
     23 C8          1.4069    0.9710   -2.9662 C.ar      1 ATP         0.4338
     24 N7          0.9316    0.5623   -4.1260 N.2       1 ATP        -0.6101
     25 C5         -0.4120    0.7884   -4.0344 C.ar      1 ATP         0.2154
     26 C6         -1.4353    0.5283   -5.0204 C.ar      1 ATP         0.6130
     27 N6         -1.1199    0.0176   -6.1586 N.2       1 ATP        -0.8165
     28 N1         -2.6704    0.9095   -4.5147 N.pl3     1 ATP        -0.8617
     29 C2         -2.8863    1.4571   -3.2520 C.ar      1 ATP         0.6151
     30 N3         -1.9805    1.7017   -2.3442 N.2       1 ATP        -0.5797
     31 C4         -0.7561    1.3381   -2.8112 C.ar      1 ATP         0.0328
     32 HOG3        5.9896   -0.9135   -4.6562 H         1 ATP         0.4197
     33 HOA2        6.7749    3.2497    1.8363 H         1 ATP         0.4550
     34 H5'1        4.3175    1.3541   -0.6468 H         1 ATP         0.0431
     35 H5'2        4.6079    1.5730    1.0985 H         1 ATP         0.0431
     36 H4'         2.3752    2.7029    1.3156 H         1 ATP         0.1325
     37 H3'         2.4336   -0.1217   -0.0016 H         1 ATP         0.0782
     38 HO3'        1.7160   -0.6716    2.0397 H         1 ATP         0.4062
     39 H2'         0.0316    0.0155   -0.0339 H         1 ATP         0.0689
     40 HO2'       -0.1608    0.7921    2.1351 H         1 ATP         0.4089
     41 H1'        -0.1474    2.7798   -0.6651 H         1 ATP         0.1098
     42 H8          2.4466    0.9468   -2.6694 H         1 ATP         0.0929
     43 HN62       -1.9661   -0.0965   -6.7275 H         1 ATP         0.3678
     44 H2         -3.9481    1.6825   -3.0660 H         1 ATP         0.0383
     45 H45        -3.4814    0.7753   -5.1133 H         1 ATP         0.4286
@<TRIPOS>BOND
     1    1    2 2
     2    1    3 1
     3    1    4 1
     4    1    8 1
     5    4   32 1
     6    5    6 2
     7    5    7 1
     8    5    8 1
     9    5   12 1
    10    9   10 2
    11    9   11 1
    12    9   12 1
    13    9   13 1
    14   11   33 1
    15   13   14 1
    16   14   15 1
    17   14   34 1
    18   14   35 1
    19   15   16 1
    20   15   17 1
    21   15   36 1
    22   16   21 1
    23   17   18 1
    24   17   19 1
    25   17   37 1
    26   18   38 1
    27   19   20 1
    28   19   21 1
    29   19   39 1
    30   20   40 1
    31   21   22 1
    32   21   41 1
    33   22   23 ar
    34   22   31 ar
    35   23   24 ar
    36   23   42 1
    37   24   25 ar
    38   25   26 ar
    39   25   31 ar
    40   26   27 2
    41   26   28 ar
    42   27   43 1
    43   28   29 ar
    44   28   45 1
    45   29   30 ar
    46   29   44 1
    47   30   31 ar
@<TRIPOS>SUBSTRUCTURE
     1 ATP         1 GROUP 0 A     ****
@<TRIPOS>MOLECULE
[[[3,4-dihydroxy-5-(6-imino-1~{H}-purin-9-yl)tetrahydrofuran-2-yl]methoxy-hydroxy-phosphoryl]oxy-oxido-phosphoryl] hydrogen phosphate
   45    47     1     0     0
SMALL
USER_CHARGES

@<TRIPOS>ATOM
      1 PG         -4.5976    2.9594   -3.6645 P.3       1 ATP         1.5414
      2 O1G        -6.0653    3.3244   -3.6650 O.co2     1 ATP        -0.8562
      3 O2G        -4.1149    1.6779   -4.3065 O.co2     1 ATP        -0.8562
      4 O3G        -3.7530    4.2063   -4.2956 O.3       1 ATP        -0.7907
      5 PB         -4.1117    4.2370   -1.0390 P.3       1 ATP         1.6574
      6 O1B        -3.2641    5.3903   -1.5282 O.co2     1 ATP        -0.8530
      7 O2B        -5.5572    4.4437   -0.6446 O.co2     1 ATP        -0.8530
      8 O3B        -4.0350    3.0318   -2.1359 O.3       1 ATP        -0.8003
      9 PA         -2.9690    4.0281    1.6835 P.3       1 ATP         1.7415
     10 O1A        -4.1648    4.3954    2.5134 O.2       1 ATP        -0.8661
     11 O2A        -1.9470    5.2523    1.4099 O.3       1 ATP        -0.8077
     12 O3A        -3.3299    3.5086    0.1947 O.3       1 ATP        -0.7685
     13 O5'        -2.0397    2.8622    2.3122 O.3       1 ATP        -0.5590
     14 C5'        -0.8811    2.4285    1.6206 C.3       1 ATP         0.1960
     15 C4'        -0.1994    1.3333    2.4288 C.3       1 ATP         0.0976
     16 O4'        -1.1285    0.2356    2.5840 O.3       1 ATP        -0.3865
     17 C3'         1.0324    0.7610    1.7344 C.3       1 ATP         0.0901
     18 O3'         1.9175    0.2377    2.7247 O.3       1 ATP        -0.5889
     19 C2'         0.4468   -0.3802    0.9263 C.3       1 ATP         0.0574
     20 O2'         1.3993   -1.3703    0.5961 O.3       1 ATP        -0.5923
     21 C1'        -0.6159   -0.9100    1.8769 C.3       1 ATP         0.2452
     22 N9         -1.7127   -1.6108    1.2130 N.pl3     1 ATP        -0.1834
     23 C8         -2.5485   -1.0808    0.2609 C.ar      1 ATP         0.4338
     24 N7         -3.4476   -1.9486   -0.1593 N.2       1 ATP        -0.6101
     25 C5         -3.1762   -3.0816    0.5530 C.ar      1 ATP         0.2154
     26 C6         -3.8510   -4.3579    0.5006 C.ar      1 ATP         0.6130
     27 N6         -4.8468   -4.5293   -0.2961 N.2       1 ATP        -0.8165
     28 N1         -3.2499   -5.2342    1.3937 N.pl3     1 ATP        -0.8617
     29 C2         -2.1646   -4.9275    2.2116 C.ar      1 ATP         0.6151
     30 N3         -1.5382   -3.7840    2.2778 N.2       1 ATP        -0.5797
     31 C4         -2.1054   -2.9018    1.4120 C.ar      1 ATP         0.0328
     32 HOG3       -3.8051    5.0785   -3.8496 H         1 ATP         0.4197
     33 HOA2       -2.2754    6.0480    0.9395 H         1 ATP         0.4550
     34 H5'1       -1.1761    2.0499    0.6365 H         1 ATP         0.0431
     35 H5'2       -0.2073    3.2811    1.4874 H         1 ATP         0.0431
     36 H4'         0.0402    1.7079    3.4342 H         1 ATP         0.1325
     37 H3'         1.5907    1.4859    1.1353 H         1 ATP         0.0782
     38 HO3'        2.6839   -0.1150    2.2479 H         1 ATP         0.4062
     39 H2'        -0.0017    0.0018    0.0005 H         1 ATP         0.0689
     40 HO2'        0.9369   -2.0558    0.0825 H         1 ATP         0.4089
     41 H1'        -0.1998   -1.6319    2.6178 H         1 ATP         0.1098
     42 H8         -2.4515   -0.0599   -0.0829 H         1 ATP         0.0929
     43 HN62       -5.1990   -5.4882   -0.2005 H         1 ATP         0.3678
     44 H2         -1.8555   -5.7783    2.8388 H         1 ATP         0.0383
     45 H45        -3.6312   -6.1750    1.4526 H         1 ATP         0.4286
@<TRIPOS>BOND
     1    1    2 2
     2    1    3 1
     3    1    4 1
     4    1    8 1
     5    4   32 1
     6    5    6 2
     7    5    7 1
     8    5    8 1
     9    5   12 1
    10    9   10 2
    11    9   11 1
    12    9   12 1
    13    9   13 1
    14   11   33 1
    15   13   14 1
    16   14   15 1
    17   14   34 1
    18   14   35 1
    19   15   16 1
    20   15   17 1
    21   15   36 1
    22   16   21 1
    23   17   18 1
    24   17   19 1
    25   17   37 1
    26   18   38 1
    27   19   20 1
    28   19   21 1
    29   19   39 1
    30   20   40 1
    31   21   22 1
    32   21   41 1
    33   22   23 ar
    34   22   31 ar
    35   23   24 ar
    36   23   42 1
    37   24   25 ar
    38   25   26 ar
    39   25   31 ar
    40   26   27 2
    41   26   28 ar
    42   27   43 1
    43   28   29 ar
    44   28   45 1
    45   29   30 ar
    46   29   44 1
    47   30   31 ar
@<TRIPOS>SUBSTRUCTURE
     1 ATP         1 GROUP 0 A     ****
@<TRIPOS>MOLECULE
[[[3,4-dihydroxy-5-(6-imino-1~{H}-purin-9-yl)tetrahydrofuran-2-yl]methoxy-hydroxy-phosphoryl]oxy-oxido-phosphoryl] hydrogen phosphate
   45    47     1     0     0
SMALL
USER_CHARGES

@<TRIPOS>ATOM
      1 PG         -3.9184    8.8272    1.8552 P.3       1 ATP         1.5414
      2 O1G        -4.1682    9.3573    0.4609 O.co2     1 ATP        -0.8562
      3 O2G        -3.1400    9.6377    2.8674 O.co2     1 ATP        -0.8562
      4 O3G        -5.3523    8.4104    2.5160 O.3       1 ATP        -0.7907
      5 PB         -1.8026    6.8710    1.1778 P.3       1 ATP         1.6574
      6 O1B        -1.7599    7.1261   -0.3124 O.co2     1 ATP        -0.8530
      7 O2B        -0.7269    7.4123    2.0930 O.co2     1 ATP        -0.8530
      8 O3B        -3.2584    7.3402    1.7454 O.3       1 ATP        -0.8003
      9 PA         -2.1760    4.4068    2.7745 P.3       1 ATP         1.7415
     10 O1A        -3.4497    4.7369    3.4974 O.2       1 ATP        -0.8661
     11 O2A        -0.8322    4.6898    3.6302 O.3       1 ATP        -0.8077
     12 O3A        -1.9401    5.2633    1.4227 O.3       1 ATP        -0.7685
     13 O5'        -2.0397    2.8622    2.3122 O.3       1 ATP        -0.5590
     14 C5'        -0.8811    2.4285    1.6206 C.3       1 ATP         0.1960
     15 C4'        -0.1994    1.3333    2.4288 C.3       1 ATP         0.0976
     16 O4'        -1.1285    0.2356    2.5840 O.3       1 ATP        -0.3865
     17 C3'         1.0324    0.7610    1.7344 C.3       1 ATP         0.0901
     18 O3'         1.9175    0.2377    2.7247 O.3       1 ATP        -0.5889
     19 C2'         0.4468   -0.3802    0.9263 C.3       1 ATP         0.0574
     20 O2'         1.3993   -1.3703    0.5961 O.3       1 ATP        -0.5923
     21 C1'        -0.6159   -0.9100    1.8769 C.3       1 ATP         0.2452
     22 N9         -1.7127   -1.6108    1.2130 N.pl3     1 ATP        -0.1834
     23 C8         -1.7690   -2.9583    0.9549 C.ar      1 ATP         0.4338
     24 N7         -2.8827   -3.3076    0.3418 N.2       1 ATP        -0.6101
     25 C5         -3.5683   -2.1351    0.2017 C.ar      1 ATP         0.2154
     26 C6         -4.8617   -1.9185   -0.4044 C.ar      1 ATP         0.6130
     27 N6         -5.5166   -2.9094   -0.8993 N.2       1 ATP        -0.8165
     28 N1         -5.1837   -0.5701   -0.3344 N.pl3     1 ATP        -0.8617
     29 C2         -4.3821    0.4180    0.2330 C.ar      1 ATP         0.6151
     30 N3         -3.2117    0.2488    0.7860 N.2       1 ATP        -0.5797
     31 C4         -2.8672   -1.0657    0.7327 C.ar      1 ATP         0.0328
     32 HOG3       -5.3581    8.0461    3.4268 H         1 ATP         0.4197
     33 HOA2       -0.7033    4.2178    4.4804 H         1 ATP         0.4550
     34 H5'1       -1.1761    2.0499    0.6365 H         1 ATP         0.0431
     35 H5'2       -0.2073    3.2811    1.4874 H         1 ATP         0.0431
     36 H4'         0.0402    1.7079    3.4342 H         1 ATP         0.1325
     37 H3'         1.5907    1.4859    1.1353 H         1 ATP         0.0782
     38 HO3'        2.6839   -0.1150    2.2479 H         1 ATP         0.4062
     39 H2'        -0.0017    0.0018    0.0005 H         1 ATP         0.0689
     40 HO2'        2.0953   -0.9375    0.0709 H         1 ATP         0.4089
     41 H1'        -0.1998   -1.6319    2.6178 H         1 ATP         0.1098
     42 H8         -0.9697   -3.6300    1.2371 H         1 ATP         0.0929
     43 HN62       -6.4060   -2.5723   -1.2840 H         1 ATP         0.3678
     44 H2         -4.8409    1.4176    0.1757 H         1 ATP         0.0383
     45 H45        -6.0768   -0.2826   -0.7263 H         1 ATP         0.4286
@<TRIPOS>BOND
     1    1    2 2
     2    1    3 1
     3    1    4 1
     4    1    8 1
     5    4   32 1
     6    5    6 2
     7    5    7 1
     8    5    8 1
     9    5   12 1
    10    9   10 2
    11    9   11 1
    12    9   12 1
    13    9   13 1
    14   11   33 1
    15   13   14 1
    16   14   15 1
    17   14   34 1
    18   14   35 1
    19   15   16 1
    20   15   17 1
    21   15   36 1
    22   16   21 1
    23   17   18 1
    24   17   19 1
    25   17   37 1
    26   18   38 1
    27   19   20 1
    28   19   21 1
    29   19   39 1
    30   20   40 1
    31   21   22 1
    32   21   41 1
    33   22   23 ar
    34   22   31 ar
    35   23   24 ar
    36   23   42 1
    37   24   25 ar
    38   25   26 ar
    39   25   31 ar
    40   26   27 2
    41   26   28 ar
    42   27   43 1
    43   28   29 ar
    44   28   45 1
    45   29   30 ar
    46   29   44 1
    47   30   31 ar
@<TRIPOS>SUBSTRUCTURE
     1 ATP         1 GROUP 0 A     ****
@<TRIPOS>MOLECULE
[[[3,4-dihydroxy-5-(6-imino-1~{H}-purin-9-yl)tetrahydrofuran-2-yl]methoxy-hydroxy-phosphoryl]oxy-oxido-phosphoryl] hydrogen phosphate
   45    47     1     0     0
SMALL
USER_CHARGES

@<TRIPOS>ATOM
      1 PG         -1.8641    4.9328    7.5189 P.3       1 ATP         1.5414
      2 O1G        -1.5435    3.6943    8.3256 O.co2     1 ATP        -0.8562
      3 O2G        -3.2595    5.5159    7.5109 O.co2     1 ATP        -0.8562
      4 O3G        -0.8120    6.1098    7.9357 O.3       1 ATP        -0.7907
      5 PB         -1.3291    5.7397    4.7216 P.3       1 ATP         1.6574
      6 O1B        -2.7473    6.1012    4.3399 O.co2     1 ATP        -0.8530
      7 O2B        -0.3026    6.8116    5.0136 O.co2     1 ATP        -0.8530
      8 O3B        -1.3764    4.7026    5.9801 O.3       1 ATP        -0.8003
      9 PA         -0.3718    4.9776    2.0264 P.3       1 ATP         1.7415
     10 O1A         0.6640    6.0385    1.7915 O.2       1 ATP        -0.8661
     11 O2A        -1.8128    5.2955    1.3627 O.3       1 ATP        -0.8077
     12 O3A        -0.7290    4.7337    3.5851 O.3       1 ATP        -0.7685
     13 O5'         0.0171    3.5129    1.4593 O.3       1 ATP        -0.5590
     14 C5'        -0.8811    2.4285    1.6206 C.3       1 ATP         0.1960
     15 C4'        -0.1994    1.3333    2.4288 C.3       1 ATP         0.0976
     16 O4'        -1.1285    0.2356    2.5840 O.3       1 ATP        -0.3865
     17 C3'         1.0324    0.7610    1.7344 C.3       1 ATP         0.0901
     18 O3'         1.9175    0.2377    2.7247 O.3       1 ATP        -0.5889
     19 C2'         0.4468   -0.3802    0.9263 C.3       1 ATP         0.0574
     20 O2'         1.3993   -1.3703    0.5961 O.3       1 ATP        -0.5923
     21 C1'        -0.6159   -0.9100    1.8769 C.3       1 ATP         0.2452
     22 N9         -1.7127   -1.6108    1.2130 N.pl3     1 ATP        -0.1834
     23 C8         -2.8662   -1.0361    0.7388 C.ar      1 ATP         0.4338
     24 N7         -3.6774   -1.9166    0.1867 N.2       1 ATP        -0.6101
     25 C5         -3.0159   -3.1045    0.3122 C.ar      1 ATP         0.2154
     26 C6         -3.4377   -4.4169   -0.1199 C.ar      1 ATP         0.6130
     27 N6         -4.5720   -4.5691   -0.7080 N.2       1 ATP        -0.8165
     28 N1         -2.4600   -5.3463    0.2071 N.pl3     1 ATP        -0.8617
     29 C2         -1.2595   -5.0554    0.8515 C.ar      1 ATP         0.6151
     30 N3         -0.8555   -3.8803    1.2516 N.2       1 ATP        -0.5797
     31 C4         -1.7946   -2.9457    0.9448 C.ar      1 ATP         0.0328
     32 HOG3       -0.8903    6.9831    7.4957 H         1 ATP         0.4197
     33 HOA2       -1.8712    5.4150    0.3908 H         1 ATP         0.4550
     34 H5'1       -1.7775    2.7843    2.1389 H         1 ATP         0.0431
     35 H5'2       -1.1658    2.0534    0.6322 H         1 ATP         0.0431
     36 H4'         0.0402    1.7079    3.4342 H         1 ATP         0.1325
     37 H3'         1.5907    1.4859    1.1353 H         1 ATP         0.0782
     38 HO3'        2.6839   -0.1150    2.2479 H         1 ATP         0.4062
     39 H2'        -0.0017    0.0018    0.0005 H         1 ATP         0.0689
     40 HO2'        2.0953   -0.9375    0.0709 H         1 ATP         0.4089
     41 H1'        -0.1998   -1.6319    2.6178 H         1 ATP         0.1098
     42 H8         -3.0558    0.0252    0.8256 H         1 ATP         0.0929
     43 HN62       -4.7047   -5.5592   -0.9421 H         1 ATP         0.3678
     44 H2         -0.6372   -5.9505    1.0077 H         1 ATP         0.0383
     45 H45        -2.6338   -6.3155   -0.0469 H         1 ATP         0.4286
@<TRIPOS>BOND
     1    1    2 2
     2    1    3 1
     3    1    4 1
     4    1    8 1
     5    4   32 1
     6    5    6 2
     7    5    7 1
     8    5    8 1
     9    5   12 1
    10    9   10 2
    11    9   11 1
    12    9   12 1
    13    9   13 1
    14   11   33 1
    15   13   14 1
    16   14   15 1
    17   14   34 1
    18   14   35 1
    19   15   16 1
    20   15   17 1
    21   15   36 1
    22   16   21 1
    23   17   18 1
    24   17   19 1
    25   17   37 1
    26   18   38 1
    27   19   20 1
    28   19   21 1
    29   19   39 1
    30   20   40 1
    31   21   22 1
    32   21   41 1
    33   22   23 ar
    34   22   31 ar
    35   23   24 ar
    36   23   42 1
    37   24   25 ar
    38   25   26 ar
    39   25   31 ar
    40   26   27 2
    41   26   28 ar
    42   27   43 1
    43   28   29 ar
    44   28   45 1
    45   29   30 ar
    46   29   44 1
    47   30   31 ar
@<TRIPOS>SUBSTRUCTURE
     1 ATP         1 GROUP 0 A     ****
@<TRIPOS>MOLECULE
[[[3,4-dihydroxy-5-(6-imino-1~{H}-purin-9-yl)tetrahydrofuran-2-yl]methoxy-hydroxy-phosphoryl]oxy-oxido-phosphoryl] hydrogen phosphate
   45    47     1     0     0
SMALL
USER_CHARGES

@<TRIPOS>ATOM
      1 PG         -2.5540    6.3096   -1.6297 P.3       1 ATP         1.5414
      2 O1G        -3.8008    7.1639   -1.6881 O.co2     1 ATP        -0.8562
      3 O2G        -2.6475    4.8036   -1.5259 O.co2     1 ATP        -0.8562
      4 O3G        -1.6086    6.6841   -2.9073 O.3       1 ATP        -0.7907
      5 PB         -1.8026    6.8710    1.1778 P.3       1 ATP         1.6574
      6 O1B        -0.5253    7.3473    1.8331 O.co2     1 ATP        -0.8530
      7 O2B        -3.1301    7.5258    1.4890 O.co2     1 ATP        -0.8530
      8 O3B        -1.5877    6.8646   -0.4394 O.3       1 ATP        -0.8003
      9 PA         -2.1760    4.4068    2.7745 P.3       1 ATP         1.7415
     10 O1A        -3.4497    4.7369    3.4974 O.2       1 ATP        -0.8661
     11 O2A        -0.8322    4.6898    3.6302 O.3       1 ATP        -0.8077
     12 O3A        -1.9401    5.2633    1.4227 O.3       1 ATP        -0.7685
     13 O5'        -2.0397    2.8622    2.3122 O.3       1 ATP        -0.5590
     14 C5'        -0.8811    2.4285    1.6206 C.3       1 ATP         0.1960
     15 C4'        -0.1994    1.3333    2.4288 C.3       1 ATP         0.0976
     16 O4'        -1.1285    0.2356    2.5840 O.3       1 ATP        -0.3865
     17 C3'         1.0324    0.7610    1.7344 C.3       1 ATP         0.0901
     18 O3'         1.9175    0.2377    2.7247 O.3       1 ATP        -0.5889
     19 C2'         0.4468   -0.3802    0.9263 C.3       1 ATP         0.0574
     20 O2'         1.3993   -1.3703    0.5961 O.3       1 ATP        -0.5923
     21 C1'        -0.6159   -0.9100    1.8769 C.3       1 ATP         0.2452
     22 N9         -1.7127   -1.6108    1.2130 N.pl3     1 ATP        -0.1834
     23 C8         -2.5485   -1.0808    0.2609 C.ar      1 ATP         0.4338
     24 N7         -3.4476   -1.9486   -0.1593 N.2       1 ATP        -0.6101
     25 C5         -3.1762   -3.0816    0.5530 C.ar      1 ATP         0.2154
     26 C6         -3.8510   -4.3579    0.5006 C.ar      1 ATP         0.6130
     27 N6         -4.8468   -4.5293   -0.2961 N.2       1 ATP        -0.8165
     28 N1         -3.2499   -5.2342    1.3937 N.pl3     1 ATP        -0.8617
     29 C2         -2.1646   -4.9275    2.2116 C.ar      1 ATP         0.6151
     30 N3         -1.5382   -3.7840    2.2778 N.2       1 ATP        -0.5797
     31 C4         -2.1054   -2.9018    1.4120 C.ar      1 ATP         0.0328
     32 HOG3       -0.7556    6.2109   -3.0112 H         1 ATP         0.4197
     33 HOA2       -0.6510    5.6026    3.9402 H         1 ATP         0.4550
     34 H5'1       -1.1761    2.0499    0.6365 H         1 ATP         0.0431
     35 H5'2       -0.2073    3.2811    1.4874 H         1 ATP         0.0431
     36 H4'         0.0402    1.7079    3.4342 H         1 ATP         0.1325
     37 H3'         1.5907    1.4859    1.1353 H         1 ATP         0.0782
     38 HO3'        2.1521    0.9800    3.3017 H         1 ATP         0.4062
     39 H2'        -0.0017    0.0018    0.0005 H         1 ATP         0.0689
     40 HO2'        0.9369   -2.0558    0.0825 H         1 ATP         0.4089
     41 H1'        -0.1998   -1.6319    2.6178 H         1 ATP         0.1098
     42 H8         -2.4515   -0.0599   -0.0829 H         1 ATP         0.0929
     43 HN62       -5.1990   -5.4882   -0.2005 H         1 ATP         0.3678
     44 H2         -1.8555   -5.7783    2.8388 H         1 ATP         0.0383
     45 H45        -3.6312   -6.1750    1.4526 H         1 ATP         0.4286
@<TRIPOS>BOND
     1    1    2 2
     2    1    3 1
     3    1    4 1
     4    1    8 1
     5    4   32 1
     6    5    6 2
     7    5    7 1
     8    5    8 1
     9    5   12 1
    10    9   10 2
    11    9   11 1
    12    9   12 1
    13    9   13 1
    14   11   33 1
    15   13   14 1
    16   14   15 1
    17   14   34 1
    18   14   35 1
    19   15   16 1
    20   15   17 1
    21   15   36 1
    22   16   21 1
    23   17   18 1
    24   17   19 1
    25   17   37 1
    26   18   38 1
    27   19   20 1
    28   19   21 1
    29   19   39 1
    30   20   40 1
    31   21   22 1
    32   21   41 1
    33   22   23 ar
    34   22   31 ar
    35   23   24 ar
    36   23   42 1
    37   24   25 ar
    38   25   26 ar
    39   25   31 ar
    40   26   27 2
    41   26   28 ar
    42   27   43 1
    43   28   29 ar
    44   28   45 1
    45   29   30 ar
    46   29   44 1
    47   30   31 ar
@<TRIPOS>SUBSTRUCTURE
     1 ATP         1 GROUP 0 A     ****
@<TRIPOS>MOLECULE
[[[3,4-dihydroxy-5-(6-imino-1~{H}-purin-9-yl)tetrahydrofuran-2-yl]methoxy-hydroxy-phosphoryl]oxy-oxido-phosphoryl] hydrogen phosphate
   45    47     1     0     0
SMALL
USER_CHARGES

@<TRIPOS>ATOM
      1 PG          0.2955    8.5522    2.4162 P.3       1 ATP         1.5414
      2 O1G        -0.6105    9.4710    3.2053 O.co2     1 ATP        -0.8562
      3 O2G         0.9651    9.0242    1.1449 O.co2     1 ATP        -0.8562
      4 O3G         1.4423    7.9670    3.4206 O.3       1 ATP        -0.7907
      5 PB         -1.8026    6.8710    1.1778 P.3       1 ATP         1.6574
      6 O1B        -3.0017    7.5537    1.7975 O.co2     1 ATP        -0.8530
      7 O2B        -1.4279    7.1128   -0.2675 O.co2     1 ATP        -0.8530
      8 O3B        -0.4974    7.1601    2.1130 O.3       1 ATP        -0.8003
      9 PA         -2.1760    4.4068    2.7745 P.3       1 ATP         1.7415
     10 O1A        -3.4497    4.7369    3.4974 O.2       1 ATP        -0.8661
     11 O2A        -0.8322    4.6898    3.6302 O.3       1 ATP        -0.8077
     12 O3A        -1.9401    5.2633    1.4227 O.3       1 ATP        -0.7685
     13 O5'        -2.0397    2.8622    2.3122 O.3       1 ATP        -0.5590
     14 C5'        -0.8811    2.4285    1.6206 C.3       1 ATP         0.1960
     15 C4'        -0.1994    1.3333    2.4288 C.3       1 ATP         0.0976
     16 O4'        -1.1285    0.2356    2.5840 O.3       1 ATP        -0.3865
     17 C3'         1.0324    0.7610    1.7344 C.3       1 ATP         0.0901
     18 O3'         1.9175    0.2377    2.7247 O.3       1 ATP        -0.5889
     19 C2'         0.4468   -0.3802    0.9263 C.3       1 ATP         0.0574
     20 O2'         1.3993   -1.3703    0.5961 O.3       1 ATP        -0.5923
     21 C1'        -0.6159   -0.9100    1.8769 C.3       1 ATP         0.2452
     22 N9         -1.7127   -1.6108    1.2130 N.pl3     1 ATP        -0.1834
     23 C8         -1.7690   -2.9583    0.9549 C.ar      1 ATP         0.4338
     24 N7         -2.8827   -3.3076    0.3418 N.2       1 ATP        -0.6101
     25 C5         -3.5683   -2.1351    0.2017 C.ar      1 ATP         0.2154
     26 C6         -4.8617   -1.9185   -0.4044 C.ar      1 ATP         0.6130
     27 N6         -5.5166   -2.9094   -0.8993 N.2       1 ATP        -0.8165
     28 N1         -5.1837   -0.5701   -0.3344 N.pl3     1 ATP        -0.8617
     29 C2         -4.3821    0.4180    0.2330 C.ar      1 ATP         0.6151
     30 N3         -3.2117    0.2488    0.7860 N.2       1 ATP        -0.5797
     31 C4         -2.8672   -1.0657    0.7327 C.ar      1 ATP         0.0328
     32 HOG3        2.1122    7.3506    3.0552 H         1 ATP         0.4197
     33 HOA2       -0.7033    4.2178    4.4804 H         1 ATP         0.4550
     34 H5'1       -1.1761    2.0499    0.6365 H         1 ATP         0.0431
     35 H5'2       -0.2073    3.2811    1.4874 H         1 ATP         0.0431
     36 H4'         0.0402    1.7079    3.4342 H         1 ATP         0.1325
     37 H3'         1.5907    1.4859    1.1353 H         1 ATP         0.0782
     38 HO3'        2.6839   -0.1150    2.2479 H         1 ATP         0.4062
     39 H2'        -0.0017    0.0018    0.0005 H         1 ATP         0.0689
     40 HO2'        2.0953   -0.9375    0.0709 H         1 ATP         0.4089
     41 H1'        -0.1998   -1.6319    2.6178 H         1 ATP         0.1098
     42 H8         -0.9697   -3.6300    1.2371 H         1 ATP         0.0929
     43 HN62       -6.4060   -2.5723   -1.2840 H         1 ATP         0.3678
     44 H2         -4.8409    1.4176    0.1757 H         1 ATP         0.0383
     45 H45        -6.0768   -0.2826   -0.7263 H         1 ATP         0.4286
@<TRIPOS>BOND
     1    1    2 2
     2    1    3 1
     3    1    4 1
     4    1    8 1
     5    4   32 1
     6    5    6 2
     7    5    7 1
     8    5    8 1
     9    5   12 1
    10    9   10 2
    11    9   11 1
    12    9   12 1
    13    9   13 1
    14   11   33 1
    15   13   14 1
    16   14   15 1
    17   14   34 1
    18   14   35 1
    19   15   16 1
    20   15   17 1
    21   15   36 1
    22   16   21 1
    23   17   18 1
    24   17   19 1
    25   17   37 1
    26   18   38 1
    27   19   20 1
    28   19   21 1
    29   19   39 1
    30   20   40 1
    31   21   22 1
    32   21   41 1
    33   22   23 ar
    34   22   31 ar
    35   23   24 ar
    36   23   42 1
    37   24   25 ar
    38   25   26 ar
    39   25   31 ar
    40   26   27 2
    41   26   28 ar
    42   27   43 1
    43   28   29 ar
    44   28   45 1
    45   29   30 ar
    46   29   44 1
    47   30   31 ar
@<TRIPOS>SUBSTRUCTURE
     1 ATP         1 GROUP 0 A     ****
@<TRIPOS>MOLECULE
[[[3,4-dihydroxy-5-(6-imino-1~{H}-purin-9-yl)tetrahydrofuran-2-yl]methoxy-hydroxy-phosphoryl]oxy-oxido-phosphoryl] hydrogen phosphate
   45    47     1     0     0
SMALL
USER_CHARGES

@<TRIPOS>ATOM
      1 PG          1.8892    6.9617    5.8174 P.3       1 ATP         1.5414
      2 O1G         3.2387    6.2880    5.7046 O.co2     1 ATP        -0.8562
      3 O2G         1.2383    7.1779    7.1654 O.co2     1 ATP        -0.8562
      4 O3G         1.9587    8.3952    5.0386 O.3       1 ATP        -0.7907
      5 PB          0.2198    4.6910    4.9124 P.3       1 ATP         1.6574
      6 O1B         1.3376    3.7013    4.6700 O.co2     1 ATP        -0.8530
      7 O2B        -0.6615    4.5877    6.1373 O.co2     1 ATP        -0.8530
      8 O3B         0.8342    6.2004    4.8346 O.3       1 ATP        -0.8003
      9 PA         -0.3718    4.9776    2.0264 P.3       1 ATP         1.7415
     10 O1A         0.6640    6.0385    1.7915 O.2       1 ATP        -0.8661
     11 O2A        -1.8128    5.2955    1.3627 O.3       1 ATP        -0.8077
     12 O3A        -0.7290    4.7337    3.5851 O.3       1 ATP        -0.7685
     13 O5'         0.0171    3.5129    1.4593 O.3       1 ATP        -0.5590
     14 C5'        -0.8811    2.4285    1.6206 C.3       1 ATP         0.1960
     15 C4'        -0.1994    1.3333    2.4288 C.3       1 ATP         0.0976
     16 O4'        -1.1285    0.2356    2.5840 O.3       1 ATP        -0.3865
     17 C3'         1.0324    0.7610    1.7344 C.3       1 ATP         0.0901
     18 O3'         1.9175    0.2377    2.7247 O.3       1 ATP        -0.5889
     19 C2'         0.4468   -0.3802    0.9263 C.3       1 ATP         0.0574
     20 O2'         1.3993   -1.3703    0.5961 O.3       1 ATP        -0.5923
     21 C1'        -0.6159   -0.9100    1.8769 C.3       1 ATP         0.2452
     22 N9         -1.7127   -1.6108    1.2130 N.pl3     1 ATP        -0.1834
     23 C8         -2.8662   -1.0361    0.7388 C.ar      1 ATP         0.4338
     24 N7         -3.6774   -1.9166    0.1867 N.2       1 ATP        -0.6101
     25 C5         -3.0159   -3.1045    0.3122 C.ar      1 ATP         0.2154
     26 C6         -3.4377   -4.4169   -0.1199 C.ar      1 ATP         0.6130
     27 N6         -4.5720   -4.5691   -0.7080 N.2       1 ATP        -0.8165
     28 N1         -2.4600   -5.3463    0.2071 N.pl3     1 ATP        -0.8617
     29 C2         -1.2595   -5.0554    0.8515 C.ar      1 ATP         0.6151
     30 N3         -0.8555   -3.8803    1.2516 N.2       1 ATP        -0.5797
     31 C4         -1.7946   -2.9457    0.9448 C.ar      1 ATP         0.0328
     32 HOG3        1.1544    8.9566    5.0217 H         1 ATP         0.4197
     33 HOA2       -1.8712    5.4150    0.3908 H         1 ATP         0.4550
     34 H5'1       -1.7775    2.7843    2.1389 H         1 ATP         0.0431
     35 H5'2       -1.1658    2.0534    0.6322 H         1 ATP         0.0431
     36 H4'         0.0402    1.7079    3.4342 H         1 ATP         0.1325
     37 H3'         1.5907    1.4859    1.1353 H         1 ATP         0.0782
     38 HO3'        2.1521    0.9800    3.3017 H         1 ATP         0.4062
     39 H2'        -0.0017    0.0018    0.0005 H         1 ATP         0.0689
     40 HO2'        2.0953   -0.9375    0.0709 H         1 ATP         0.4089
     41 H1'        -0.1998   -1.6319    2.6178 H         1 ATP         0.1098
     42 H8         -3.0558    0.0252    0.8256 H         1 ATP         0.0929
     43 HN62       -4.7047   -5.5592   -0.9421 H         1 ATP         0.3678
     44 H2         -0.6372   -5.9505    1.0077 H         1 ATP         0.0383
     45 H45        -2.6338   -6.3155   -0.0469 H         1 ATP         0.4286
@<TRIPOS>BOND
     1    1    2 2
     2    1    3 1
     3    1    4 1
     4    1    8 1
     5    4   32 1
     6    5    6 2
     7    5    7 1
     8    5    8 1
     9    5   12 1
    10    9   10 2
    11    9   11 1
    12    9   12 1
    13    9   13 1
    14   11   33 1
    15   13   14 1
    16   14   15 1
    17   14   34 1
    18   14   35 1
    19   15   16 1
    20   15   17 1
    21   15   36 1
    22   16   21 1
    23   17   18 1
    24   17   19 1
    25   17   37 1
    26   18   38 1
    27   19   20 1
    28   19   21 1
    29   19   39 1
    30   20   40 1
    31   21   22 1
    32   21   41 1
    33   22   23 ar
    34   22   31 ar
    35   23   24 ar
    36   23   42 1
    37   24   25 ar
    38   25   26 ar
    39   25   31 ar
    40   26   27 2
    41   26   28 ar
    42   27   43 1
    43   28   29 ar
    44   28   45 1
    45   29   30 ar
    46   29   44 1
    47   30   31 ar
@<TRIPOS>SUBSTRUCTURE
     1 ATP         1 GROUP 0 A     ****
@<TRIPOS>MOLECULE
[[[3,4-dihydroxy-5-(6-imino-1~{H}-purin-9-yl)tetrahydrofuran-2-yl]methoxy-hydroxy-phosphoryl]oxy-oxido-phosphoryl] hydrogen phosphate
   45    47     1     0     0
SMALL
USER_CHARGES

@<TRIPOS>ATOM
      1 PG         -1.9635    3.1485    6.1835 P.3       1 ATP         1.5414
      2 O1G        -1.1786    1.8946    6.4986 O.co2     1 ATP        -0.8562
      3 O2G        -2.9442    3.1834    5.0326 O.co2     1 ATP        -0.8562
      4 O3G        -2.7363    3.6306    7.5388 O.3       1 ATP        -0.7907
      5 PB          0.2198    4.6910    4.9124 P.3       1 ATP         1.6574
      6 O1B         0.7807    6.0764    5.1444 O.co2     1 ATP        -0.8530
      7 O2B         1.1297    3.4863    4.8215 O.co2     1 ATP        -0.8530
      8 O3B        -0.9268    4.3982    6.0355 O.3       1 ATP        -0.8003
      9 PA         -0.3718    4.9776    2.0264 P.3       1 ATP         1.7415
     10 O1A         0.6640    6.0385    1.7915 O.2       1 ATP        -0.8661
     11 O2A        -1.8128    5.2955    1.3627 O.3       1 ATP        -0.8077
     12 O3A        -0.7290    4.7337    3.5851 O.3       1 ATP        -0.7685
     13 O5'         0.0171    3.5129    1.4593 O.3       1 ATP        -0.5590
     14 C5'        -0.8811    2.4285    1.6206 C.3       1 ATP         0.1960
     15 C4'        -0.1994    1.3333    2.4288 C.3       1 ATP         0.0976
     16 O4'        -1.1285    0.2356    2.5840 O.3       1 ATP        -0.3865
     17 C3'         1.0324    0.7610    1.7344 C.3       1 ATP         0.0901
     18 O3'         1.9175    0.2377    2.7247 O.3       1 ATP        -0.5889
     19 C2'         0.4468   -0.3802    0.9263 C.3       1 ATP         0.0574
     20 O2'         1.3993   -1.3703    0.5961 O.3       1 ATP        -0.5923
     21 C1'        -0.6159   -0.9100    1.8769 C.3       1 ATP         0.2452
     22 N9         -1.7127   -1.6108    1.2130 N.pl3     1 ATP        -0.1834
     23 C8         -1.7690   -2.9583    0.9549 C.ar      1 ATP         0.4338
     24 N7         -2.8827   -3.3076    0.3418 N.2       1 ATP        -0.6101
     25 C5         -3.5683   -2.1351    0.2017 C.ar      1 ATP         0.2154
     26 C6         -4.8617   -1.9185   -0.4044 C.ar      1 ATP         0.6130
     27 N6         -5.5166   -2.9094   -0.8993 N.2       1 ATP        -0.8165
     28 N1         -5.1837   -0.5701   -0.3344 N.pl3     1 ATP        -0.8617
     29 C2         -4.3821    0.4180    0.2330 C.ar      1 ATP         0.6151
     30 N3         -3.2117    0.2488    0.7860 N.2       1 ATP        -0.5797
     31 C4         -2.8672   -1.0657    0.7327 C.ar      1 ATP         0.0328
     32 HOG3       -3.2926    4.4374    7.4968 H         1 ATP         0.4197
     33 HOA2       -1.8712    5.4150    0.3908 H         1 ATP         0.4550
     34 H5'1       -1.7775    2.7843    2.1389 H         1 ATP         0.0431
     35 H5'2       -1.1658    2.0534    0.6322 H         1 ATP         0.0431
     36 H4'         0.0402    1.7079    3.4342 H         1 ATP         0.1325
     37 H3'         1.5907    1.4859    1.1353 H         1 ATP         0.0782
     38 HO3'        2.6839   -0.1150    2.2479 H         1 ATP         0.4062
     39 H2'        -0.0017    0.0018    0.0005 H         1 ATP         0.0689
     40 HO2'        2.0953   -0.9375    0.0709 H         1 ATP         0.4089
     41 H1'        -0.1998   -1.6319    2.6178 H         1 ATP         0.1098
     42 H8         -0.9697   -3.6300    1.2371 H         1 ATP         0.0929
     43 HN62       -6.4060   -2.5723   -1.2840 H         1 ATP         0.3678
     44 H2         -4.8409    1.4176    0.1757 H         1 ATP         0.0383
     45 H45        -6.0768   -0.2826   -0.7263 H         1 ATP         0.4286
@<TRIPOS>BOND
     1    1    2 2
     2    1    3 1
     3    1    4 1
     4    1    8 1
     5    4   32 1
     6    5    6 2
     7    5    7 1
     8    5    8 1
     9    5   12 1
    10    9   10 2
    11    9   11 1
    12    9   12 1
    13    9   13 1
    14   11   33 1
    15   13   14 1
    16   14   15 1
    17   14   34 1
    18   14   35 1
    19   15   16 1
    20   15   17 1
    21   15   36 1
    22   16   21 1
    23   17   18 1
    24   17   19 1
    25   17   37 1
    26   18   38 1
    27   19   20 1
    28   19   21 1
    29   19   39 1
    30   20   40 1
    31   21   22 1
    32   21   41 1
    33   22   23 ar
    34   22   31 ar
    35   23   24 ar
    36   23   42 1
    37   24   25 ar
    38   25   26 ar
    39   25   31 ar
    40   26   27 2
    41   26   28 ar
    42   27   43 1
    43   28   29 ar
    44   28   45 1
    45   29   30 ar
    46   29   44 1
    47   30   31 ar
@<TRIPOS>SUBSTRUCTURE
     1 ATP         1 GROUP 0 A     ****
@<TRIPOS>MOLECULE
[[[3,4-dihydroxy-5-(6-imino-1~{H}-purin-9-yl)tetrahydrofuran-2-yl]methoxy-hydroxy-phosphoryl]oxy-oxido-phosphoryl] hydrogen phosphate
   45    47     1     0     0
SMALL
USER_CHARGES

@<TRIPOS>ATOM
      1 PG         -3.1501    5.6734    6.3469 P.3       1 ATP         1.5414
      2 O1G        -2.6164    6.9735    6.9058 O.co2     1 ATP        -0.8562
      3 O2G        -2.9380    4.3671    7.0791 O.co2     1 ATP        -0.8562
      4 O3G        -4.7467    5.8513    6.0546 O.3       1 ATP        -0.7907
      5 PB         -1.1333    5.2840    4.2155 P.3       1 ATP         1.6574
      6 O1B        -0.3200    6.5326    4.4751 O.co2     1 ATP        -0.8530
      7 O2B        -0.6364    3.9243    4.6538 O.co2     1 ATP        -0.8530
      8 O3B        -2.6366    5.5087    4.8081 O.3       1 ATP        -0.8003
      9 PA         -0.5513    5.0219    1.3252 P.3       1 ATP         1.7415
     10 O1A         0.5022    6.0785    1.1591 O.2       1 ATP        -0.8661
     11 O2A        -1.6139    4.9440    0.1075 O.3       1 ATP        -0.8077
     12 O3A        -1.4932    5.2238    2.6247 O.3       1 ATP        -0.7685
     13 O5'         0.0171    3.5129    1.4593 O.3       1 ATP        -0.5590
     14 C5'        -0.8811    2.4285    1.6206 C.3       1 ATP         0.1960
     15 C4'        -0.1994    1.3333    2.4288 C.3       1 ATP         0.0976
     16 O4'        -1.1285    0.2356    2.5840 O.3       1 ATP        -0.3865
     17 C3'         1.0324    0.7610    1.7344 C.3       1 ATP         0.0901
     18 O3'         1.9175    0.2377    2.7247 O.3       1 ATP        -0.5889
     19 C2'         0.4468   -0.3802    0.9263 C.3       1 ATP         0.0574
     20 O2'         1.3993   -1.3703    0.5961 O.3       1 ATP        -0.5923
     21 C1'        -0.6159   -0.9100    1.8769 C.3       1 ATP         0.2452
     22 N9         -1.7127   -1.6108    1.2130 N.pl3     1 ATP        -0.1834
     23 C8         -1.7690   -2.9583    0.9549 C.ar      1 ATP         0.4338
     24 N7         -2.8827   -3.3076    0.3418 N.2       1 ATP        -0.6101
     25 C5         -3.5683   -2.1351    0.2017 C.ar      1 ATP         0.2154
     26 C6         -4.8617   -1.9185   -0.4044 C.ar      1 ATP         0.6130
     27 N6         -5.5166   -2.9094   -0.8993 N.2       1 ATP        -0.8165
     28 N1         -5.1837   -0.5701   -0.3344 N.pl3     1 ATP        -0.8617
     29 C2         -4.3821    0.4180    0.2330 C.ar      1 ATP         0.6151
     30 N3         -3.2117    0.2488    0.7860 N.2       1 ATP        -0.5797
     31 C4         -2.8672   -1.0657    0.7327 C.ar      1 ATP         0.0328
     32 HOG3       -5.2416    5.0884    5.6865 H         1 ATP         0.4197
     33 HOA2       -1.2854    4.7531   -0.7969 H         1 ATP         0.4550
     34 H5'1       -1.7775    2.7843    2.1389 H         1 ATP         0.0431
     35 H5'2       -1.1658    2.0534    0.6322 H         1 ATP         0.0431
     36 H4'         0.0402    1.7079    3.4342 H         1 ATP         0.1325
     37 H3'         1.5907    1.4859    1.1353 H         1 ATP         0.0782
     38 HO3'        2.6839   -0.1150    2.2479 H         1 ATP         0.4062
     39 H2'        -0.0017    0.0018    0.0005 H         1 ATP         0.0689
     40 HO2'        0.9369   -2.0558    0.0825 H         1 ATP         0.4089
     41 H1'        -0.1998   -1.6319    2.6178 H         1 ATP         0.1098
     42 H8         -0.9697   -3.6300    1.2371 H         1 ATP         0.0929
     43 HN62       -6.4060   -2.5723   -1.2840 H         1 ATP         0.3678
     44 H2         -4.8409    1.4176    0.1757 H         1 ATP         0.0383
     45 H45        -6.0768   -0.2826   -0.7263 H         1 ATP         0.4286
@<TRIPOS>BOND
     1    1    2 2
     2    1    3 1
     3    1    4 1
     4    1    8 1
     5    4   32 1
     6    5    6 2
     7    5    7 1
     8    5    8 1
     9    5   12 1
    10    9   10 2
    11    9   11 1
    12    9   12 1
    13    9   13 1
    14   11   33 1
    15   13   14 1
    16   14   15 1
    17   14   34 1
    18   14   35 1
    19   15   16 1
    20   15   17 1
    21   15   36 1
    22   16   21 1
    23   17   18 1
    24   17   19 1
    25   17   37 1
    26   18   38 1
    27   19   20 1
    28   19   21 1
    29   19   39 1
    30   20   40 1
    31   21   22 1
    32   21   41 1
    33   22   23 ar
    34   22   31 ar
    35   23   24 ar
    36   23   42 1
    37   24   25 ar
    38   25   26 ar
    39   25   31 ar
    40   26   27 2
    41   26   28 ar
    42   27   43 1
    43   28   29 ar
    44   28   45 1
    45   29   30 ar
    46   29   44 1
    47   30   31 ar
@<TRIPOS>SUBSTRUCTURE
     1 ATP         1 GROUP 0 A     ****
@<TRIPOS>MOLECULE
[[[3,4-dihydroxy-5-(6-imino-1~{H}-purin-9-yl)tetrahydrofuran-2-yl]methoxy-hydroxy-phosphoryl]oxy-oxido-phosphoryl] hydrogen phosphate
   45    47     1     0     0
SMALL
USER_CHARGES

@<TRIPOS>ATOM
      1 PG          6.7076    6.2284   -3.7286 P.3       1 ATP         1.5414
      2 O1G         5.2863    6.7206   -3.8873 O.co2     1 ATP        -0.8562
      3 O2G         7.5275    5.8188   -4.9317 O.co2     1 ATP        -0.8562
      4 O3G         7.5500    7.3409   -2.8808 O.3       1 ATP        -0.7907
      5 PB          6.0922    3.5192   -2.7069 P.3       1 ATP         1.6574
      6 O1B         4.5842    3.6352   -2.7198 O.co2     1 ATP        -0.8530
      7 O2B         6.8231    2.7313   -3.7712 O.co2     1 ATP        -0.8530
      8 O3B         6.7296    5.0193   -2.6349 O.3       1 ATP        -0.8003
      9 PA          6.2291    3.5148    0.2499 P.3       1 ATP         1.7415
     10 O1A         6.6826    4.9226    0.5070 O.2       1 ATP        -0.8661
     11 O2A         6.9222    2.4072    1.2042 O.3       1 ATP        -0.8077
     12 O3A         6.5556    2.9751   -1.2397 O.3       1 ATP        -0.7685
     13 O5'         4.6408    3.2692    0.4376 O.3       1 ATP        -0.5590
     14 C5'         4.0922    1.9801    0.2227 C.3       1 ATP         0.1960
     15 C4'         2.5944    2.0310    0.4653 C.3       1 ATP         0.0976
     16 O4'         1.9327    2.5740   -0.6889 O.3       1 ATP        -0.3865
     17 C3'         1.9685    0.6634    0.6767 C.3       1 ATP         0.0901
     18 O3'         2.1425    0.1975    1.9977 O.3       1 ATP        -0.5889
     19 C2'         0.5176    0.9128    0.3099 C.3       1 ATP         0.0574
     20 O2'        -0.2103    1.4454    1.4152 O.3       1 ATP        -0.5923
     21 C1'         0.6219    1.9765   -0.7844 C.3       1 ATP         0.2452
     22 N9          0.4237    1.4496   -2.1357 N.pl3     1 ATP        -0.1834
     23 C8          1.4069    0.9710   -2.9662 C.ar      1 ATP         0.4338
     24 N7          0.9316    0.5623   -4.1260 N.2       1 ATP        -0.6101
     25 C5         -0.4120    0.7884   -4.0344 C.ar      1 ATP         0.2154
     26 C6         -1.4353    0.5283   -5.0204 C.ar      1 ATP         0.6130
     27 N6         -1.1199    0.0176   -6.1586 N.2       1 ATP        -0.8165
     28 N1         -2.6704    0.9095   -4.5147 N.pl3     1 ATP        -0.8617
     29 C2         -2.8863    1.4571   -3.2520 C.ar      1 ATP         0.6151
     30 N3         -1.9805    1.7017   -2.3442 N.2       1 ATP        -0.5797
     31 C4         -0.7561    1.3381   -2.8112 C.ar      1 ATP         0.0328
     32 HOG3        8.4968    7.1659   -2.6930 H         1 ATP         0.4197
     33 HOA2        6.8036    2.4773    2.1755 H         1 ATP         0.4550
     34 H5'1        4.3024    1.6722   -0.8067 H         1 ATP         0.0431
     35 H5'2        4.5673    1.2731    0.9105 H         1 ATP         0.0431
     36 H4'         2.3752    2.7029    1.3156 H         1 ATP         0.1325
     37 H3'         2.4336   -0.1217   -0.0016 H         1 ATP         0.0782
     38 HO3'        1.7160   -0.6716    2.0397 H         1 ATP         0.4062
     39 H2'         0.0316    0.0155   -0.0339 H         1 ATP         0.0689
     40 HO2'       -0.1608    0.7921    2.1351 H         1 ATP         0.4089
     41 H1'        -0.1474    2.7798   -0.6651 H         1 ATP         0.1098
     42 H8          2.4466    0.9468   -2.6694 H         1 ATP         0.0929
     43 HN62       -1.9661   -0.0965   -6.7275 H         1 ATP         0.3678
     44 H2         -3.9481    1.6825   -3.0660 H         1 ATP         0.0383
     45 H45        -3.4814    0.7753   -5.1133 H         1 ATP         0.4286
@<TRIPOS>BOND
     1    1    2 2
     2    1    3 1
     3    1    4 1
     4    1    8 1
     5    4   32 1
     6    5    6 2
     7    5    7 1
     8    5    8 1
     9    5   12 1
    10    9   10 2
    11    9   11 1
    12    9   12 1
    13    9   13 1
    14   11   33 1
    15   13   14 1
    16   14   15 1
    17   14   34 1
    18   14   35 1
    19   15   16 1
    20   15   17 1
    21   15   36 1
    22   16   21 1
    23   17   18 1
    24   17   19 1
    25   17   37 1
    26   18   38 1
    27   19   20 1
    28   19   21 1
    29   19   39 1
    30   20   40 1
    31   21   22 1
    32   21   41 1
    33   22   23 ar
    34   22   31 ar
    35   23   24 ar
    36   23   42 1
    37   24   25 ar
    38   25   26 ar
    39   25   31 ar
    40   26   27 2
    41   26   28 ar
    42   27   43 1
    43   28   29 ar
    44   28   45 1
    45   29   30 ar
    46   29   44 1
    47   30   31 ar
@<TRIPOS>SUBSTRUCTURE
     1 ATP         1 GROUP 0 A     ****
@<TRIPOS>MOLECULE
[[[3,4-dihydroxy-5-(6-imino-1~{H}-purin-9-yl)tetrahydrofuran-2-yl]methoxy-hydroxy-phosphoryl]oxy-oxido-phosphoryl] hydrogen phosphate
   45    47     1     0     0
SMALL
USER_CHARGES

@<TRIPOS>ATOM
      1 PG         -5.3415    7.4434    0.7303 P.3       1 ATP         1.5414
      2 O1G        -6.4040    6.4620    0.2881 O.co2     1 ATP        -0.8562
      3 O2G        -4.9421    8.6062   -0.1506 O.co2     1 ATP        -0.8562
      4 O3G        -5.7508    8.0229    2.2009 O.3       1 ATP        -0.7907
      5 PB         -2.9754    5.7307    0.2508 P.3       1 ATP         1.6574
      6 O1B        -3.7088    4.5084   -0.2552 O.co2     1 ATP        -0.8530
      7 O2B        -2.2479    6.6536   -0.7014 O.co2     1 ATP        -0.8530
      8 O3B        -4.0025    6.6167    1.1572 O.3       1 ATP        -0.8003
      9 PA         -2.1760    4.4068    2.7745 P.3       1 ATP         1.7415
     10 O1A        -3.4497    4.7369    3.4974 O.2       1 ATP        -0.8661
     11 O2A        -0.8322    4.6898    3.6302 O.3       1 ATP        -0.8077
     12 O3A        -1.9401    5.2633    1.4227 O.3       1 ATP        -0.7685
     13 O5'        -2.0397    2.8622    2.3122 O.3       1 ATP        -0.5590
     14 C5'        -0.8811    2.4285    1.6206 C.3       1 ATP         0.1960
     15 C4'        -0.1994    1.3333    2.4288 C.3       1 ATP         0.0976
     16 O4'        -1.1285    0.2356    2.5840 O.3       1 ATP        -0.3865
     17 C3'         1.0324    0.7610    1.7344 C.3       1 ATP         0.0901
     18 O3'         1.9175    0.2377    2.7247 O.3       1 ATP        -0.5889
     19 C2'         0.4468   -0.3802    0.9263 C.3       1 ATP         0.0574
     20 O2'         1.3993   -1.3703    0.5961 O.3       1 ATP        -0.5923
     21 C1'        -0.6159   -0.9100    1.8769 C.3       1 ATP         0.2452
     22 N9         -1.7127   -1.6108    1.2130 N.pl3     1 ATP        -0.1834
     23 C8         -1.7690   -2.9583    0.9549 C.ar      1 ATP         0.4338
     24 N7         -2.8827   -3.3076    0.3418 N.2       1 ATP        -0.6101
     25 C5         -3.5683   -2.1351    0.2017 C.ar      1 ATP         0.2154
     26 C6         -4.8617   -1.9185   -0.4044 C.ar      1 ATP         0.6130
     27 N6         -5.5166   -2.9094   -0.8993 N.2       1 ATP        -0.8165
     28 N1         -5.1837   -0.5701   -0.3344 N.pl3     1 ATP        -0.8617
     29 C2         -4.3821    0.4180    0.2330 C.ar      1 ATP         0.6151
     30 N3         -3.2117    0.2488    0.7860 N.2       1 ATP        -0.5797
     31 C4         -2.8672   -1.0657    0.7327 C.ar      1 ATP         0.0328
     32 HOG3       -5.1561    8.6765    2.6271 H         1 ATP         0.4197
     33 HOA2       -0.7033    4.2178    4.4804 H         1 ATP         0.4550
     34 H5'1       -1.1761    2.0499    0.6365 H         1 ATP         0.0431
     35 H5'2       -0.2073    3.2811    1.4874 H         1 ATP         0.0431
     36 H4'         0.0402    1.7079    3.4342 H         1 ATP         0.1325
     37 H3'         1.5907    1.4859    1.1353 H         1 ATP         0.0782
     38 HO3'        2.6839   -0.1150    2.2479 H         1 ATP         0.4062
     39 H2'        -0.0017    0.0018    0.0005 H         1 ATP         0.0689
     40 HO2'        0.9369   -2.0558    0.0825 H         1 ATP         0.4089
     41 H1'        -0.1998   -1.6319    2.6178 H         1 ATP         0.1098
     42 H8         -0.9697   -3.6300    1.2371 H         1 ATP         0.0929
     43 HN62       -6.4060   -2.5723   -1.2840 H         1 ATP         0.3678
     44 H2         -4.8409    1.4176    0.1757 H         1 ATP         0.0383
     45 H45        -6.0768   -0.2826   -0.7263 H         1 ATP         0.4286
@<TRIPOS>BOND
     1    1    2 2
     2    1    3 1
     3    1    4 1
     4    1    8 1
     5    4   32 1
     6    5    6 2
     7    5    7 1
     8    5    8 1
     9    5   12 1
    10    9   10 2
    11    9   11 1
    12    9   12 1
    13    9   13 1
    14   11   33 1
    15   13   14 1
    16   14   15 1
    17   14   34 1
    18   14   35 1
    19   15   16 1
    20   15   17 1
    21   15   36 1
    22   16   21 1
    23   17   18 1
    24   17   19 1
    25   17   37 1
    26   18   38 1
    27   19   20 1
    28   19   21 1
    29   19   39 1
    30   20   40 1
    31   21   22 1
    32   21   41 1
    33   22   23 ar
    34   22   31 ar
    35   23   24 ar
    36   23   42 1
    37   24   25 ar
    38   25   26 ar
    39   25   31 ar
    40   26   27 2
    41   26   28 ar
    42   27   43 1
    43   28   29 ar
    44   28   45 1
    45   29   30 ar
    46   29   44 1
    47   30   31 ar
@<TRIPOS>SUBSTRUCTURE
     1 ATP         1 GROUP 0 A     ****
@<TRIPOS>MOLECULE
[[[3,4-dihydroxy-5-(6-imino-1~{H}-purin-9-yl)tetrahydrofuran-2-yl]methoxy-hydroxy-phosphoryl]oxy-oxido-phosphoryl] hydrogen phosphate
   45    47     1     0     0
SMALL
USER_CHARGES

@<TRIPOS>ATOM
      1 PG         -2.0719    7.0771   -2.2508 P.3       1 ATP         1.5414
      2 O1G        -3.2755    7.9929   -2.2401 O.co2     1 ATP        -0.8562
      3 O2G        -1.9387    5.9802   -3.2835 O.co2     1 ATP        -0.8562
      4 O3G        -0.7222    7.9951   -2.2916 O.3       1 ATP        -0.7907
      5 PB         -2.8249    5.3825    0.0564 P.3       1 ATP         1.6574
      6 O1B        -4.1326    6.0648    0.3912 O.co2     1 ATP        -0.8530
      7 O2B        -2.8011    4.0487   -0.6565 O.co2     1 ATP        -0.8530
      8 O3B        -1.8844    6.4326   -0.7649 O.3       1 ATP        -0.8003
      9 PA         -2.1760    4.4068    2.7745 P.3       1 ATP         1.7415
     10 O1A        -3.4497    4.7369    3.4974 O.2       1 ATP        -0.8661
     11 O2A        -0.8322    4.6898    3.6302 O.3       1 ATP        -0.8077
     12 O3A        -1.9401    5.2633    1.4227 O.3       1 ATP        -0.7685
     13 O5'        -2.0397    2.8622    2.3122 O.3       1 ATP        -0.5590
     14 C5'        -0.8811    2.4285    1.6206 C.3       1 ATP         0.1960
     15 C4'        -0.1994    1.3333    2.4288 C.3       1 ATP         0.0976
     16 O4'        -1.1285    0.2356    2.5840 O.3       1 ATP        -0.3865
     17 C3'         1.0324    0.7610    1.7344 C.3       1 ATP         0.0901
     18 O3'         1.9175    0.2377    2.7247 O.3       1 ATP        -0.5889
     19 C2'         0.4468   -0.3802    0.9263 C.3       1 ATP         0.0574
     20 O2'         1.3993   -1.3703    0.5961 O.3       1 ATP        -0.5923
     21 C1'        -0.6159   -0.9100    1.8769 C.3       1 ATP         0.2452
     22 N9         -1.7127   -1.6108    1.2130 N.pl3     1 ATP        -0.1834
     23 C8         -2.0868   -2.9137    1.4327 C.ar      1 ATP         0.4338
     24 N7         -3.1125   -3.2756    0.6878 N.2       1 ATP        -0.6101
     25 C5         -3.4079   -2.1580   -0.0391 C.ar      1 ATP         0.2154
     26 C6         -4.4483   -1.9775   -1.0249 C.ar      1 ATP         0.6130
     27 N6         -5.2418   -2.9492   -1.3113 N.2       1 ATP        -0.8165
     28 N1         -4.3937   -0.6823   -1.5211 N.pl3     1 ATP        -0.8617
     29 C2         -3.4770    0.2901   -1.1271 C.ar      1 ATP         0.6151
     30 N3         -2.5289    0.1525   -0.2402 N.2       1 ATP        -0.5797
     31 C4         -2.5564   -1.1096    0.2655 C.ar      1 ATP         0.0328
     32 HOG3        0.1488    7.5441   -2.3025 H         1 ATP         0.4197
     33 HOA2       -0.7033    4.2178    4.4804 H         1 ATP         0.4550
     34 H5'1       -1.1761    2.0499    0.6365 H         1 ATP         0.0431
     35 H5'2       -0.2073    3.2811    1.4874 H         1 ATP         0.0431
     36 H4'         0.0402    1.7079    3.4342 H         1 ATP         0.1325
     37 H3'         1.5907    1.4859    1.1353 H         1 ATP         0.0782
     38 HO3'        2.6839   -0.1150    2.2479 H         1 ATP         0.4062
     39 H2'        -0.0017    0.0018    0.0005 H         1 ATP         0.0689
     40 HO2'        0.9369   -2.0558    0.0825 H         1 ATP         0.4089
     41 H1'        -0.1998   -1.6319    2.6178 H         1 ATP         0.1098
     42 H8         -1.5740   -3.5449    2.1457 H         1 ATP         0.0929
     43 HN62       -5.9117   -2.6433   -2.0256 H         1 ATP         0.3678
     44 H2         -3.6225    1.2454   -1.6553 H         1 ATP         0.0383
     45 H45        -5.0794   -0.4231   -2.2258 H         1 ATP         0.4286
@<TRIPOS>BOND
     1    1    2 2
     2    1    3 1
     3    1    4 1
     4    1    8 1
     5    4   32 1
     6    5    6 2
     7    5    7 1
     8    5    8 1
     9    5   12 1
    10    9   10 2
    11    9   11 1
    12    9   12 1
    13    9   13 1
    14   11   33 1
    15   13   14 1
    16   14   15 1
    17   14   34 1
    18   14   35 1
    19   15   16 1
    20   15   17 1
    21   15   36 1
    22   16   21 1
    23   17   18 1
    24   17   19 1
    25   17   37 1
    26   18   38 1
    27   19   20 1
    28   19   21 1
    29   19   39 1
    30   20   40 1
    31   21   22 1
    32   21   41 1
    33   22   23 ar
    34   22   31 ar
    35   23   24 ar
    36   23   42 1
    37   24   25 ar
    38   25   26 ar
    39   25   31 ar
    40   26   27 2
    41   26   28 ar
    42   27   43 1
    43   28   29 ar
    44   28   45 1
    45   29   30 ar
    46   29   44 1
    47   30   31 ar
@<TRIPOS>SUBSTRUCTURE
     1 ATP         1 GROUP 0 A     ****
@<TRIPOS>MOLECULE
[[[3,4-dihydroxy-5-(6-imino-1~{H}-purin-9-yl)tetrahydrofuran-2-yl]methoxy-hydroxy-phosphoryl]oxy-oxido-phosphoryl] hydrogen phosphate
   45    47     1     0     0
SMALL
USER_CHARGES

@<TRIPOS>ATOM
      1 PG         -5.2348    6.8175    0.4710 P.3       1 ATP         1.5414
      2 O1G        -5.0915    8.1764   -0.1774 O.co2     1 ATP        -0.8562
      3 O2G        -5.6424    6.6873    1.9217 O.co2     1 ATP        -0.8562
      4 O3G        -6.2487    5.9146   -0.4361 O.3       1 ATP        -0.7907
      5 PB         -2.3556    6.2115    0.7953 P.3       1 ATP         1.6574
      6 O1B        -1.8106    7.4853    0.1884 O.co2     1 ATP        -0.8530
      7 O2B        -2.3611    6.0013    2.2931 O.co2     1 ATP        -0.8530
      8 O3B        -3.8651    5.9675    0.2263 O.3       1 ATP        -0.8003
      9 PA         -0.0705    4.4476    0.1413 P.3       1 ATP         1.7415
     10 O1A         0.9358    5.5605    0.0915 O.2       1 ATP        -0.8661
     11 O2A         0.0245    3.4081   -1.0950 O.3       1 ATP        -0.8077
     12 O3A        -1.6095    4.9430    0.0898 O.3       1 ATP        -0.7685
     13 O5'         0.0171    3.5129    1.4593 O.3       1 ATP        -0.5590
     14 C5'        -0.8811    2.4285    1.6206 C.3       1 ATP         0.1960
     15 C4'        -0.1994    1.3333    2.4288 C.3       1 ATP         0.0976
     16 O4'        -1.1285    0.2356    2.5840 O.3       1 ATP        -0.3865
     17 C3'         1.0324    0.7610    1.7344 C.3       1 ATP         0.0901
     18 O3'         1.9175    0.2377    2.7247 O.3       1 ATP        -0.5889
     19 C2'         0.4468   -0.3802    0.9263 C.3       1 ATP         0.0574
     20 O2'         1.3993   -1.3703    0.5961 O.3       1 ATP        -0.5923
     21 C1'        -0.6159   -0.9100    1.8769 C.3       1 ATP         0.2452
     22 N9         -1.7127   -1.6108    1.2130 N.pl3     1 ATP        -0.1834
     23 C8         -2.5485   -1.0808    0.2609 C.ar      1 ATP         0.4338
     24 N7         -3.4476   -1.9486   -0.1593 N.2       1 ATP        -0.6101
     25 C5         -3.1762   -3.0816    0.5530 C.ar      1 ATP         0.2154
     26 C6         -3.8510   -4.3579    0.5006 C.ar      1 ATP         0.6130
     27 N6         -4.8468   -4.5293   -0.2961 N.2       1 ATP        -0.8165
     28 N1         -3.2499   -5.2342    1.3937 N.pl3     1 ATP        -0.8617
     29 C2         -2.1646   -4.9275    2.2116 C.ar      1 ATP         0.6151
     30 N3         -1.5382   -3.7840    2.2778 N.2       1 ATP        -0.5797
     31 C4         -2.1054   -2.9018    1.4120 C.ar      1 ATP         0.0328
     32 HOG3       -6.4453    4.9987   -0.1448 H         1 ATP         0.4197
     33 HOA2        0.8591    2.9119   -1.2342 H         1 ATP         0.4550
     34 H5'1       -1.7775    2.7843    2.1389 H         1 ATP         0.0431
     35 H5'2       -1.1658    2.0534    0.6322 H         1 ATP         0.0431
     36 H4'         0.0402    1.7079    3.4342 H         1 ATP         0.1325
     37 H3'         1.5907    1.4859    1.1353 H         1 ATP         0.0782
     38 HO3'        2.1521    0.9800    3.3017 H         1 ATP         0.4062
     39 H2'        -0.0017    0.0018    0.0005 H         1 ATP         0.0689
     40 HO2'        2.0953   -0.9375    0.0709 H         1 ATP         0.4089
     41 H1'        -0.1998   -1.6319    2.6178 H         1 ATP         0.1098
     42 H8         -2.4515   -0.0599   -0.0829 H         1 ATP         0.0929
     43 HN62       -5.1990   -5.4882   -0.2005 H         1 ATP         0.3678
     44 H2         -1.8555   -5.7783    2.8388 H         1 ATP         0.0383
     45 H45        -3.6312   -6.1750    1.4526 H         1 ATP         0.4286
@<TRIPOS>BOND
     1    1    2 2
     2    1    3 1
     3    1    4 1
     4    1    8 1
     5    4   32 1
     6    5    6 2
     7    5    7 1
     8    5    8 1
     9    5   12 1
    10    9   10 2
    11    9   11 1
    12    9   12 1
    13    9   13 1
    14   11   33 1
    15   13   14 1
    16   14   15 1
    17   14   34 1
    18   14   35 1
    19   15   16 1
    20   15   17 1
    21   15   36 1
    22   16   21 1
    23   17   18 1
    24   17   19 1
    25   17   37 1
    26   18   38 1
    27   19   20 1
    28   19   21 1
    29   19   39 1
    30   20   40 1
    31   21   22 1
    32   21   41 1
    33   22   23 ar
    34   22   31 ar
    35   23   24 ar
    36   23   42 1
    37   24   25 ar
    38   25   26 ar
    39   25   31 ar
    40   26   27 2
    41   26   28 ar
    42   27   43 1
    43   28   29 ar
    44   28   45 1
    45   29   30 ar
    46   29   44 1
    47   30   31 ar
@<TRIPOS>SUBSTRUCTURE
     1 ATP         1 GROUP 0 A     ****
@<TRIPOS>MOLECULE
[[[3,4-dihydroxy-5-(6-imino-1~{H}-purin-9-yl)tetrahydrofuran-2-yl]methoxy-hydroxy-phosphoryl]oxy-oxido-phosphoryl] hydrogen phosphate
   45    47     1     0     0
SMALL
USER_CHARGES

@<TRIPOS>ATOM
      1 PG         -3.8132    5.7135   -3.1374 P.3       1 ATP         1.5414
      2 O1G        -2.6563    6.3987   -3.8299 O.co2     1 ATP        -0.8562
      3 O2G        -5.1492    6.4060   -2.9860 O.co2     1 ATP        -0.8562
      4 O3G        -4.0575    4.2637   -3.8477 O.3       1 ATP        -0.7907
      5 PB         -2.8675    6.0273   -0.3501 P.3       1 ATP         1.6574
      6 O1B        -1.5761    6.7537   -0.6545 O.co2     1 ATP        -0.8530
      7 O2B        -4.0708    6.7684    0.1891 O.co2     1 ATP        -0.8530
      8 O3B        -3.3186    5.1889   -1.6749 O.3       1 ATP        -0.8003
      9 PA         -2.0149    4.7373    2.1738 P.3       1 ATP         1.7415
     10 O1A        -2.9341    5.4101    3.1516 O.2       1 ATP        -0.8661
     11 O2A        -0.5416    5.3996    2.0809 O.3       1 ATP        -0.8077
     12 O3A        -2.5340    4.7752    0.6422 O.3       1 ATP        -0.7685
     13 O5'        -1.7334    3.1724    2.4743 O.3       1 ATP        -0.5590
     14 C5'        -0.8811    2.4285    1.6206 C.3       1 ATP         0.1960
     15 C4'        -0.1994    1.3333    2.4288 C.3       1 ATP         0.0976
     16 O4'        -1.1285    0.2356    2.5840 O.3       1 ATP        -0.3865
     17 C3'         1.0324    0.7610    1.7344 C.3       1 ATP         0.0901
     18 O3'         1.9175    0.2377    2.7247 O.3       1 ATP        -0.5889
     19 C2'         0.4468   -0.3802    0.9263 C.3       1 ATP         0.0574
     20 O2'         1.3993   -1.3703    0.5961 O.3       1 ATP        -0.5923
     21 C1'        -0.6159   -0.9100    1.8769 C.3       1 ATP         0.2452
     22 N9         -1.7127   -1.6108    1.2130 N.pl3     1 ATP        -0.1834
     23 C8         -2.5485   -1.0808    0.2609 C.ar      1 ATP         0.4338
     24 N7         -3.4476   -1.9486   -0.1593 N.2       1 ATP        -0.6101
     25 C5         -3.1762   -3.0816    0.5530 C.ar      1 ATP         0.2154
     26 C6         -3.8510   -4.3579    0.5006 C.ar      1 ATP         0.6130
     27 N6         -4.8468   -4.5293   -0.2961 N.2       1 ATP        -0.8165
     28 N1         -3.2499   -5.2342    1.3937 N.pl3     1 ATP        -0.8617
     29 C2         -2.1646   -4.9275    2.2116 C.ar      1 ATP         0.6151
     30 N3         -1.5382   -3.7840    2.2778 N.2       1 ATP        -0.5797
     31 C4         -2.1054   -2.9018    1.4120 C.ar      1 ATP         0.0328
     32 HOG3       -4.7802    3.6936   -3.5085 H         1 ATP         0.4197
     33 HOA2        0.0168    5.4289    2.8868 H         1 ATP         0.4550
     34 H5'1       -1.4795    1.9922    0.8142 H         1 ATP         0.0431
     35 H5'2       -0.1362    3.1035    1.1868 H         1 ATP         0.0431
     36 H4'         0.0402    1.7079    3.4342 H         1 ATP         0.1325
     37 H3'         1.5907    1.4859    1.1353 H         1 ATP         0.0782
     38 HO3'        2.1521    0.9800    3.3017 H         1 ATP         0.4062
     39 H2'        -0.0017    0.0018    0.0005 H         1 ATP         0.0689
     40 HO2'        2.0953   -0.9375    0.0709 H         1 ATP         0.4089
     41 H1'        -0.1998   -1.6319    2.6178 H         1 ATP         0.1098
     42 H8         -2.4515   -0.0599   -0.0829 H         1 ATP         0.0929
     43 HN62       -5.1990   -5.4882   -0.2005 H         1 ATP         0.3678
     44 H2         -1.8555   -5.7783    2.8388 H         1 ATP         0.0383
     45 H45        -3.6312   -6.1750    1.4526 H         1 ATP         0.4286
@<TRIPOS>BOND
     1    1    2 2
     2    1    3 1
     3    1    4 1
     4    1    8 1
     5    4   32 1
     6    5    6 2
     7    5    7 1
     8    5    8 1
     9    5   12 1
    10    9   10 2
    11    9   11 1
    12    9   12 1
    13    9   13 1
    14   11   33 1
    15   13   14 1
    16   14   15 1
    17   14   34 1
    18   14   35 1
    19   15   16 1
    20   15   17 1
    21   15   36 1
    22   16   21 1
    23   17   18 1
    24   17   19 1
    25   17   37 1
    26   18   38 1
    27   19   20 1
    28   19   21 1
    29   19   39 1
    30   20   40 1
    31   21   22 1
    32   21   41 1
    33   22   23 ar
    34   22   31 ar
    35   23   24 ar
    36   23   42 1
    37   24   25 ar
    38   25   26 ar
    39   25   31 ar
    40   26   27 2
    41   26   28 ar
    42   27   43 1
    43   28   29 ar
    44   28   45 1
    45   29   30 ar
    46   29   44 1
    47   30   31 ar
@<TRIPOS>SUBSTRUCTURE
     1 ATP         1 GROUP 0 A     ****
@<TRIPOS>MOLECULE
[[[3,4-dihydroxy-5-(6-imino-1~{H}-purin-9-yl)tetrahydrofuran-2-yl]methoxy-hydroxy-phosphoryl]oxy-oxido-phosphoryl] hydrogen phosphate
   45    47     1     0     0
SMALL
USER_CHARGES

@<TRIPOS>ATOM
      1 PG         -5.1059   -0.1532   -2.5642 P.3       1 ATP         1.5414
      2 O1G        -6.6098   -0.1416   -2.4035 O.co2     1 ATP        -0.8562
      3 O2G        -4.3529   -1.4528   -2.7422 O.co2     1 ATP        -0.8562
      4 O3G        -4.7077    0.8494   -3.7899 O.3       1 ATP        -0.7907
      5 PB         -4.7347    2.1972   -0.8036 P.3       1 ATP         1.6574
      6 O1B        -4.2936    3.1791   -1.8662 O.co2     1 ATP        -0.8530
      7 O2B        -6.1341    2.2437   -0.2314 O.co2     1 ATP        -0.8530
      8 O3B        -4.4362    0.6842   -1.3359 O.3       1 ATP        -0.8003
      9 PA         -3.3138    3.4214    1.4862 P.3       1 ATP         1.7415
     10 O1A        -4.4758    3.8483    2.3355 O.2       1 ATP        -0.8661
     11 O2A        -2.7042    4.5947    0.5537 O.3       1 ATP        -0.8077
     12 O3A        -3.6627    2.2507    0.4259 O.3       1 ATP        -0.7685
     13 O5'        -2.0397    2.8622    2.3122 O.3       1 ATP        -0.5590
     14 C5'        -0.8811    2.4285    1.6206 C.3       1 ATP         0.1960
     15 C4'        -0.1994    1.3333    2.4288 C.3       1 ATP         0.0976
     16 O4'        -1.1285    0.2356    2.5840 O.3       1 ATP        -0.3865
     17 C3'         1.0324    0.7610    1.7344 C.3       1 ATP         0.0901
     18 O3'         1.9175    0.2377    2.7247 O.3       1 ATP        -0.5889
     19 C2'         0.4468   -0.3802    0.9263 C.3       1 ATP         0.0574
     20 O2'         1.3993   -1.3703    0.5961 O.3       1 ATP        -0.5923
     21 C1'        -0.6159   -0.9100    1.8769 C.3       1 ATP         0.2452
     22 N9         -1.7127   -1.6108    1.2130 N.pl3     1 ATP        -0.1834
     23 C8         -2.8662   -1.0361    0.7388 C.ar      1 ATP         0.4338
     24 N7         -3.6774   -1.9166    0.1867 N.2       1 ATP        -0.6101
     25 C5         -3.0159   -3.1045    0.3122 C.ar      1 ATP         0.2154
     26 C6         -3.4377   -4.4169   -0.1199 C.ar      1 ATP         0.6130
     27 N6         -4.5720   -4.5691   -0.7080 N.2       1 ATP        -0.8165
     28 N1         -2.4600   -5.3463    0.2071 N.pl3     1 ATP        -0.8617
     29 C2         -1.2595   -5.0554    0.8515 C.ar      1 ATP         0.6151
     30 N3         -0.8555   -3.8803    1.2516 N.2       1 ATP        -0.5797
     31 C4         -1.7946   -2.9457    0.9448 C.ar      1 ATP         0.0328
     32 HOG3       -4.9551    1.7960   -3.7177 H         1 ATP         0.4197
     33 HOA2       -3.2856    5.0230   -0.1102 H         1 ATP         0.4550
     34 H5'1       -1.1761    2.0499    0.6365 H         1 ATP         0.0431
     35 H5'2       -0.2073    3.2811    1.4874 H         1 ATP         0.0431
     36 H4'         0.0402    1.7079    3.4342 H         1 ATP         0.1325
     37 H3'         1.5907    1.4859    1.1353 H         1 ATP         0.0782
     38 HO3'        2.6839   -0.1150    2.2479 H         1 ATP         0.4062
     39 H2'        -0.0017    0.0018    0.0005 H         1 ATP         0.0689
     40 HO2'        0.9369   -2.0558    0.0825 H         1 ATP         0.4089
     41 H1'        -0.1998   -1.6319    2.6178 H         1 ATP         0.1098
     42 H8         -3.0558    0.0252    0.8256 H         1 ATP         0.0929
     43 HN62       -4.7047   -5.5592   -0.9421 H         1 ATP         0.3678
     44 H2         -0.6372   -5.9505    1.0077 H         1 ATP         0.0383
     45 H45        -2.6338   -6.3155   -0.0469 H         1 ATP         0.4286
@<TRIPOS>BOND
     1    1    2 2
     2    1    3 1
     3    1    4 1
     4    1    8 1
     5    4   32 1
     6    5    6 2
     7    5    7 1
     8    5    8 1
     9    5   12 1
    10    9   10 2
    11    9   11 1
    12    9   12 1
    13    9   13 1
    14   11   33 1
    15   13   14 1
    16   14   15 1
    17   14   34 1
    18   14   35 1
    19   15   16 1
    20   15   17 1
    21   15   36 1
    22   16   21 1
    23   17   18 1
    24   17   19 1
    25   17   37 1
    26   18   38 1
    27   19   20 1
    28   19   21 1
    29   19   39 1
    30   20   40 1
    31   21   22 1
    32   21   41 1
    33   22   23 ar
    34   22   31 ar
    35   23   24 ar
    36   23   42 1
    37   24   25 ar
    38   25   26 ar
    39   25   31 ar
    40   26   27 2
    41   26   28 ar
    42   27   43 1
    43   28   29 ar
    44   28   45 1
    45   29   30 ar
    46   29   44 1
    47   30   31 ar
@<TRIPOS>SUBSTRUCTURE
     1 ATP         1 GROUP 0 A     ****
@<TRIPOS>MOLECULE
[[[3,4-dihydroxy-5-(6-imino-1~{H}-purin-9-yl)tetrahydrofuran-2-yl]methoxy-hydroxy-phosphoryl]oxy-oxido-phosphoryl] hydrogen phosphate
   45    47     1     0     0
SMALL
USER_CHARGES

@<TRIPOS>ATOM
      1 PG         -1.6368    5.7362   -4.6013 P.3       1 ATP         1.5414
      2 O1G        -0.4049    6.5484   -4.9336 O.co2     1 ATP        -0.8562
      3 O2G        -3.0082    6.3738   -4.5875 O.co2     1 ATP        -0.8562
      4 O3G        -1.6798    4.4336   -5.5849 O.3       1 ATP        -0.7907
      5 PB         -1.2344    5.5593   -1.6740 P.3       1 ATP         1.6574
      6 O1B         0.0562    6.3444   -1.5987 O.co2     1 ATP        -0.8530
      7 O2B        -2.5489    6.1771   -1.2519 O.co2     1 ATP        -0.8530
      8 O3B        -1.3957    4.9652   -3.1849 O.3       1 ATP        -0.8003
      9 PA         -1.9904    2.8591   -0.7259 P.3       1 ATP         1.7415
     10 O1A        -2.3196    2.1913   -2.0295 O.2       1 ATP        -0.8661
     11 O2A        -3.2755    3.4364    0.0698 O.3       1 ATP        -0.8077
     12 O3A        -1.0319    4.1544   -0.8684 O.3       1 ATP        -0.7685
     13 O5'        -1.2435    1.9111    0.3519 O.3       1 ATP        -0.5590
     14 C5'        -0.8811    2.4285    1.6206 C.3       1 ATP         0.1960
     15 C4'        -0.1994    1.3333    2.4288 C.3       1 ATP         0.0976
     16 O4'        -1.1285    0.2356    2.5840 O.3       1 ATP        -0.3865
     17 C3'         1.0324    0.7610    1.7344 C.3       1 ATP         0.0901
     18 O3'         1.9175    0.2377    2.7247 O.3       1 ATP        -0.5889
     19 C2'         0.4468   -0.3802    0.9263 C.3       1 ATP         0.0574
     20 O2'         1.3993   -1.3703    0.5961 O.3       1 ATP        -0.5923
     21 C1'        -0.6159   -0.9100    1.8769 C.3       1 ATP         0.2452
     22 N9         -1.7127   -1.6108    1.2130 N.pl3     1 ATP        -0.1834
     23 C8         -2.8662   -1.0361    0.7388 C.ar      1 ATP         0.4338
     24 N7         -3.6774   -1.9166    0.1867 N.2       1 ATP        -0.6101
     25 C5         -3.0159   -3.1045    0.3122 C.ar      1 ATP         0.2154
     26 C6         -3.4377   -4.4169   -0.1199 C.ar      1 ATP         0.6130
     27 N6         -4.5720   -4.5691   -0.7080 N.2       1 ATP        -0.8165
     28 N1         -2.4600   -5.3463    0.2071 N.pl3     1 ATP        -0.8617
     29 C2         -1.2595   -5.0554    0.8515 C.ar      1 ATP         0.6151
     30 N3         -0.8555   -3.8803    1.2516 N.2       1 ATP        -0.5797
     31 C4         -1.7946   -2.9457    0.9448 C.ar      1 ATP         0.0328
     32 HOG3       -2.4256    3.8031   -5.4920 H         1 ATP         0.4197
     33 HOA2       -3.9837    2.8144    0.3413 H         1 ATP         0.4550
     34 H5'1       -0.2031    3.2762    1.4776 H         1 ATP         0.0431
     35 H5'2       -1.7839    2.7764    2.1331 H         1 ATP         0.0431
     36 H4'         0.0402    1.7079    3.4342 H         1 ATP         0.1325
     37 H3'         1.5907    1.4859    1.1353 H         1 ATP         0.0782
     38 HO3'        2.6839   -0.1150    2.2479 H         1 ATP         0.4062
     39 H2'        -0.0017    0.0018    0.0005 H         1 ATP         0.0689
     40 HO2'        2.0953   -0.9375    0.0709 H         1 ATP         0.4089
     41 H1'        -0.1998   -1.6319    2.6178 H         1 ATP         0.1098
     42 H8         -3.0558    0.0252    0.8256 H         1 ATP         0.0929
     43 HN62       -4.7047   -5.5592   -0.9421 H         1 ATP         0.3678
     44 H2         -0.6372   -5.9505    1.0077 H         1 ATP         0.0383
     45 H45        -2.6338   -6.3155   -0.0469 H         1 ATP         0.4286
@<TRIPOS>BOND
     1    1    2 2
     2    1    3 1
     3    1    4 1
     4    1    8 1
     5    4   32 1
     6    5    6 2
     7    5    7 1
     8    5    8 1
     9    5   12 1
    10    9   10 2
    11    9   11 1
    12    9   12 1
    13    9   13 1
    14   11   33 1
    15   13   14 1
    16   14   15 1
    17   14   34 1
    18   14   35 1
    19   15   16 1
    20   15   17 1
    21   15   36 1
    22   16   21 1
    23   17   18 1
    24   17   19 1
    25   17   37 1
    26   18   38 1
    27   19   20 1
    28   19   21 1
    29   19   39 1
    30   20   40 1
    31   21   22 1
    32   21   41 1
    33   22   23 ar
    34   22   31 ar
    35   23   24 ar
    36   23   42 1
    37   24   25 ar
    38   25   26 ar
    39   25   31 ar
    40   26   27 2
    41   26   28 ar
    42   27   43 1
    43   28   29 ar
    44   28   45 1
    45   29   30 ar
    46   29   44 1
    47   30   31 ar
@<TRIPOS>SUBSTRUCTURE
     1 ATP         1 GROUP 0 A     ****
@<TRIPOS>MOLECULE
[[[3,4-dihydroxy-5-(6-imino-1~{H}-purin-9-yl)tetrahydrofuran-2-yl]methoxy-hydroxy-phosphoryl]oxy-oxido-phosphoryl] hydrogen phosphate
   45    47     1     0     0
SMALL
USER_CHARGES

@<TRIPOS>ATOM
      1 PG          8.4399    2.0640   -3.7711 P.3       1 ATP         1.5414
      2 O1G         8.9171    1.4562   -2.4710 O.co2     1 ATP        -0.8562
      3 O2G         9.1578    3.2440   -4.3874 O.co2     1 ATP        -0.8562
      4 O3G         8.3341    0.8790   -4.8894 O.3       1 ATP        -0.7907
      5 PB          6.0922    3.5192   -2.7069 P.3       1 ATP         1.6574
      6 O1B         6.7289    4.8715   -2.9387 O.co2     1 ATP        -0.8530
      7 O2B         4.5988    3.3258   -2.8481 O.co2     1 ATP        -0.8530
      8 O3B         6.8538    2.4179   -3.6389 O.3       1 ATP        -0.8003
      9 PA          6.2291    3.5148    0.2499 P.3       1 ATP         1.7415
     10 O1A         6.6826    4.9226    0.5070 O.2       1 ATP        -0.8661
     11 O2A         6.9222    2.4072    1.2042 O.3       1 ATP        -0.8077
     12 O3A         6.5556    2.9751   -1.2397 O.3       1 ATP        -0.7685
     13 O5'         4.6408    3.2692    0.4376 O.3       1 ATP        -0.5590
     14 C5'         4.0922    1.9801    0.2227 C.3       1 ATP         0.1960
     15 C4'         2.5944    2.0310    0.4653 C.3       1 ATP         0.0976
     16 O4'         1.9327    2.5740   -0.6889 O.3       1 ATP        -0.3865
     17 C3'         1.9685    0.6634    0.6767 C.3       1 ATP         0.0901
     18 O3'         2.1425    0.1975    1.9977 O.3       1 ATP        -0.5889
     19 C2'         0.5176    0.9128    0.3099 C.3       1 ATP         0.0574
     20 O2'        -0.2103    1.4454    1.4152 O.3       1 ATP        -0.5923
     21 C1'         0.6219    1.9765   -0.7844 C.3       1 ATP         0.2452
     22 N9          0.4237    1.4496   -2.1357 N.pl3     1 ATP        -0.1834
     23 C8          1.4069    0.9710   -2.9662 C.ar      1 ATP         0.4338
     24 N7          0.9316    0.5623   -4.1260 N.2       1 ATP        -0.6101
     25 C5         -0.4120    0.7884   -4.0344 C.ar      1 ATP         0.2154
     26 C6         -1.4353    0.5283   -5.0204 C.ar      1 ATP         0.6130
     27 N6         -1.1199    0.0176   -6.1586 N.2       1 ATP        -0.8165
     28 N1         -2.6704    0.9095   -4.5147 N.pl3     1 ATP        -0.8617
     29 C2         -2.8863    1.4571   -3.2520 C.ar      1 ATP         0.6151
     30 N3         -1.9805    1.7017   -2.3442 N.2       1 ATP        -0.5797
     31 C4         -0.7561    1.3381   -2.8112 C.ar      1 ATP         0.0328
     32 HOG3        8.0355    1.1157   -5.7934 H         1 ATP         0.4197
     33 HOA2        6.8036    2.4773    2.1755 H         1 ATP         0.4550
     34 H5'1        4.3024    1.6722   -0.8067 H         1 ATP         0.0431
     35 H5'2        4.5673    1.2731    0.9105 H         1 ATP         0.0431
     36 H4'         2.3752    2.7029    1.3156 H         1 ATP         0.1325
     37 H3'         2.4336   -0.1217   -0.0016 H         1 ATP         0.0782
     38 HO3'        1.7160   -0.6716    2.0397 H         1 ATP         0.4062
     39 H2'         0.0316    0.0155   -0.0339 H         1 ATP         0.0689
     40 HO2'       -0.1608    0.7921    2.1351 H         1 ATP         0.4089
     41 H1'        -0.1474    2.7798   -0.6651 H         1 ATP         0.1098
     42 H8          2.4466    0.9468   -2.6694 H         1 ATP         0.0929
     43 HN62       -1.9661   -0.0965   -6.7275 H         1 ATP         0.3678
     44 H2         -3.9481    1.6825   -3.0660 H         1 ATP         0.0383
     45 H45        -3.4814    0.7753   -5.1133 H         1 ATP         0.4286
@<TRIPOS>BOND
     1    1    2 2
     2    1    3 1
     3    1    4 1
     4    1    8 1
     5    4   32 1
     6    5    6 2
     7    5    7 1
     8    5    8 1
     9    5   12 1
    10    9   10 2
    11    9   11 1
    12    9   12 1
    13    9   13 1
    14   11   33 1
    15   13   14 1
    16   14   15 1
    17   14   34 1
    18   14   35 1
    19   15   16 1
    20   15   17 1
    21   15   36 1
    22   16   21 1
    23   17   18 1
    24   17   19 1
    25   17   37 1
    26   18   38 1
    27   19   20 1
    28   19   21 1
    29   19   39 1
    30   20   40 1
    31   21   22 1
    32   21   41 1
    33   22   23 ar
    34   22   31 ar
    35   23   24 ar
    36   23   42 1
    37   24   25 ar
    38   25   26 ar
    39   25   31 ar
    40   26   27 2
    41   26   28 ar
    42   27   43 1
    43   28   29 ar
    44   28   45 1
    45   29   30 ar
    46   29   44 1
    47   30   31 ar
@<TRIPOS>SUBSTRUCTURE
     1 ATP         1 GROUP 0 A     ****
@<TRIPOS>MOLECULE
[[[3,4-dihydroxy-5-(6-imino-1~{H}-purin-9-yl)tetrahydrofuran-2-yl]methoxy-hydroxy-phosphoryl]oxy-oxido-phosphoryl] hydrogen phosphate
   45    47     1     0     0
SMALL
USER_CHARGES

@<TRIPOS>ATOM
      1 PG         -0.3313    6.3051   -1.2447 P.3       1 ATP         1.5414
      2 O1G        -0.2297    5.2219   -2.2953 O.co2     1 ATP        -0.8562
      3 O2G         0.5614    6.2906   -0.0239 O.co2     1 ATP        -0.8562
      4 O3G        -0.1823    7.7557   -1.9795 O.3       1 ATP        -0.7907
      5 PB         -2.8249    5.3825    0.0564 P.3       1 ATP         1.6574
      6 O1B        -4.1326    6.0648    0.3912 O.co2     1 ATP        -0.8530
      7 O2B        -2.8011    4.0487   -0.6565 O.co2     1 ATP        -0.8530
      8 O3B        -1.8844    6.4326   -0.7649 O.3       1 ATP        -0.8003
      9 PA         -2.1760    4.4068    2.7745 P.3       1 ATP         1.7415
     10 O1A        -3.4497    4.7369    3.4974 O.2       1 ATP        -0.8661
     11 O2A        -0.8322    4.6898    3.6302 O.3       1 ATP        -0.8077
     12 O3A        -1.9401    5.2633    1.4227 O.3       1 ATP        -0.7685
     13 O5'        -2.0397    2.8622    2.3122 O.3       1 ATP        -0.5590
     14 C5'        -0.8811    2.4285    1.6206 C.3       1 ATP         0.1960
     15 C4'        -0.1994    1.3333    2.4288 C.3       1 ATP         0.0976
     16 O4'        -1.1285    0.2356    2.5840 O.3       1 ATP        -0.3865
     17 C3'         1.0324    0.7610    1.7344 C.3       1 ATP         0.0901
     18 O3'         1.9175    0.2377    2.7247 O.3       1 ATP        -0.5889
     19 C2'         0.4468   -0.3802    0.9263 C.3       1 ATP         0.0574
     20 O2'         1.3993   -1.3703    0.5961 O.3       1 ATP        -0.5923
     21 C1'        -0.6159   -0.9100    1.8769 C.3       1 ATP         0.2452
     22 N9         -1.7127   -1.6108    1.2130 N.pl3     1 ATP        -0.1834
     23 C8         -2.5485   -1.0808    0.2609 C.ar      1 ATP         0.4338
     24 N7         -3.4476   -1.9486   -0.1593 N.2       1 ATP        -0.6101
     25 C5         -3.1762   -3.0816    0.5530 C.ar      1 ATP         0.2154
     26 C6         -3.8510   -4.3579    0.5006 C.ar      1 ATP         0.6130
     27 N6         -4.8468   -4.5293   -0.2961 N.2       1 ATP        -0.8165
     28 N1         -3.2499   -5.2342    1.3937 N.pl3     1 ATP        -0.8617
     29 C2         -2.1646   -4.9275    2.2116 C.ar      1 ATP         0.6151
     30 N3         -1.5382   -3.7840    2.2778 N.2       1 ATP        -0.5797
     31 C4         -2.1054   -2.9018    1.4120 C.ar      1 ATP         0.0328
     32 HOG3       -0.2272    8.5653   -1.4274 H         1 ATP         0.4197
     33 HOA2        0.0389    4.4977    3.2223 H         1 ATP         0.4550
     34 H5'1       -1.1761    2.0499    0.6365 H         1 ATP         0.0431
     35 H5'2       -0.2073    3.2811    1.4874 H         1 ATP         0.0431
     36 H4'         0.0402    1.7079    3.4342 H         1 ATP         0.1325
     37 H3'         1.5907    1.4859    1.1353 H         1 ATP         0.0782
     38 HO3'        2.1521    0.9800    3.3017 H         1 ATP         0.4062
     39 H2'        -0.0017    0.0018    0.0005 H         1 ATP         0.0689
     40 HO2'        0.9369   -2.0558    0.0825 H         1 ATP         0.4089
     41 H1'        -0.1998   -1.6319    2.6178 H         1 ATP         0.1098
     42 H8         -2.4515   -0.0599   -0.0829 H         1 ATP         0.0929
     43 HN62       -5.1990   -5.4882   -0.2005 H         1 ATP         0.3678
     44 H2         -1.8555   -5.7783    2.8388 H         1 ATP         0.0383
     45 H45        -3.6312   -6.1750    1.4526 H         1 ATP         0.4286
@<TRIPOS>BOND
     1    1    2 2
     2    1    3 1
     3    1    4 1
     4    1    8 1
     5    4   32 1
     6    5    6 2
     7    5    7 1
     8    5    8 1
     9    5   12 1
    10    9   10 2
    11    9   11 1
    12    9   12 1
    13    9   13 1
    14   11   33 1
    15   13   14 1
    16   14   15 1
    17   14   34 1
    18   14   35 1
    19   15   16 1
    20   15   17 1
    21   15   36 1
    22   16   21 1
    23   17   18 1
    24   17   19 1
    25   17   37 1
    26   18   38 1
    27   19   20 1
    28   19   21 1
    29   19   39 1
    30   20   40 1
    31   21   22 1
    32   21   41 1
    33   22   23 ar
    34   22   31 ar
    35   23   24 ar
    36   23   42 1
    37   24   25 ar
    38   25   26 ar
    39   25   31 ar
    40   26   27 2
    41   26   28 ar
    42   27   43 1
    43   28   29 ar
    44   28   45 1
    45   29   30 ar
    46   29   44 1
    47   30   31 ar
@<TRIPOS>SUBSTRUCTURE
     1 ATP         1 GROUP 0 A     ****
@<TRIPOS>MOLECULE
[[[3,4-dihydroxy-5-(6-imino-1~{H}-purin-9-yl)tetrahydrofuran-2-yl]methoxy-hydroxy-phosphoryl]oxy-oxido-phosphoryl] hydrogen phosphate
   45    47     1     0     0
SMALL
USER_CHARGES

@<TRIPOS>ATOM
      1 PG         -4.5976    2.9594   -3.6645 P.3       1 ATP         1.5414
      2 O1G        -4.4141    1.5526   -4.1888 O.co2     1 ATP        -0.8562
      3 O2G        -4.0779    4.1512   -4.4373 O.co2     1 ATP        -0.8562
      4 O3G        -6.1832    3.1939   -3.3532 O.3       1 ATP        -0.7907
      5 PB         -4.1117    4.2370   -1.0390 P.3       1 ATP         1.6574
      6 O1B        -3.2641    5.3903   -1.5282 O.co2     1 ATP        -0.8530
      7 O2B        -5.5572    4.4437   -0.6446 O.co2     1 ATP        -0.8530
      8 O3B        -4.0350    3.0318   -2.1359 O.3       1 ATP        -0.8003
      9 PA         -2.9690    4.0281    1.6835 P.3       1 ATP         1.7415
     10 O1A        -4.1648    4.3954    2.5134 O.2       1 ATP        -0.8661
     11 O2A        -1.9470    5.2523    1.4099 O.3       1 ATP        -0.8077
     12 O3A        -3.3299    3.5086    0.1947 O.3       1 ATP        -0.7685
     13 O5'        -2.0397    2.8622    2.3122 O.3       1 ATP        -0.5590
     14 C5'        -0.8811    2.4285    1.6206 C.3       1 ATP         0.1960
     15 C4'        -0.1994    1.3333    2.4288 C.3       1 ATP         0.0976
     16 O4'        -1.1285    0.2356    2.5840 O.3       1 ATP        -0.3865
     17 C3'         1.0324    0.7610    1.7344 C.3       1 ATP         0.0901
     18 O3'         1.9175    0.2377    2.7247 O.3       1 ATP        -0.5889
     19 C2'         0.4468   -0.3802    0.9263 C.3       1 ATP         0.0574
     20 O2'         1.3993   -1.3703    0.5961 O.3       1 ATP        -0.5923
     21 C1'        -0.6159   -0.9100    1.8769 C.3       1 ATP         0.2452
     22 N9         -1.7127   -1.6108    1.2130 N.pl3     1 ATP        -0.1834
     23 C8         -1.5982   -2.7455    0.4481 C.ar      1 ATP         0.4338
     24 N7         -2.7593   -3.1533   -0.0249 N.2       1 ATP        -0.6101
     25 C5         -3.6547   -2.2420    0.4573 C.ar      1 ATP         0.2154
     26 C6         -5.0842   -2.1942    0.2543 C.ar      1 ATP         0.6130
     27 N6         -5.6648   -3.0919   -0.4618 N.2       1 ATP        -0.8165
     28 N1         -5.6087   -1.0978    0.9248 N.pl3     1 ATP        -0.8617
     29 C2         -4.8689   -0.1873    1.6760 C.ar      1 ATP         0.6151
     30 N3         -3.5787   -0.2081    1.8745 N.2       1 ATP        -0.5797
     31 C4         -3.0344   -1.2737    1.2284 C.ar      1 ATP         0.0328
     32 HOG3       -6.4663    4.0658   -3.0039 H         1 ATP         0.4197
     33 HOA2       -1.5253    5.6979    2.1752 H         1 ATP         0.4550
     34 H5'1       -1.1761    2.0499    0.6365 H         1 ATP         0.0431
     35 H5'2       -0.2073    3.2811    1.4874 H         1 ATP         0.0431
     36 H4'         0.0402    1.7079    3.4342 H         1 ATP         0.1325
     37 H3'         1.5907    1.4859    1.1353 H         1 ATP         0.0782
     38 HO3'        2.6839   -0.1150    2.2479 H         1 ATP         0.4062
     39 H2'        -0.0017    0.0018    0.0005 H         1 ATP         0.0689
     40 HO2'        2.0953   -0.9375    0.0709 H         1 ATP         0.4089
     41 H1'        -0.1998   -1.6319    2.6178 H         1 ATP         0.1098
     42 H8         -0.6448   -3.2254    0.2735 H         1 ATP         0.0929
     43 HN62       -6.6723   -2.9015   -0.4966 H         1 ATP         0.3678
     44 H2         -5.4961    0.6026    2.1183 H         1 ATP         0.0383
     45 H45        -6.6130   -0.9504    0.8642 H         1 ATP         0.4286
@<TRIPOS>BOND
     1    1    2 2
     2    1    3 1
     3    1    4 1
     4    1    8 1
     5    4   32 1
     6    5    6 2
     7    5    7 1
     8    5    8 1
     9    5   12 1
    10    9   10 2
    11    9   11 1
    12    9   12 1
    13    9   13 1
    14   11   33 1
    15   13   14 1
    16   14   15 1
    17   14   34 1
    18   14   35 1
    19   15   16 1
    20   15   17 1
    21   15   36 1
    22   16   21 1
    23   17   18 1
    24   17   19 1
    25   17   37 1
    26   18   38 1
    27   19   20 1
    28   19   21 1
    29   19   39 1
    30   20   40 1
    31   21   22 1
    32   21   41 1
    33   22   23 ar
    34   22   31 ar
    35   23   24 ar
    36   23   42 1
    37   24   25 ar
    38   25   26 ar
    39   25   31 ar
    40   26   27 2
    41   26   28 ar
    42   27   43 1
    43   28   29 ar
    44   28   45 1
    45   29   30 ar
    46   29   44 1
    47   30   31 ar
@<TRIPOS>SUBSTRUCTURE
     1 ATP         1 GROUP 0 A     ****
@<TRIPOS>MOLECULE
[[[3,4-dihydroxy-5-(6-imino-1~{H}-purin-9-yl)tetrahydrofuran-2-yl]methoxy-hydroxy-phosphoryl]oxy-oxido-phosphoryl] hydrogen phosphate
   45    47     1     0     0
SMALL
USER_CHARGES

@<TRIPOS>ATOM
      1 PG          1.9443    6.8842   -1.5698 P.3       1 ATP         1.5414
      2 O1G         1.6817    8.2577   -0.9935 O.co2     1 ATP        -0.8562
      3 O2G         2.3218    6.7104   -3.0240 O.co2     1 ATP        -0.8562
      4 O3G         3.0703    6.1423   -0.6490 O.3       1 ATP        -0.7907
      5 PB          0.4770    4.3154   -1.4691 P.3       1 ATP         1.6574
      6 O1B         0.4305    4.0498   -2.9574 O.co2     1 ATP        -0.8530
      7 O2B         1.4397    3.5682   -0.5731 O.co2     1 ATP        -0.8530
      8 O3B         0.6759    5.9172   -1.2315 O.3       1 ATP        -0.8003
      9 PA         -1.9904    2.8591   -0.7259 P.3       1 ATP         1.7415
     10 O1A        -2.3196    2.1913   -2.0295 O.2       1 ATP        -0.8661
     11 O2A        -3.2755    3.4364    0.0698 O.3       1 ATP        -0.8077
     12 O3A        -1.0319    4.1544   -0.8684 O.3       1 ATP        -0.7685
     13 O5'        -1.2435    1.9111    0.3519 O.3       1 ATP        -0.5590
     14 C5'        -0.8811    2.4285    1.6206 C.3       1 ATP         0.1960
     15 C4'        -0.1994    1.3333    2.4288 C.3       1 ATP         0.0976
     16 O4'        -1.1285    0.2356    2.5840 O.3       1 ATP        -0.3865
     17 C3'         1.0324    0.7610    1.7344 C.3       1 ATP         0.0901
     18 O3'         1.9175    0.2377    2.7247 O.3       1 ATP        -0.5889
     19 C2'         0.4468   -0.3802    0.9263 C.3       1 ATP         0.0574
     20 O2'         1.3993   -1.3703    0.5961 O.3       1 ATP        -0.5923
     21 C1'        -0.6159   -0.9100    1.8769 C.3       1 ATP         0.2452
     22 N9         -1.7127   -1.6108    1.2130 N.pl3     1 ATP        -0.1834
     23 C8         -2.8662   -1.0361    0.7388 C.ar      1 ATP         0.4338
     24 N7         -3.6774   -1.9166    0.1867 N.2       1 ATP        -0.6101
     25 C5         -3.0159   -3.1045    0.3122 C.ar      1 ATP         0.2154
     26 C6         -3.4377   -4.4169   -0.1199 C.ar      1 ATP         0.6130
     27 N6         -4.5720   -4.5691   -0.7080 N.2       1 ATP        -0.8165
     28 N1         -2.4600   -5.3463    0.2071 N.pl3     1 ATP        -0.8617
     29 C2         -1.2595   -5.0554    0.8515 C.ar      1 ATP         0.6151
     30 N3         -0.8555   -3.8803    1.2516 N.2       1 ATP        -0.5797
     31 C4         -1.7946   -2.9457    0.9448 C.ar      1 ATP         0.0328
     32 HOG3        3.3510    5.2352   -0.8955 H         1 ATP         0.4197
     33 HOA2       -3.9837    2.8144    0.3413 H         1 ATP         0.4550
     34 H5'1       -0.2031    3.2762    1.4776 H         1 ATP         0.0431
     35 H5'2       -1.7839    2.7764    2.1331 H         1 ATP         0.0431
     36 H4'         0.0402    1.7079    3.4342 H         1 ATP         0.1325
     37 H3'         1.5907    1.4859    1.1353 H         1 ATP         0.0782
     38 HO3'        2.6839   -0.1150    2.2479 H         1 ATP         0.4062
     39 H2'        -0.0017    0.0018    0.0005 H         1 ATP         0.0689
     40 HO2'        2.0953   -0.9375    0.0709 H         1 ATP         0.4089
     41 H1'        -0.1998   -1.6319    2.6178 H         1 ATP         0.1098
     42 H8         -3.0558    0.0252    0.8256 H         1 ATP         0.0929
     43 HN62       -4.7047   -5.5592   -0.9421 H         1 ATP         0.3678
     44 H2         -0.6372   -5.9505    1.0077 H         1 ATP         0.0383
     45 H45        -2.6338   -6.3155   -0.0469 H         1 ATP         0.4286
@<TRIPOS>BOND
     1    1    2 2
     2    1    3 1
     3    1    4 1
     4    1    8 1
     5    4   32 1
     6    5    6 2
     7    5    7 1
     8    5    8 1
     9    5   12 1
    10    9   10 2
    11    9   11 1
    12    9   12 1
    13    9   13 1
    14   11   33 1
    15   13   14 1
    16   14   15 1
    17   14   34 1
    18   14   35 1
    19   15   16 1
    20   15   17 1
    21   15   36 1
    22   16   21 1
    23   17   18 1
    24   17   19 1
    25   17   37 1
    26   18   38 1
    27   19   20 1
    28   19   21 1
    29   19   39 1
    30   20   40 1
    31   21   22 1
    32   21   41 1
    33   22   23 ar
    34   22   31 ar
    35   23   24 ar
    36   23   42 1
    37   24   25 ar
    38   25   26 ar
    39   25   31 ar
    40   26   27 2
    41   26   28 ar
    42   27   43 1
    43   28   29 ar
    44   28   45 1
    45   29   30 ar
    46   29   44 1
    47   30   31 ar
@<TRIPOS>SUBSTRUCTURE
     1 ATP         1 GROUP 0 A     ****
@<TRIPOS>MOLECULE
[[[3,4-dihydroxy-5-(6-imino-1~{H}-purin-9-yl)tetrahydrofuran-2-yl]methoxy-hydroxy-phosphoryl]oxy-oxido-phosphoryl] hydrogen phosphate
   45    47     1     0     0
SMALL
USER_CHARGES

@<TRIPOS>ATOM
      1 PG         -1.3686    8.1012   -1.4792 P.3       1 ATP         1.5414
      2 O1G        -1.3905    7.5635   -2.8927 O.co2     1 ATP        -0.8562
      3 O2G        -0.2217    8.9577   -0.9909 O.co2     1 ATP        -0.8562
      4 O3G        -2.7661    8.9007   -1.2069 O.3       1 ATP        -0.7907
      5 PB         -1.8026    6.8710    1.1778 P.3       1 ATP         1.6574
      6 O1B        -0.5253    7.3473    1.8331 O.co2     1 ATP        -0.8530
      7 O2B        -3.1301    7.5258    1.4890 O.co2     1 ATP        -0.8530
      8 O3B        -1.5877    6.8646   -0.4394 O.3       1 ATP        -0.8003
      9 PA         -2.1760    4.4068    2.7745 P.3       1 ATP         1.7415
     10 O1A        -3.4497    4.7369    3.4974 O.2       1 ATP        -0.8661
     11 O2A        -0.8322    4.6898    3.6302 O.3       1 ATP        -0.8077
     12 O3A        -1.9401    5.2633    1.4227 O.3       1 ATP        -0.7685
     13 O5'        -2.0397    2.8622    2.3122 O.3       1 ATP        -0.5590
     14 C5'        -0.8811    2.4285    1.6206 C.3       1 ATP         0.1960
     15 C4'        -0.1994    1.3333    2.4288 C.3       1 ATP         0.0976
     16 O4'        -1.1285    0.2356    2.5840 O.3       1 ATP        -0.3865
     17 C3'         1.0324    0.7610    1.7344 C.3       1 ATP         0.0901
     18 O3'         1.9175    0.2377    2.7247 O.3       1 ATP        -0.5889
     19 C2'         0.4468   -0.3802    0.9263 C.3       1 ATP         0.0574
     20 O2'         1.3993   -1.3703    0.5961 O.3       1 ATP        -0.5923
     21 C1'        -0.6159   -0.9100    1.8769 C.3       1 ATP         0.2452
     22 N9         -1.7127   -1.6108    1.2130 N.pl3     1 ATP        -0.1834
     23 C8         -1.7690   -2.9583    0.9549 C.ar      1 ATP         0.4338
     24 N7         -2.8827   -3.3076    0.3418 N.2       1 ATP        -0.6101
     25 C5         -3.5683   -2.1351    0.2017 C.ar      1 ATP         0.2154
     26 C6         -4.8617   -1.9185   -0.4044 C.ar      1 ATP         0.6130
     27 N6         -5.5166   -2.9094   -0.8993 N.2       1 ATP        -0.8165
     28 N1         -5.1837   -0.5701   -0.3344 N.pl3     1 ATP        -0.8617
     29 C2         -4.3821    0.4180    0.2330 C.ar      1 ATP         0.6151
     30 N3         -3.2117    0.2488    0.7860 N.2       1 ATP        -0.5797
     31 C4         -2.8672   -1.0657    0.7327 C.ar      1 ATP         0.0328
     32 HOG3       -2.9050    9.3113   -0.3269 H         1 ATP         0.4197
     33 HOA2       -0.6510    5.6026    3.9402 H         1 ATP         0.4550
     34 H5'1       -1.1761    2.0499    0.6365 H         1 ATP         0.0431
     35 H5'2       -0.2073    3.2811    1.4874 H         1 ATP         0.0431
     36 H4'         0.0402    1.7079    3.4342 H         1 ATP         0.1325
     37 H3'         1.5907    1.4859    1.1353 H         1 ATP         0.0782
     38 HO3'        2.6839   -0.1150    2.2479 H         1 ATP         0.4062
     39 H2'        -0.0017    0.0018    0.0005 H         1 ATP         0.0689
     40 HO2'        2.0953   -0.9375    0.0709 H         1 ATP         0.4089
     41 H1'        -0.1998   -1.6319    2.6178 H         1 ATP         0.1098
     42 H8         -0.9697   -3.6300    1.2371 H         1 ATP         0.0929
     43 HN62       -6.4060   -2.5723   -1.2840 H         1 ATP         0.3678
     44 H2         -4.8409    1.4176    0.1757 H         1 ATP         0.0383
     45 H45        -6.0768   -0.2826   -0.7263 H         1 ATP         0.4286
@<TRIPOS>BOND
     1    1    2 2
     2    1    3 1
     3    1    4 1
     4    1    8 1
     5    4   32 1
     6    5    6 2
     7    5    7 1
     8    5    8 1
     9    5   12 1
    10    9   10 2
    11    9   11 1
    12    9   12 1
    13    9   13 1
    14   11   33 1
    15   13   14 1
    16   14   15 1
    17   14   34 1
    18   14   35 1
    19   15   16 1
    20   15   17 1
    21   15   36 1
    22   16   21 1
    23   17   18 1
    24   17   19 1
    25   17   37 1
    26   18   38 1
    27   19   20 1
    28   19   21 1
    29   19   39 1
    30   20   40 1
    31   21   22 1
    32   21   41 1
    33   22   23 ar
    34   22   31 ar
    35   23   24 ar
    36   23   42 1
    37   24   25 ar
    38   25   26 ar
    39   25   31 ar
    40   26   27 2
    41   26   28 ar
    42   27   43 1
    43   28   29 ar
    44   28   45 1
    45   29   30 ar
    46   29   44 1
    47   30   31 ar
@<TRIPOS>SUBSTRUCTURE
     1 ATP         1 GROUP 0 A     ****
@<TRIPOS>MOLECULE
[[[3,4-dihydroxy-5-(6-imino-1~{H}-purin-9-yl)tetrahydrofuran-2-yl]methoxy-hydroxy-phosphoryl]oxy-oxido-phosphoryl] hydrogen phosphate
   45    47     1     0     0
SMALL
USER_CHARGES

@<TRIPOS>ATOM
      1 PG         -1.8641    4.9328    7.5189 P.3       1 ATP         1.5414
      2 O1G        -3.3553    5.1849    7.5284 O.co2     1 ATP        -0.8562
      3 O2G        -0.9096    5.8879    8.2001 O.co2     1 ATP        -0.8562
      4 O3G        -1.5890    3.4282    8.0906 O.3       1 ATP        -0.7907
      5 PB         -1.3291    5.7397    4.7216 P.3       1 ATP         1.6574
      6 O1B        -2.7473    6.1012    4.3399 O.co2     1 ATP        -0.8530
      7 O2B        -0.3026    6.8116    5.0136 O.co2     1 ATP        -0.8530
      8 O3B        -1.3764    4.7026    5.9801 O.3       1 ATP        -0.8003
      9 PA         -0.3718    4.9776    2.0264 P.3       1 ATP         1.7415
     10 O1A         0.6640    6.0385    1.7915 O.2       1 ATP        -0.8661
     11 O2A        -1.8128    5.2955    1.3627 O.3       1 ATP        -0.8077
     12 O3A        -0.7290    4.7337    3.5851 O.3       1 ATP        -0.7685
     13 O5'         0.0171    3.5129    1.4593 O.3       1 ATP        -0.5590
     14 C5'        -0.8811    2.4285    1.6206 C.3       1 ATP         0.1960
     15 C4'        -0.1994    1.3333    2.4288 C.3       1 ATP         0.0976
     16 O4'        -1.1285    0.2356    2.5840 O.3       1 ATP        -0.3865
     17 C3'         1.0324    0.7610    1.7344 C.3       1 ATP         0.0901
     18 O3'         1.9175    0.2377    2.7247 O.3       1 ATP        -0.5889
     19 C2'         0.4468   -0.3802    0.9263 C.3       1 ATP         0.0574
     20 O2'         1.3993   -1.3703    0.5961 O.3       1 ATP        -0.5923
     21 C1'        -0.6159   -0.9100    1.8769 C.3       1 ATP         0.2452
     22 N9         -1.7127   -1.6108    1.2130 N.pl3     1 ATP        -0.1834
     23 C8         -2.5485   -1.0808    0.2609 C.ar      1 ATP         0.4338
     24 N7         -3.4476   -1.9486   -0.1593 N.2       1 ATP        -0.6101
     25 C5         -3.1762   -3.0816    0.5530 C.ar      1 ATP         0.2154
     26 C6         -3.8510   -4.3579    0.5006 C.ar      1 ATP         0.6130
     27 N6         -4.8468   -4.5293   -0.2961 N.2       1 ATP        -0.8165
     28 N1         -3.2499   -5.2342    1.3937 N.pl3     1 ATP        -0.8617
     29 C2         -2.1646   -4.9275    2.2116 C.ar      1 ATP         0.6151
     30 N3         -1.5382   -3.7840    2.2778 N.2       1 ATP        -0.5797
     31 C4         -2.1054   -2.9018    1.4120 C.ar      1 ATP         0.0328
     32 HOG3       -0.6618    3.1127    8.1471 H         1 ATP         0.4197
     33 HOA2       -2.2941    6.1043    1.6391 H         1 ATP         0.4550
     34 H5'1       -1.7775    2.7843    2.1389 H         1 ATP         0.0431
     35 H5'2       -1.1658    2.0534    0.6322 H         1 ATP         0.0431
     36 H4'         0.0402    1.7079    3.4342 H         1 ATP         0.1325
     37 H3'         1.5907    1.4859    1.1353 H         1 ATP         0.0782
     38 HO3'        2.6839   -0.1150    2.2479 H         1 ATP         0.4062
     39 H2'        -0.0017    0.0018    0.0005 H         1 ATP         0.0689
     40 HO2'        0.9369   -2.0558    0.0825 H         1 ATP         0.4089
     41 H1'        -0.1998   -1.6319    2.6178 H         1 ATP         0.1098
     42 H8         -2.4515   -0.0599   -0.0829 H         1 ATP         0.0929
     43 HN62       -5.1990   -5.4882   -0.2005 H         1 ATP         0.3678
     44 H2         -1.8555   -5.7783    2.8388 H         1 ATP         0.0383
     45 H45        -3.6312   -6.1750    1.4526 H         1 ATP         0.4286
@<TRIPOS>BOND
     1    1    2 2
     2    1    3 1
     3    1    4 1
     4    1    8 1
     5    4   32 1
     6    5    6 2
     7    5    7 1
     8    5    8 1
     9    5   12 1
    10    9   10 2
    11    9   11 1
    12    9   12 1
    13    9   13 1
    14   11   33 1
    15   13   14 1
    16   14   15 1
    17   14   34 1
    18   14   35 1
    19   15   16 1
    20   15   17 1
    21   15   36 1
    22   16   21 1
    23   17   18 1
    24   17   19 1
    25   17   37 1
    26   18   38 1
    27   19   20 1
    28   19   21 1
    29   19   39 1
    30   20   40 1
    31   21   22 1
    32   21   41 1
    33   22   23 ar
    34   22   31 ar
    35   23   24 ar
    36   23   42 1
    37   24   25 ar
    38   25   26 ar
    39   25   31 ar
    40   26   27 2
    41   26   28 ar
    42   27   43 1
    43   28   29 ar
    44   28   45 1
    45   29   30 ar
    46   29   44 1
    47   30   31 ar
@<TRIPOS>SUBSTRUCTURE
     1 ATP         1 GROUP 0 A     ****
@<TRIPOS>MOLECULE
[[[3,4-dihydroxy-5-(6-imino-1~{H}-purin-9-yl)tetrahydrofuran-2-yl]methoxy-hydroxy-phosphoryl]oxy-oxido-phosphoryl] hydrogen phosphate
   45    47     1     0     0
SMALL
USER_CHARGES

@<TRIPOS>ATOM
      1 PG         -3.4463    7.4550   -1.1489 P.3       1 ATP         1.5414
      2 O1G        -4.0950    7.4039   -2.5143 O.co2     1 ATP        -0.8562
      3 O2G        -2.6103    8.6435   -0.7293 O.co2     1 ATP        -0.8562
      4 O3G        -4.5976    7.2050   -0.0183 O.3       1 ATP        -0.7907
      5 PB         -1.2344    5.5593   -1.6740 P.3       1 ATP         1.6574
      6 O1B        -1.5771    5.2410   -3.1124 O.co2     1 ATP        -0.8530
      7 O2B        -0.0890    6.4859   -1.3317 O.co2     1 ATP        -0.8530
      8 O3B        -2.5814    6.0914   -0.9229 O.3       1 ATP        -0.8003
      9 PA         -1.9904    2.8591   -0.7259 P.3       1 ATP         1.7415
     10 O1A        -2.3196    2.1913   -2.0295 O.2       1 ATP        -0.8661
     11 O2A        -3.2755    3.4364    0.0698 O.3       1 ATP        -0.8077
     12 O3A        -1.0319    4.1544   -0.8684 O.3       1 ATP        -0.7685
     13 O5'        -1.2435    1.9111    0.3519 O.3       1 ATP        -0.5590
     14 C5'        -0.8811    2.4285    1.6206 C.3       1 ATP         0.1960
     15 C4'        -0.1994    1.3333    2.4288 C.3       1 ATP         0.0976
     16 O4'        -1.1285    0.2356    2.5840 O.3       1 ATP        -0.3865
     17 C3'         1.0324    0.7610    1.7344 C.3       1 ATP         0.0901
     18 O3'         1.9175    0.2377    2.7247 O.3       1 ATP        -0.5889
     19 C2'         0.4468   -0.3802    0.9263 C.3       1 ATP         0.0574
     20 O2'         1.3993   -1.3703    0.5961 O.3       1 ATP        -0.5923
     21 C1'        -0.6159   -0.9100    1.8769 C.3       1 ATP         0.2452
     22 N9         -1.7127   -1.6108    1.2130 N.pl3     1 ATP        -0.1834
     23 C8         -2.8662   -1.0361    0.7388 C.ar      1 ATP         0.4338
     24 N7         -3.6774   -1.9166    0.1867 N.2       1 ATP        -0.6101
     25 C5         -3.0159   -3.1045    0.3122 C.ar      1 ATP         0.2154
     26 C6         -3.4377   -4.4169   -0.1199 C.ar      1 ATP         0.6130
     27 N6         -4.5720   -4.5691   -0.7080 N.2       1 ATP        -0.8165
     28 N1         -2.4600   -5.3463    0.2071 N.pl3     1 ATP        -0.8617
     29 C2         -1.2595   -5.0554    0.8515 C.ar      1 ATP         0.6151
     30 N3         -0.8555   -3.8803    1.2516 N.2       1 ATP        -0.5797
     31 C4         -1.7946   -2.9457    0.9448 C.ar      1 ATP         0.0328
     32 HOG3       -4.3326    7.2086    0.9262 H         1 ATP         0.4197
     33 HOA2       -3.9837    2.8144    0.3413 H         1 ATP         0.4550
     34 H5'1       -0.2031    3.2762    1.4776 H         1 ATP         0.0431
     35 H5'2       -1.7839    2.7764    2.1331 H         1 ATP         0.0431
     36 H4'         0.0402    1.7079    3.4342 H         1 ATP         0.1325
     37 H3'         1.5907    1.4859    1.1353 H         1 ATP         0.0782
     38 HO3'        2.6839   -0.1150    2.2479 H         1 ATP         0.4062
     39 H2'        -0.0017    0.0018    0.0005 H         1 ATP         0.0689
     40 HO2'        2.0953   -0.9375    0.0709 H         1 ATP         0.4089
     41 H1'        -0.1998   -1.6319    2.6178 H         1 ATP         0.1098
     42 H8         -3.0558    0.0252    0.8256 H         1 ATP         0.0929
     43 HN62       -4.7047   -5.5592   -0.9421 H         1 ATP         0.3678
     44 H2         -0.6372   -5.9505    1.0077 H         1 ATP         0.0383
     45 H45        -2.6338   -6.3155   -0.0469 H         1 ATP         0.4286
@<TRIPOS>BOND
     1    1    2 2
     2    1    3 1
     3    1    4 1
     4    1    8 1
     5    4   32 1
     6    5    6 2
     7    5    7 1
     8    5    8 1
     9    5   12 1
    10    9   10 2
    11    9   11 1
    12    9   12 1
    13    9   13 1
    14   11   33 1
    15   13   14 1
    16   14   15 1
    17   14   34 1
    18   14   35 1
    19   15   16 1
    20   15   17 1
    21   15   36 1
    22   16   21 1
    23   17   18 1
    24   17   19 1
    25   17   37 1
    26   18   38 1
    27   19   20 1
    28   19   21 1
    29   19   39 1
    30   20   40 1
    31   21   22 1
    32   21   41 1
    33   22   23 ar
    34   22   31 ar
    35   23   24 ar
    36   23   42 1
    37   24   25 ar
    38   25   26 ar
    39   25   31 ar
    40   26   27 2
    41   26   28 ar
    42   27   43 1
    43   28   29 ar
    44   28   45 1
    45   29   30 ar
    46   29   44 1
    47   30   31 ar
@<TRIPOS>SUBSTRUCTURE
     1 ATP         1 GROUP 0 A     ****
@<TRIPOS>MOLECULE
[[[3,4-dihydroxy-5-(6-imino-1~{H}-purin-9-yl)tetrahydrofuran-2-yl]methoxy-hydroxy-phosphoryl]oxy-oxido-phosphoryl] hydrogen phosphate
   45    47     1     0     0
SMALL
USER_CHARGES

@<TRIPOS>ATOM
      1 PG         -0.1774    3.8689    6.7055 P.3       1 ATP         1.5414
      2 O1G         0.7466    4.8435    7.4011 O.co2     1 ATP        -0.8562
      3 O2G         0.3632    2.8409    5.7369 O.co2     1 ATP        -0.8562
      4 O3G        -1.0657    3.0982    7.8382 O.3       1 ATP        -0.7907
      5 PB         -1.3291    5.7397    4.7216 P.3       1 ATP         1.6574
      6 O1B        -2.7473    6.1012    4.3399 O.co2     1 ATP        -0.8530
      7 O2B        -0.3026    6.8116    5.0136 O.co2     1 ATP        -0.8530
      8 O3B        -1.3764    4.7026    5.9801 O.3       1 ATP        -0.8003
      9 PA         -0.3718    4.9776    2.0264 P.3       1 ATP         1.7415
     10 O1A         0.6640    6.0385    1.7915 O.2       1 ATP        -0.8661
     11 O2A        -1.8128    5.2955    1.3627 O.3       1 ATP        -0.8077
     12 O3A        -0.7290    4.7337    3.5851 O.3       1 ATP        -0.7685
     13 O5'         0.0171    3.5129    1.4593 O.3       1 ATP        -0.5590
     14 C5'        -0.8811    2.4285    1.6206 C.3       1 ATP         0.1960
     15 C4'        -0.1994    1.3333    2.4288 C.3       1 ATP         0.0976
     16 O4'        -1.1285    0.2356    2.5840 O.3       1 ATP        -0.3865
     17 C3'         1.0324    0.7610    1.7344 C.3       1 ATP         0.0901
     18 O3'         1.9175    0.2377    2.7247 O.3       1 ATP        -0.5889
     19 C2'         0.4468   -0.3802    0.9263 C.3       1 ATP         0.0574
     20 O2'         1.3993   -1.3703    0.5961 O.3       1 ATP        -0.5923
     21 C1'        -0.6159   -0.9100    1.8769 C.3       1 ATP         0.2452
     22 N9         -1.7127   -1.6108    1.2130 N.pl3     1 ATP        -0.1834
     23 C8         -1.7690   -2.9583    0.9549 C.ar      1 ATP         0.4338
     24 N7         -2.8827   -3.3076    0.3418 N.2       1 ATP        -0.6101
     25 C5         -3.5683   -2.1351    0.2017 C.ar      1 ATP         0.2154
     26 C6         -4.8617   -1.9185   -0.4044 C.ar      1 ATP         0.6130
     27 N6         -5.5166   -2.9094   -0.8993 N.2       1 ATP        -0.8165
     28 N1         -5.1837   -0.5701   -0.3344 N.pl3     1 ATP        -0.8617
     29 C2         -4.3821    0.4180    0.2330 C.ar      1 ATP         0.6151
     30 N3         -3.2117    0.2488    0.7860 N.2       1 ATP        -0.5797
     31 C4         -2.8672   -1.0657    0.7327 C.ar      1 ATP         0.0328
     32 HOG3       -1.7184    2.4279    7.5431 H         1 ATP         0.4197
     33 HOA2       -1.8712    5.4150    0.3908 H         1 ATP         0.4550
     34 H5'1       -1.7775    2.7843    2.1389 H         1 ATP         0.0431
     35 H5'2       -1.1658    2.0534    0.6322 H         1 ATP         0.0431
     36 H4'         0.0402    1.7079    3.4342 H         1 ATP         0.1325
     37 H3'         1.5907    1.4859    1.1353 H         1 ATP         0.0782
     38 HO3'        2.6839   -0.1150    2.2479 H         1 ATP         0.4062
     39 H2'        -0.0017    0.0018    0.0005 H         1 ATP         0.0689
     40 HO2'        2.0953   -0.9375    0.0709 H         1 ATP         0.4089
     41 H1'        -0.1998   -1.6319    2.6178 H         1 ATP         0.1098
     42 H8         -0.9697   -3.6300    1.2371 H         1 ATP         0.0929
     43 HN62       -6.4060   -2.5723   -1.2840 H         1 ATP         0.3678
     44 H2         -4.8409    1.4176    0.1757 H         1 ATP         0.0383
     45 H45        -6.0768   -0.2826   -0.7263 H         1 ATP         0.4286
@<TRIPOS>BOND
     1    1    2 2
     2    1    3 1
     3    1    4 1
     4    1    8 1
     5    4   32 1
     6    5    6 2
     7    5    7 1
     8    5    8 1
     9    5   12 1
    10    9   10 2
    11    9   11 1
    12    9   12 1
    13    9   13 1
    14   11   33 1
    15   13   14 1
    16   14   15 1
    17   14   34 1
    18   14   35 1
    19   15   16 1
    20   15   17 1
    21   15   36 1
    22   16   21 1
    23   17   18 1
    24   17   19 1
    25   17   37 1
    26   18   38 1
    27   19   20 1
    28   19   21 1
    29   19   39 1
    30   20   40 1
    31   21   22 1
    32   21   41 1
    33   22   23 ar
    34   22   31 ar
    35   23   24 ar
    36   23   42 1
    37   24   25 ar
    38   25   26 ar
    39   25   31 ar
    40   26   27 2
    41   26   28 ar
    42   27   43 1
    43   28   29 ar
    44   28   45 1
    45   29   30 ar
    46   29   44 1
    47   30   31 ar
@<TRIPOS>SUBSTRUCTURE
     1 ATP         1 GROUP 0 A     ****
@<TRIPOS>MOLECULE
[[[3,4-dihydroxy-5-(6-imino-1~{H}-purin-9-yl)tetrahydrofuran-2-yl]methoxy-hydroxy-phosphoryl]oxy-oxido-phosphoryl] hydrogen phosphate
   45    47     1     0     0
SMALL
USER_CHARGES

@<TRIPOS>ATOM
      1 PG         -3.9387    4.5271    3.7079 P.3       1 ATP         1.5414
      2 O1G        -5.3486    4.2011    3.2681 O.co2     1 ATP        -0.8562
      3 O2G        -3.6558    5.7242    4.5879 O.co2     1 ATP        -0.8562
      4 O3G        -3.2958    3.2016    4.4123 O.3       1 ATP        -0.7907
      5 PB         -2.9612    5.6540    1.1513 P.3       1 ATP         1.6574
      6 O1B        -4.2347    5.4818    0.3535 O.co2     1 ATP        -0.8530
      7 O2B        -2.5461    7.0111    1.6745 O.co2     1 ATP        -0.8530
      8 O3B        -2.9770    4.5959    2.3930 O.3       1 ATP        -0.8003
      9 PA         -0.1726    4.7809    0.6792 P.3       1 ATP         1.7415
     10 O1A         0.5730    6.0334    1.0383 O.2       1 ATP        -0.8661
     11 O2A         0.4132    4.0050   -0.6141 O.3       1 ATP        -0.8077
     12 O3A        -1.7251    5.0214    0.2936 O.3       1 ATP        -0.7685
     13 O5'        -0.2068    3.6554    1.8412 O.3       1 ATP        -0.5590
     14 C5'        -0.8811    2.4285    1.6206 C.3       1 ATP         0.1960
     15 C4'        -0.1994    1.3333    2.4288 C.3       1 ATP         0.0976
     16 O4'        -1.1285    0.2356    2.5840 O.3       1 ATP        -0.3865
     17 C3'         1.0324    0.7610    1.7344 C.3       1 ATP         0.0901
     18 O3'         1.9175    0.2377    2.7247 O.3       1 ATP        -0.5889
     19 C2'         0.4468   -0.3802    0.9263 C.3       1 ATP         0.0574
     20 O2'         1.3993   -1.3703    0.5961 O.3       1 ATP        -0.5923
     21 C1'        -0.6159   -0.9100    1.8769 C.3       1 ATP         0.2452
     22 N9         -1.7127   -1.6108    1.2130 N.pl3     1 ATP        -0.1834
     23 C8         -2.8662   -1.0361    0.7388 C.ar      1 ATP         0.4338
     24 N7         -3.6774   -1.9166    0.1867 N.2       1 ATP        -0.6101
     25 C5         -3.0159   -3.1045    0.3122 C.ar      1 ATP         0.2154
     26 C6         -3.4377   -4.4169   -0.1199 C.ar      1 ATP         0.6130
     27 N6         -4.5720   -4.5691   -0.7080 N.2       1 ATP        -0.8165
     28 N1         -2.4600   -5.3463    0.2071 N.pl3     1 ATP        -0.8617
     29 C2         -1.2595   -5.0554    0.8515 C.ar      1 ATP         0.6151
     30 N3         -0.8555   -3.8803    1.2516 N.2       1 ATP        -0.5797
     31 C4         -1.7946   -2.9457    0.9448 C.ar      1 ATP         0.0328
     32 HOG3       -2.3776    3.2534    4.7536 H         1 ATP         0.4197
     33 HOA2        1.3396    3.6830   -0.5945 H         1 ATP         0.4550
     34 H5'1       -1.9259    2.5372    1.9293 H         1 ATP         0.0431
     35 H5'2       -0.8477    2.1923    0.5521 H         1 ATP         0.0431
     36 H4'         0.0402    1.7079    3.4342 H         1 ATP         0.1325
     37 H3'         1.5907    1.4859    1.1353 H         1 ATP         0.0782
     38 HO3'        2.6839   -0.1150    2.2479 H         1 ATP         0.4062
     39 H2'        -0.0017    0.0018    0.0005 H         1 ATP         0.0689
     40 HO2'        2.0953   -0.9375    0.0709 H         1 ATP         0.4089
     41 H1'        -0.1998   -1.6319    2.6178 H         1 ATP         0.1098
     42 H8         -3.0558    0.0252    0.8256 H         1 ATP         0.0929
     43 HN62       -4.7047   -5.5592   -0.9421 H         1 ATP         0.3678
     44 H2         -0.6372   -5.9505    1.0077 H         1 ATP         0.0383
     45 H45        -2.6338   -6.3155   -0.0469 H         1 ATP         0.4286
@<TRIPOS>BOND
     1    1    2 2
     2    1    3 1
     3    1    4 1
     4    1    8 1
     5    4   32 1
     6    5    6 2
     7    5    7 1
     8    5    8 1
     9    5   12 1
    10    9   10 2
    11    9   11 1
    12    9   12 1
    13    9   13 1
    14   11   33 1
    15   13   14 1
    16   14   15 1
    17   14   34 1
    18   14   35 1
    19   15   16 1
    20   15   17 1
    21   15   36 1
    22   16   21 1
    23   17   18 1
    24   17   19 1
    25   17   37 1
    26   18   38 1
    27   19   20 1
    28   19   21 1
    29   19   39 1
    30   20   40 1
    31   21   22 1
    32   21   41 1
    33   22   23 ar
    34   22   31 ar
    35   23   24 ar
    36   23   42 1
    37   24   25 ar
    38   25   26 ar
    39   25   31 ar
    40   26   27 2
    41   26   28 ar
    42   27   43 1
    43   28   29 ar
    44   28   45 1
    45   29   30 ar
    46   29   44 1
    47   30   31 ar
@<TRIPOS>SUBSTRUCTURE
     1 ATP         1 GROUP 0 A     ****
@<TRIPOS>MOLECULE
[[[3,4-dihydroxy-5-(6-imino-1~{H}-purin-9-yl)tetrahydrofuran-2-yl]methoxy-hydroxy-phosphoryl]oxy-oxido-phosphoryl] hydrogen phosphate
   45    47     1     0     0
SMALL
USER_CHARGES

@<TRIPOS>ATOM
      1 PG         -2.7007    8.6517   -0.1311 P.3       1 ATP         1.5414
      2 O1G        -4.0257    9.1782    0.3736 O.co2     1 ATP        -0.8562
      3 O2G        -2.2839    8.8478   -1.5716 O.co2     1 ATP        -0.8562
      4 O3G        -1.5143    9.2224    0.8349 O.3       1 ATP        -0.7907
      5 PB         -3.4337    5.7888   -0.2995 P.3       1 ATP         1.6574
      6 O1B        -4.8607    5.9158    0.1854 O.co2     1 ATP        -0.8530
      7 O2B        -3.1232    5.5870   -1.7660 O.co2     1 ATP        -0.8530
      8 O3B        -2.5823    7.0696    0.2450 O.3       1 ATP        -0.8003
      9 PA         -2.5525    4.3888    2.1550 P.3       1 ATP         1.7415
     10 O1A        -3.7892    4.7207    2.9387 O.2       1 ATP        -0.8661
     11 O2A        -1.2618    5.2871    2.5359 O.3       1 ATP        -0.8077
     12 O3A        -2.6994    4.6113    0.5595 O.3       1 ATP        -0.7685
     13 O5'        -2.0397    2.8622    2.3122 O.3       1 ATP        -0.5590
     14 C5'        -0.8811    2.4285    1.6206 C.3       1 ATP         0.1960
     15 C4'        -0.1994    1.3333    2.4288 C.3       1 ATP         0.0976
     16 O4'        -1.1285    0.2356    2.5840 O.3       1 ATP        -0.3865
     17 C3'         1.0324    0.7610    1.7344 C.3       1 ATP         0.0901
     18 O3'         1.9175    0.2377    2.7247 O.3       1 ATP        -0.5889
     19 C2'         0.4468   -0.3802    0.9263 C.3       1 ATP         0.0574
     20 O2'         1.3993   -1.3703    0.5961 O.3       1 ATP        -0.5923
     21 C1'        -0.6159   -0.9100    1.8769 C.3       1 ATP         0.2452
     22 N9         -1.7127   -1.6108    1.2130 N.pl3     1 ATP        -0.1834
     23 C8         -2.5485   -1.0808    0.2609 C.ar      1 ATP         0.4338
     24 N7         -3.4476   -1.9486   -0.1593 N.2       1 ATP        -0.6101
     25 C5         -3.1762   -3.0816    0.5530 C.ar      1 ATP         0.2154
     26 C6         -3.8510   -4.3579    0.5006 C.ar      1 ATP         0.6130
     27 N6         -4.8468   -4.5293   -0.2961 N.2       1 ATP        -0.8165
     28 N1         -3.2499   -5.2342    1.3937 N.pl3     1 ATP        -0.8617
     29 C2         -2.1646   -4.9275    2.2116 C.ar      1 ATP         0.6151
     30 N3         -1.5382   -3.7840    2.2778 N.2       1 ATP        -0.5797
     31 C4         -2.1054   -2.9018    1.4120 C.ar      1 ATP         0.0328
     32 HOG3       -0.5879    8.9678    0.6364 H         1 ATP         0.4197
     33 HOA2       -1.3110    6.2601    2.4220 H         1 ATP         0.4550
     34 H5'1       -1.1761    2.0499    0.6365 H         1 ATP         0.0431
     35 H5'2       -0.2073    3.2811    1.4874 H         1 ATP         0.0431
     36 H4'         0.0402    1.7079    3.4342 H         1 ATP         0.1325
     37 H3'         1.5907    1.4859    1.1353 H         1 ATP         0.0782
     38 HO3'        2.1521    0.9800    3.3017 H         1 ATP         0.4062
     39 H2'        -0.0017    0.0018    0.0005 H         1 ATP         0.0689
     40 HO2'        0.9369   -2.0558    0.0825 H         1 ATP         0.4089
     41 H1'        -0.1998   -1.6319    2.6178 H         1 ATP         0.1098
     42 H8         -2.4515   -0.0599   -0.0829 H         1 ATP         0.0929
     43 HN62       -5.1990   -5.4882   -0.2005 H         1 ATP         0.3678
     44 H2         -1.8555   -5.7783    2.8388 H         1 ATP         0.0383
     45 H45        -3.6312   -6.1750    1.4526 H         1 ATP         0.4286
@<TRIPOS>BOND
     1    1    2 2
     2    1    3 1
     3    1    4 1
     4    1    8 1
     5    4   32 1
     6    5    6 2
     7    5    7 1
     8    5    8 1
     9    5   12 1
    10    9   10 2
    11    9   11 1
    12    9   12 1
    13    9   13 1
    14   11   33 1
    15   13   14 1
    16   14   15 1
    17   14   34 1
    18   14   35 1
    19   15   16 1
    20   15   17 1
    21   15   36 1
    22   16   21 1
    23   17   18 1
    24   17   19 1
    25   17   37 1
    26   18   38 1
    27   19   20 1
    28   19   21 1
    29   19   39 1
    30   20   40 1
    31   21   22 1
    32   21   41 1
    33   22   23 ar
    34   22   31 ar
    35   23   24 ar
    36   23   42 1
    37   24   25 ar
    38   25   26 ar
    39   25   31 ar
    40   26   27 2
    41   26   28 ar
    42   27   43 1
    43   28   29 ar
    44   28   45 1
    45   29   30 ar
    46   29   44 1
    47   30   31 ar
@<TRIPOS>SUBSTRUCTURE
     1 ATP         1 GROUP 0 A     ****
@<TRIPOS>MOLECULE
[[[3,4-dihydroxy-5-(6-imino-1~{H}-purin-9-yl)tetrahydrofuran-2-yl]methoxy-hydroxy-phosphoryl]oxy-oxido-phosphoryl] hydrogen phosphate
   45    47     1     0     0
SMALL
USER_CHARGES

@<TRIPOS>ATOM
      1 PG          7.7755    0.4812    3.0026 P.3       1 ATP         1.5414
      2 O1G         6.6543    0.3485    4.0090 O.co2     1 ATP        -0.8562
      3 O2G         8.0208    1.7867    2.2795 O.co2     1 ATP        -0.8562
      4 O3G         9.1685    0.0119    3.7135 O.3       1 ATP        -0.7907
      5 PB          6.5028   -0.9926    0.7732 P.3       1 ATP         1.6574
      6 O1B         6.9512   -2.1468   -0.0954 O.co2     1 ATP        -0.8530
      7 O2B         5.1471   -1.0020    1.4440 O.co2     1 ATP        -0.8530
      8 O3B         7.6454   -0.7172    1.9047 O.3       1 ATP        -0.8003
      9 PA          5.8742    0.9198   -1.3967 P.3       1 ATP         1.7415
     10 O1A         6.0134    0.0298   -2.5976 O.2       1 ATP        -0.8661
     11 O2A         6.4679    2.4111   -1.6008 O.3       1 ATP        -0.8077
     12 O3A         6.6551    0.3880   -0.0837 O.3       1 ATP        -0.7685
     13 O5'         4.3520    1.1579   -0.9021 O.3       1 ATP        -0.5590
     14 C5'         4.0922    1.9801    0.2227 C.3       1 ATP         0.1960
     15 C4'         2.5944    2.0310    0.4653 C.3       1 ATP         0.0976
     16 O4'         1.9327    2.5740   -0.6889 O.3       1 ATP        -0.3865
     17 C3'         1.9685    0.6634    0.6767 C.3       1 ATP         0.0901
     18 O3'         2.1425    0.1975    1.9977 O.3       1 ATP        -0.5889
     19 C2'         0.5176    0.9128    0.3099 C.3       1 ATP         0.0574
     20 O2'        -0.2103    1.4454    1.4152 O.3       1 ATP        -0.5923
     21 C1'         0.6219    1.9765   -0.7844 C.3       1 ATP         0.2452
     22 N9          0.4237    1.4496   -2.1357 N.pl3     1 ATP        -0.1834
     23 C8          1.4069    0.9710   -2.9662 C.ar      1 ATP         0.4338
     24 N7          0.9316    0.5623   -4.1260 N.2       1 ATP        -0.6101
     25 C5         -0.4120    0.7884   -4.0344 C.ar      1 ATP         0.2154
     26 C6         -1.4353    0.5283   -5.0204 C.ar      1 ATP         0.6130
     27 N6         -1.1199    0.0176   -6.1586 N.2       1 ATP        -0.8165
     28 N1         -2.6704    0.9095   -4.5147 N.pl3     1 ATP        -0.8617
     29 C2         -2.8863    1.4571   -3.2520 C.ar      1 ATP         0.6151
     30 N3         -1.9805    1.7017   -2.3442 N.2       1 ATP        -0.5797
     31 C4         -0.7561    1.3381   -2.8112 C.ar      1 ATP         0.0328
     32 HOG3        9.9947    0.0406    3.1854 H         1 ATP         0.4197
     33 HOA2        7.4193    2.5175   -1.8146 H         1 ATP         0.4550
     34 H5'1        4.6066    1.5622    1.0942 H         1 ATP         0.0431
     35 H5'2        4.4821    2.9841    0.0260 H         1 ATP         0.0431
     36 H4'         2.3752    2.7029    1.3156 H         1 ATP         0.1325
     37 H3'         2.4336   -0.1217   -0.0016 H         1 ATP         0.0782
     38 HO3'        3.0987    0.1465    2.1461 H         1 ATP         0.4062
     39 H2'         0.0316    0.0155   -0.0339 H         1 ATP         0.0689
     40 HO2'       -0.1608    0.7921    2.1351 H         1 ATP         0.4089
     41 H1'        -0.1474    2.7798   -0.6651 H         1 ATP         0.1098
     42 H8          2.4466    0.9468   -2.6694 H         1 ATP         0.0929
     43 HN62       -1.9661   -0.0965   -6.7275 H         1 ATP         0.3678
     44 H2         -3.9481    1.6825   -3.0660 H         1 ATP         0.0383
     45 H45        -3.4814    0.7753   -5.1133 H         1 ATP         0.4286
@<TRIPOS>BOND
     1    1    2 2
     2    1    3 1
     3    1    4 1
     4    1    8 1
     5    4   32 1
     6    5    6 2
     7    5    7 1
     8    5    8 1
     9    5   12 1
    10    9   10 2
    11    9   11 1
    12    9   12 1
    13    9   13 1
    14   11   33 1
    15   13   14 1
    16   14   15 1
    17   14   34 1
    18   14   35 1
    19   15   16 1
    20   15   17 1
    21   15   36 1
    22   16   21 1
    23   17   18 1
    24   17   19 1
    25   17   37 1
    26   18   38 1
    27   19   20 1
    28   19   21 1
    29   19   39 1
    30   20   40 1
    31   21   22 1
    32   21   41 1
    33   22   23 ar
    34   22   31 ar
    35   23   24 ar
    36   23   42 1
    37   24   25 ar
    38   25   26 ar
    39   25   31 ar
    40   26   27 2
    41   26   28 ar
    42   27   43 1
    43   28   29 ar
    44   28   45 1
    45   29   30 ar
    46   29   44 1
    47   30   31 ar
@<TRIPOS>SUBSTRUCTURE
     1 ATP         1 GROUP 0 A     ****
@<TRIPOS>MOLECULE
[[[3,4-dihydroxy-5-(6-imino-1~{H}-purin-9-yl)tetrahydrofuran-2-yl]methoxy-hydroxy-phosphoryl]oxy-oxido-phosphoryl] hydrogen phosphate
   45    47     1     0     0
SMALL
USER_CHARGES

@<TRIPOS>ATOM
      1 PG          2.7655    5.2044    0.2026 P.3       1 ATP         1.5414
      2 O1G         2.3371    4.0824    1.1219 O.co2     1 ATP        -0.8562
      3 O2G         2.4336    6.6441    0.5258 O.co2     1 ATP        -0.8562
      4 O3G         4.3751    5.0857   -0.0452 O.3       1 ATP        -0.7907
      5 PB          0.7506    4.7840   -1.9248 P.3       1 ATP         1.6574
      6 O1B         0.0200    6.0659   -1.5924 O.co2     1 ATP        -0.8530
      7 O2B         0.8332    4.2799   -3.3485 O.co2     1 ATP        -0.8530
      8 O3B         2.2598    4.8702   -1.3111 O.3       1 ATP        -0.8003
      9 PA         -1.2970    2.8890   -0.9362 P.3       1 ATP         1.7415
     10 O1A        -1.6943    2.2183   -2.2191 O.2       1 ATP        -0.8661
     11 O2A        -2.2764    4.0950   -0.4842 O.3       1 ATP        -0.8077
     12 O3A         0.1591    3.5924   -0.9794 O.3       1 ATP        -0.7685
     13 O5'        -1.2435    1.9111    0.3519 O.3       1 ATP        -0.5590
     14 C5'        -0.8811    2.4285    1.6206 C.3       1 ATP         0.1960
     15 C4'        -0.1994    1.3333    2.4288 C.3       1 ATP         0.0976
     16 O4'        -1.1285    0.2356    2.5840 O.3       1 ATP        -0.3865
     17 C3'         1.0324    0.7610    1.7344 C.3       1 ATP         0.0901
     18 O3'         1.9175    0.2377    2.7247 O.3       1 ATP        -0.5889
     19 C2'         0.4468   -0.3802    0.9263 C.3       1 ATP         0.0574
     20 O2'         1.3993   -1.3703    0.5961 O.3       1 ATP        -0.5923
     21 C1'        -0.6159   -0.9100    1.8769 C.3       1 ATP         0.2452
     22 N9         -1.7127   -1.6108    1.2130 N.pl3     1 ATP        -0.1834
     23 C8         -2.8662   -1.0361    0.7388 C.ar      1 ATP         0.4338
     24 N7         -3.6774   -1.9166    0.1867 N.2       1 ATP        -0.6101
     25 C5         -3.0159   -3.1045    0.3122 C.ar      1 ATP         0.2154
     26 C6         -3.4377   -4.4169   -0.1199 C.ar      1 ATP         0.6130
     27 N6         -4.5720   -4.5691   -0.7080 N.2       1 ATP        -0.8165
     28 N1         -2.4600   -5.3463    0.2071 N.pl3     1 ATP        -0.8617
     29 C2         -1.2595   -5.0554    0.8515 C.ar      1 ATP         0.6151
     30 N3         -0.8555   -3.8803    1.2516 N.2       1 ATP        -0.5797
     31 C4         -1.7946   -2.9457    0.9448 C.ar      1 ATP         0.0328
     32 HOG3        4.8080    5.7478   -0.6253 H         1 ATP         0.4197
     33 HOA2       -2.3876    4.8648   -1.0818 H         1 ATP         0.4550
     34 H5'1       -0.2031    3.2762    1.4776 H         1 ATP         0.0431
     35 H5'2       -1.7839    2.7764    2.1331 H         1 ATP         0.0431
     36 H4'         0.0402    1.7079    3.4342 H         1 ATP         0.1325
     37 H3'         1.5907    1.4859    1.1353 H         1 ATP         0.0782
     38 HO3'        2.6839   -0.1150    2.2479 H         1 ATP         0.4062
     39 H2'        -0.0017    0.0018    0.0005 H         1 ATP         0.0689
     40 HO2'        2.0953   -0.9375    0.0709 H         1 ATP         0.4089
     41 H1'        -0.1998   -1.6319    2.6178 H         1 ATP         0.1098
     42 H8         -3.0558    0.0252    0.8256 H         1 ATP         0.0929
     43 HN62       -4.7047   -5.5592   -0.9421 H         1 ATP         0.3678
     44 H2         -0.6372   -5.9505    1.0077 H         1 ATP         0.0383
     45 H45        -2.6338   -6.3155   -0.0469 H         1 ATP         0.4286
@<TRIPOS>BOND
     1    1    2 2
     2    1    3 1
     3    1    4 1
     4    1    8 1
     5    4   32 1
     6    5    6 2
     7    5    7 1
     8    5    8 1
     9    5   12 1
    10    9   10 2
    11    9   11 1
    12    9   12 1
    13    9   13 1
    14   11   33 1
    15   13   14 1
    16   14   15 1
    17   14   34 1
    18   14   35 1
    19   15   16 1
    20   15   17 1
    21   15   36 1
    22   16   21 1
    23   17   18 1
    24   17   19 1
    25   17   37 1
    26   18   38 1
    27   19   20 1
    28   19   21 1
    29   19   39 1
    30   20   40 1
    31   21   22 1
    32   21   41 1
    33   22   23 ar
    34   22   31 ar
    35   23   24 ar
    36   23   42 1
    37   24   25 ar
    38   25   26 ar
    39   25   31 ar
    40   26   27 2
    41   26   28 ar
    42   27   43 1
    43   28   29 ar
    44   28   45 1
    45   29   30 ar
    46   29   44 1
    47   30   31 ar
@<TRIPOS>SUBSTRUCTURE
     1 ATP         1 GROUP 0 A     ****
@<TRIPOS>MOLECULE
[[[3,4-dihydroxy-5-(6-imino-1~{H}-purin-9-yl)tetrahydrofuran-2-yl]methoxy-hydroxy-phosphoryl]oxy-oxido-phosphoryl] hydrogen phosphate
   45    47     1     0     0
SMALL
USER_CHARGES

@<TRIPOS>ATOM
      1 PG         -5.2851    6.5301   -0.7893 P.3       1 ATP         1.5414
      2 O1G        -5.0283    7.9796   -1.1365 O.co2     1 ATP        -0.8562
      3 O2G        -6.3820    6.1448    0.1781 O.co2     1 ATP        -0.8562
      4 O3G        -5.4991    5.6950   -2.1760 O.3       1 ATP        -0.7907
      5 PB         -2.4287    5.7938   -1.0365 P.3       1 ATP         1.6574
      6 O1B        -2.5446    4.9477   -2.2849 O.co2     1 ATP        -0.8530
      7 O2B        -1.8633    7.1955   -1.0940 O.co2     1 ATP        -0.8530
      8 O3B        -3.8863    5.8463   -0.3054 O.3       1 ATP        -0.8003
      9 PA         -0.0705    4.4476    0.1413 P.3       1 ATP         1.7415
     10 O1A         0.9358    5.5605    0.0915 O.2       1 ATP        -0.8661
     11 O2A         0.0245    3.4081   -1.0950 O.3       1 ATP        -0.8077
     12 O3A        -1.6095    4.9430    0.0898 O.3       1 ATP        -0.7685
     13 O5'         0.0171    3.5129    1.4593 O.3       1 ATP        -0.5590
     14 C5'        -0.8811    2.4285    1.6206 C.3       1 ATP         0.1960
     15 C4'        -0.1994    1.3333    2.4288 C.3       1 ATP         0.0976
     16 O4'        -1.1285    0.2356    2.5840 O.3       1 ATP        -0.3865
     17 C3'         1.0324    0.7610    1.7344 C.3       1 ATP         0.0901
     18 O3'         1.9175    0.2377    2.7247 O.3       1 ATP        -0.5889
     19 C2'         0.4468   -0.3802    0.9263 C.3       1 ATP         0.0574
     20 O2'         1.3993   -1.3703    0.5961 O.3       1 ATP        -0.5923
     21 C1'        -0.6159   -0.9100    1.8769 C.3       1 ATP         0.2452
     22 N9         -1.7127   -1.6108    1.2130 N.pl3     1 ATP        -0.1834
     23 C8         -2.8662   -1.0361    0.7388 C.ar      1 ATP         0.4338
     24 N7         -3.6774   -1.9166    0.1867 N.2       1 ATP        -0.6101
     25 C5         -3.0159   -3.1045    0.3122 C.ar      1 ATP         0.2154
     26 C6         -3.4377   -4.4169   -0.1199 C.ar      1 ATP         0.6130
     27 N6         -4.5720   -4.5691   -0.7080 N.2       1 ATP        -0.8165
     28 N1         -2.4600   -5.3463    0.2071 N.pl3     1 ATP        -0.8617
     29 C2         -1.2595   -5.0554    0.8515 C.ar      1 ATP         0.6151
     30 N3         -0.8555   -3.8803    1.2516 N.2       1 ATP        -0.5797
     31 C4         -1.7946   -2.9457    0.9448 C.ar      1 ATP         0.0328
     32 HOG3       -4.7680    5.6811   -2.8300 H         1 ATP         0.4197
     33 HOA2       -0.1001    3.7446   -2.0080 H         1 ATP         0.4550
     34 H5'1       -1.7775    2.7843    2.1389 H         1 ATP         0.0431
     35 H5'2       -1.1658    2.0534    0.6322 H         1 ATP         0.0431
     36 H4'         0.0402    1.7079    3.4342 H         1 ATP         0.1325
     37 H3'         1.5907    1.4859    1.1353 H         1 ATP         0.0782
     38 HO3'        2.6839   -0.1150    2.2479 H         1 ATP         0.4062
     39 H2'        -0.0017    0.0018    0.0005 H         1 ATP         0.0689
     40 HO2'        2.0953   -0.9375    0.0709 H         1 ATP         0.4089
     41 H1'        -0.1998   -1.6319    2.6178 H         1 ATP         0.1098
     42 H8         -3.0558    0.0252    0.8256 H         1 ATP         0.0929
     43 HN62       -4.7047   -5.5592   -0.9421 H         1 ATP         0.3678
     44 H2         -0.6372   -5.9505    1.0077 H         1 ATP         0.0383
     45 H45        -2.6338   -6.3155   -0.0469 H         1 ATP         0.4286
@<TRIPOS>BOND
     1    1    2 2
     2    1    3 1
     3    1    4 1
     4    1    8 1
     5    4   32 1
     6    5    6 2
     7    5    7 1
     8    5    8 1
     9    5   12 1
    10    9   10 2
    11    9   11 1
    12    9   12 1
    13    9   13 1
    14   11   33 1
    15   13   14 1
    16   14   15 1
    17   14   34 1
    18   14   35 1
    19   15   16 1
    20   15   17 1
    21   15   36 1
    22   16   21 1
    23   17   18 1
    24   17   19 1
    25   17   37 1
    26   18   38 1
    27   19   20 1
    28   19   21 1
    29   19   39 1
    30   20   40 1
    31   21   22 1
    32   21   41 1
    33   22   23 ar
    34   22   31 ar
    35   23   24 ar
    36   23   42 1
    37   24   25 ar
    38   25   26 ar
    39   25   31 ar
    40   26   27 2
    41   26   28 ar
    42   27   43 1
    43   28   29 ar
    44   28   45 1
    45   29   30 ar
    46   29   44 1
    47   30   31 ar
@<TRIPOS>SUBSTRUCTURE
     1 ATP         1 GROUP 0 A     ****
@<TRIPOS>MOLECULE
[[[3,4-dihydroxy-5-(6-imino-1~{H}-purin-9-yl)tetrahydrofuran-2-yl]methoxy-hydroxy-phosphoryl]oxy-oxido-phosphoryl] hydrogen phosphate
   45    47     1     0     0
SMALL
USER_CHARGES

@<TRIPOS>ATOM
      1 PG         -5.1080    5.6130    4.2383 P.3       1 ATP         1.5414
      2 O1G        -5.1979    5.7354    2.7335 O.co2     1 ATP        -0.8562
      3 O2G        -4.9855    6.8411    5.1124 O.co2     1 ATP        -0.8562
      4 O3G        -6.3750    4.7267    4.7630 O.3       1 ATP        -0.7907
      5 PB         -2.2964    4.7029    4.4090 P.3       1 ATP         1.6574
      6 O1B        -1.8335    6.0012    5.0316 O.co2     1 ATP        -0.8530
      7 O2B        -1.6518    3.3861    4.7807 O.co2     1 ATP        -0.8530
      8 O3B        -3.9098    4.5728    4.6138 O.3       1 ATP        -0.8003
      9 PA         -1.0201    5.0520    1.7613 P.3       1 ATP         1.7415
     10 O1A        -0.1913    6.2779    2.0142 O.2       1 ATP        -0.8661
     11 O2A        -1.7336    5.0186    0.3095 O.3       1 ATP        -0.8077
     12 O3A        -2.2583    4.8663    2.7856 O.3       1 ATP        -0.7685
     13 O5'        -0.2068    3.6554    1.8412 O.3       1 ATP        -0.5590
     14 C5'        -0.8811    2.4285    1.6206 C.3       1 ATP         0.1960
     15 C4'        -0.1994    1.3333    2.4288 C.3       1 ATP         0.0976
     16 O4'        -1.1285    0.2356    2.5840 O.3       1 ATP        -0.3865
     17 C3'         1.0324    0.7610    1.7344 C.3       1 ATP         0.0901
     18 O3'         1.9175    0.2377    2.7247 O.3       1 ATP        -0.5889
     19 C2'         0.4468   -0.3802    0.9263 C.3       1 ATP         0.0574
     20 O2'         1.3993   -1.3703    0.5961 O.3       1 ATP        -0.5923
     21 C1'        -0.6159   -0.9100    1.8769 C.3       1 ATP         0.2452
     22 N9         -1.7127   -1.6108    1.2130 N.pl3     1 ATP        -0.1834
     23 C8         -2.5485   -1.0808    0.2609 C.ar      1 ATP         0.4338
     24 N7         -3.4476   -1.9486   -0.1593 N.2       1 ATP        -0.6101
     25 C5         -3.1762   -3.0816    0.5530 C.ar      1 ATP         0.2154
     26 C6         -3.8510   -4.3579    0.5006 C.ar      1 ATP         0.6130
     27 N6         -4.8468   -4.5293   -0.2961 N.2       1 ATP        -0.8165
     28 N1         -3.2499   -5.2342    1.3937 N.pl3     1 ATP        -0.8617
     29 C2         -2.1646   -4.9275    2.2116 C.ar      1 ATP         0.6151
     30 N3         -1.5382   -3.7840    2.2778 N.2       1 ATP        -0.5797
     31 C4         -2.1054   -2.9018    1.4120 C.ar      1 ATP         0.0328
     32 HOG3       -6.4589    4.5565    5.7255 H         1 ATP         0.4197
     33 HOA2       -1.1730    5.0459   -0.4950 H         1 ATP         0.4550
     34 H5'1       -1.9259    2.5372    1.9293 H         1 ATP         0.0431
     35 H5'2       -0.8477    2.1923    0.5521 H         1 ATP         0.0431
     36 H4'         0.0402    1.7079    3.4342 H         1 ATP         0.1325
     37 H3'         1.5907    1.4859    1.1353 H         1 ATP         0.0782
     38 HO3'        2.6839   -0.1150    2.2479 H         1 ATP         0.4062
     39 H2'        -0.0017    0.0018    0.0005 H         1 ATP         0.0689
     40 HO2'        2.0953   -0.9375    0.0709 H         1 ATP         0.4089
     41 H1'        -0.1998   -1.6319    2.6178 H         1 ATP         0.1098
     42 H8         -2.4515   -0.0599   -0.0829 H         1 ATP         0.0929
     43 HN62       -5.1990   -5.4882   -0.2005 H         1 ATP         0.3678
     44 H2         -1.8555   -5.7783    2.8388 H         1 ATP         0.0383
     45 H45        -3.6312   -6.1750    1.4526 H         1 ATP         0.4286
@<TRIPOS>BOND
     1    1    2 2
     2    1    3 1
     3    1    4 1
     4    1    8 1
     5    4   32 1
     6    5    6 2
     7    5    7 1
     8    5    8 1
     9    5   12 1
    10    9   10 2
    11    9   11 1
    12    9   12 1
    13    9   13 1
    14   11   33 1
    15   13   14 1
    16   14   15 1
    17   14   34 1
    18   14   35 1
    19   15   16 1
    20   15   17 1
    21   15   36 1
    22   16   21 1
    23   17   18 1
    24   17   19 1
    25   17   37 1
    26   18   38 1
    27   19   20 1
    28   19   21 1
    29   19   39 1
    30   20   40 1
    31   21   22 1
    32   21   41 1
    33   22   23 ar
    34   22   31 ar
    35   23   24 ar
    36   23   42 1
    37   24   25 ar
    38   25   26 ar
    39   25   31 ar
    40   26   27 2
    41   26   28 ar
    42   27   43 1
    43   28   29 ar
    44   28   45 1
    45   29   30 ar
    46   29   44 1
    47   30   31 ar
@<TRIPOS>SUBSTRUCTURE
     1 ATP         1 GROUP 0 A     ****
@<TRIPOS>MOLECULE
[[[3,4-dihydroxy-5-(6-imino-1~{H}-purin-9-yl)tetrahydrofuran-2-yl]methoxy-hydroxy-phosphoryl]oxy-oxido-phosphoryl] hydrogen phosphate
   45    47     1     0     0
SMALL
USER_CHARGES

@<TRIPOS>ATOM
      1 PG          0.7389    4.2761    5.9295 P.3       1 ATP         1.5414
      2 O1G        -0.2394    3.9277    7.0291 O.co2     1 ATP        -0.8562
      3 O2G         1.7462    5.3899    6.1091 O.co2     1 ATP        -0.8562
      4 O3G         1.5372    2.9191    5.4966 O.3       1 ATP        -0.7907
      5 PB         -1.1414    5.7042    4.1443 P.3       1 ATP         1.6574
      6 O1B        -2.3834    5.5516    4.9940 O.co2     1 ATP        -0.8530
      7 O2B        -0.3979    7.0197    4.0789 O.co2     1 ATP        -0.8530
      8 O3B        -0.0872    4.5257    4.5461 O.3       1 ATP        -0.8003
      9 PA         -0.5513    5.0219    1.3252 P.3       1 ATP         1.7415
     10 O1A         0.5022    6.0785    1.1591 O.2       1 ATP        -0.8661
     11 O2A        -1.6139    4.9440    0.1075 O.3       1 ATP        -0.8077
     12 O3A        -1.4932    5.2238    2.6247 O.3       1 ATP        -0.7685
     13 O5'         0.0171    3.5129    1.4593 O.3       1 ATP        -0.5590
     14 C5'        -0.8811    2.4285    1.6206 C.3       1 ATP         0.1960
     15 C4'        -0.1994    1.3333    2.4288 C.3       1 ATP         0.0976
     16 O4'        -1.1285    0.2356    2.5840 O.3       1 ATP        -0.3865
     17 C3'         1.0324    0.7610    1.7344 C.3       1 ATP         0.0901
     18 O3'         1.9175    0.2377    2.7247 O.3       1 ATP        -0.5889
     19 C2'         0.4468   -0.3802    0.9263 C.3       1 ATP         0.0574
     20 O2'         1.3993   -1.3703    0.5961 O.3       1 ATP        -0.5923
     21 C1'        -0.6159   -0.9100    1.8769 C.3       1 ATP         0.2452
     22 N9         -1.7127   -1.6108    1.2130 N.pl3     1 ATP        -0.1834
     23 C8         -2.0868   -2.9137    1.4327 C.ar      1 ATP         0.4338
     24 N7         -3.1125   -3.2756    0.6878 N.2       1 ATP        -0.6101
     25 C5         -3.4079   -2.1580   -0.0391 C.ar      1 ATP         0.2154
     26 C6         -4.4483   -1.9775   -1.0249 C.ar      1 ATP         0.6130
     27 N6         -5.2418   -2.9492   -1.3113 N.2       1 ATP        -0.8165
     28 N1         -4.3937   -0.6823   -1.5211 N.pl3     1 ATP        -0.8617
     29 C2         -3.4770    0.2901   -1.1271 C.ar      1 ATP         0.6151
     30 N3         -2.5289    0.1525   -0.2402 N.2       1 ATP        -0.5797
     31 C4         -2.5564   -1.1096    0.2655 C.ar      1 ATP         0.0328
     32 HOG3        2.2127    2.9809    4.7879 H         1 ATP         0.4197
     33 HOA2       -2.1585    5.7336   -0.0979 H         1 ATP         0.4550
     34 H5'1       -1.7775    2.7843    2.1389 H         1 ATP         0.0431
     35 H5'2       -1.1658    2.0534    0.6322 H         1 ATP         0.0431
     36 H4'         0.0402    1.7079    3.4342 H         1 ATP         0.1325
     37 H3'         1.5907    1.4859    1.1353 H         1 ATP         0.0782
     38 HO3'        2.1521    0.9800    3.3017 H         1 ATP         0.4062
     39 H2'        -0.0017    0.0018    0.0005 H         1 ATP         0.0689
     40 HO2'        2.0953   -0.9375    0.0709 H         1 ATP         0.4089
     41 H1'        -0.1998   -1.6319    2.6178 H         1 ATP         0.1098
     42 H8         -1.5740   -3.5449    2.1457 H         1 ATP         0.0929
     43 HN62       -5.9117   -2.6433   -2.0256 H         1 ATP         0.3678
     44 H2         -3.6225    1.2454   -1.6553 H         1 ATP         0.0383
     45 H45        -5.0794   -0.4231   -2.2258 H         1 ATP         0.4286
@<TRIPOS>BOND
     1    1    2 2
     2    1    3 1
     3    1    4 1
     4    1    8 1
     5    4   32 1
     6    5    6 2
     7    5    7 1
     8    5    8 1
     9    5   12 1
    10    9   10 2
    11    9   11 1
    12    9   12 1
    13    9   13 1
    14   11   33 1
    15   13   14 1
    16   14   15 1
    17   14   34 1
    18   14   35 1
    19   15   16 1
    20   15   17 1
    21   15   36 1
    22   16   21 1
    23   17   18 1
    24   17   19 1
    25   17   37 1
    26   18   38 1
    27   19   20 1
    28   19   21 1
    29   19   39 1
    30   20   40 1
    31   21   22 1
    32   21   41 1
    33   22   23 ar
    34   22   31 ar
    35   23   24 ar
    36   23   42 1
    37   24   25 ar
    38   25   26 ar
    39   25   31 ar
    40   26   27 2
    41   26   28 ar
    42   27   43 1
    43   28   29 ar
    44   28   45 1
    45   29   30 ar
    46   29   44 1
    47   30   31 ar
@<TRIPOS>SUBSTRUCTURE
     1 ATP         1 GROUP 0 A     ****
@<TRIPOS>MOLECULE
[[[3,4-dihydroxy-5-(6-imino-1~{H}-purin-9-yl)tetrahydrofuran-2-yl]methoxy-hydroxy-phosphoryl]oxy-oxido-phosphoryl] hydrogen phosphate
   45    47     1     0     0
SMALL
USER_CHARGES

@<TRIPOS>ATOM
      1 PG         -3.9387    4.5271    3.7079 P.3       1 ATP         1.5414
      2 O1G        -5.3486    4.2011    3.2681 O.co2     1 ATP        -0.8562
      3 O2G        -3.6558    5.7242    4.5879 O.co2     1 ATP        -0.8562
      4 O3G        -3.2958    3.2016    4.4123 O.3       1 ATP        -0.7907
      5 PB         -2.9612    5.6540    1.1513 P.3       1 ATP         1.6574
      6 O1B        -4.2347    5.4818    0.3535 O.co2     1 ATP        -0.8530
      7 O2B        -2.5461    7.0111    1.6745 O.co2     1 ATP        -0.8530
      8 O3B        -2.9770    4.5959    2.3930 O.3       1 ATP        -0.8003
      9 PA         -0.1726    4.7809    0.6792 P.3       1 ATP         1.7415
     10 O1A         0.5730    6.0334    1.0383 O.2       1 ATP        -0.8661
     11 O2A         0.4132    4.0050   -0.6141 O.3       1 ATP        -0.8077
     12 O3A        -1.7251    5.0214    0.2936 O.3       1 ATP        -0.7685
     13 O5'        -0.2068    3.6554    1.8412 O.3       1 ATP        -0.5590
     14 C5'        -0.8811    2.4285    1.6206 C.3       1 ATP         0.1960
     15 C4'        -0.1994    1.3333    2.4288 C.3       1 ATP         0.0976
     16 O4'        -1.1285    0.2356    2.5840 O.3       1 ATP        -0.3865
     17 C3'         1.0324    0.7610    1.7344 C.3       1 ATP         0.0901
     18 O3'         1.9175    0.2377    2.7247 O.3       1 ATP        -0.5889
     19 C2'         0.4468   -0.3802    0.9263 C.3       1 ATP         0.0574
     20 O2'         1.3993   -1.3703    0.5961 O.3       1 ATP        -0.5923
     21 C1'        -0.6159   -0.9100    1.8769 C.3       1 ATP         0.2452
     22 N9         -1.7127   -1.6108    1.2130 N.pl3     1 ATP        -0.1834
     23 C8         -1.7690   -2.9583    0.9549 C.ar      1 ATP         0.4338
     24 N7         -2.8827   -3.3076    0.3418 N.2       1 ATP        -0.6101
     25 C5         -3.5683   -2.1351    0.2017 C.ar      1 ATP         0.2154
     26 C6         -4.8617   -1.9185   -0.4044 C.ar      1 ATP         0.6130
     27 N6         -5.5166   -2.9094   -0.8993 N.2       1 ATP        -0.8165
     28 N1         -5.1837   -0.5701   -0.3344 N.pl3     1 ATP        -0.8617
     29 C2         -4.3821    0.4180    0.2330 C.ar      1 ATP         0.6151
     30 N3         -3.2117    0.2488    0.7860 N.2       1 ATP        -0.5797
     31 C4         -2.8672   -1.0657    0.7327 C.ar      1 ATP         0.0328
     32 HOG3       -2.3776    3.2534    4.7536 H         1 ATP         0.4197
     33 HOA2        1.3396    3.6830   -0.5945 H         1 ATP         0.4550
     34 H5'1       -1.9259    2.5372    1.9293 H         1 ATP         0.0431
     35 H5'2       -0.8477    2.1923    0.5521 H         1 ATP         0.0431
     36 H4'         0.0402    1.7079    3.4342 H         1 ATP         0.1325
     37 H3'         1.5907    1.4859    1.1353 H         1 ATP         0.0782
     38 HO3'        2.6839   -0.1150    2.2479 H         1 ATP         0.4062
     39 H2'        -0.0017    0.0018    0.0005 H         1 ATP         0.0689
     40 HO2'        2.0953   -0.9375    0.0709 H         1 ATP         0.4089
     41 H1'        -0.1998   -1.6319    2.6178 H         1 ATP         0.1098
     42 H8         -0.9697   -3.6300    1.2371 H         1 ATP         0.0929
     43 HN62       -6.4060   -2.5723   -1.2840 H         1 ATP         0.3678
     44 H2         -4.8409    1.4176    0.1757 H         1 ATP         0.0383
     45 H45        -6.0768   -0.2826   -0.7263 H         1 ATP         0.4286
@<TRIPOS>BOND
     1    1    2 2
     2    1    3 1
     3    1    4 1
     4    1    8 1
     5    4   32 1
     6    5    6 2
     7    5    7 1
     8    5    8 1
     9    5   12 1
    10    9   10 2
    11    9   11 1
    12    9   12 1
    13    9   13 1
    14   11   33 1
    15   13   14 1
    16   14   15 1
    17   14   34 1
    18   14   35 1
    19   15   16 1
    20   15   17 1
    21   15   36 1
    22   16   21 1
    23   17   18 1
    24   17   19 1
    25   17   37 1
    26   18   38 1
    27   19   20 1
    28   19   21 1
    29   19   39 1
    30   20   40 1
    31   21   22 1
    32   21   41 1
    33   22   23 ar
    34   22   31 ar
    35   23   24 ar
    36   23   42 1
    37   24   25 ar
    38   25   26 ar
    39   25   31 ar
    40   26   27 2
    41   26   28 ar
    42   27   43 1
    43   28   29 ar
    44   28   45 1
    45   29   30 ar
    46   29   44 1
    47   30   31 ar
@<TRIPOS>SUBSTRUCTURE
     1 ATP         1 GROUP 0 A     ****
@<TRIPOS>MOLECULE
[[[3,4-dihydroxy-5-(6-imino-1~{H}-purin-9-yl)tetrahydrofuran-2-yl]methoxy-hydroxy-phosphoryl]oxy-oxido-phosphoryl] hydrogen phosphate
   45    47     1     0     0
SMALL
USER_CHARGES

@<TRIPOS>ATOM
      1 PG          0.7668    7.7401   -1.7108 P.3       1 ATP         1.5414
      2 O1G         2.1966    7.8507   -1.2301 O.co2     1 ATP        -0.8562
      3 O2G        -0.2547    8.7997   -1.3627 O.co2     1 ATP        -0.8562
      4 O3G         0.7786    7.5430   -3.3317 O.3       1 ATP        -0.7907
      5 PB         -1.2344    5.5593   -1.6740 P.3       1 ATP         1.6574
      6 O1B        -2.3605    6.3282   -1.0194 O.co2     1 ATP        -0.8530
      7 O2B        -1.2464    5.2714   -3.1588 O.co2     1 ATP        -0.8530
      8 O3B         0.1792    6.2782   -1.2910 O.3       1 ATP        -0.8003
      9 PA         -1.9904    2.8591   -0.7259 P.3       1 ATP         1.7415
     10 O1A        -2.3196    2.1913   -2.0295 O.2       1 ATP        -0.8661
     11 O2A        -3.2755    3.4364    0.0698 O.3       1 ATP        -0.8077
     12 O3A        -1.0319    4.1544   -0.8684 O.3       1 ATP        -0.7685
     13 O5'        -1.2435    1.9111    0.3519 O.3       1 ATP        -0.5590
     14 C5'        -0.8811    2.4285    1.6206 C.3       1 ATP         0.1960
     15 C4'        -0.1994    1.3333    2.4288 C.3       1 ATP         0.0976
     16 O4'        -1.1285    0.2356    2.5840 O.3       1 ATP        -0.3865
     17 C3'         1.0324    0.7610    1.7344 C.3       1 ATP         0.0901
     18 O3'         1.9175    0.2377    2.7247 O.3       1 ATP        -0.5889
     19 C2'         0.4468   -0.3802    0.9263 C.3       1 ATP         0.0574
     20 O2'         1.3993   -1.3703    0.5961 O.3       1 ATP        -0.5923
     21 C1'        -0.6159   -0.9100    1.8769 C.3       1 ATP         0.2452
     22 N9         -1.7127   -1.6108    1.2130 N.pl3     1 ATP        -0.1834
     23 C8         -2.8662   -1.0361    0.7388 C.ar      1 ATP         0.4338
     24 N7         -3.6774   -1.9166    0.1867 N.2       1 ATP        -0.6101
     25 C5         -3.0159   -3.1045    0.3122 C.ar      1 ATP         0.2154
     26 C6         -3.4377   -4.4169   -0.1199 C.ar      1 ATP         0.6130
     27 N6         -4.5720   -4.5691   -0.7080 N.2       1 ATP        -0.8165
     28 N1         -2.4600   -5.3463    0.2071 N.pl3     1 ATP        -0.8617
     29 C2         -1.2595   -5.0554    0.8515 C.ar      1 ATP         0.6151
     30 N3         -0.8555   -3.8803    1.2516 N.2       1 ATP        -0.5797
     31 C4         -1.7946   -2.9457    0.9448 C.ar      1 ATP         0.0328
     32 HOG3       -0.0803    7.4550   -3.7974 H         1 ATP         0.4197
     33 HOA2       -3.9837    2.8144    0.3413 H         1 ATP         0.4550
     34 H5'1       -0.2031    3.2762    1.4776 H         1 ATP         0.0431
     35 H5'2       -1.7839    2.7764    2.1331 H         1 ATP         0.0431
     36 H4'         0.0402    1.7079    3.4342 H         1 ATP         0.1325
     37 H3'         1.5907    1.4859    1.1353 H         1 ATP         0.0782
     38 HO3'        2.6839   -0.1150    2.2479 H         1 ATP         0.4062
     39 H2'        -0.0017    0.0018    0.0005 H         1 ATP         0.0689
     40 HO2'        2.0953   -0.9375    0.0709 H         1 ATP         0.4089
     41 H1'        -0.1998   -1.6319    2.6178 H         1 ATP         0.1098
     42 H8         -3.0558    0.0252    0.8256 H         1 ATP         0.0929
     43 HN62       -4.7047   -5.5592   -0.9421 H         1 ATP         0.3678
     44 H2         -0.6372   -5.9505    1.0077 H         1 ATP         0.0383
     45 H45        -2.6338   -6.3155   -0.0469 H         1 ATP         0.4286
@<TRIPOS>BOND
     1    1    2 2
     2    1    3 1
     3    1    4 1
     4    1    8 1
     5    4   32 1
     6    5    6 2
     7    5    7 1
     8    5    8 1
     9    5   12 1
    10    9   10 2
    11    9   11 1
    12    9   12 1
    13    9   13 1
    14   11   33 1
    15   13   14 1
    16   14   15 1
    17   14   34 1
    18   14   35 1
    19   15   16 1
    20   15   17 1
    21   15   36 1
    22   16   21 1
    23   17   18 1
    24   17   19 1
    25   17   37 1
    26   18   38 1
    27   19   20 1
    28   19   21 1
    29   19   39 1
    30   20   40 1
    31   21   22 1
    32   21   41 1
    33   22   23 ar
    34   22   31 ar
    35   23   24 ar
    36   23   42 1
    37   24   25 ar
    38   25   26 ar
    39   25   31 ar
    40   26   27 2
    41   26   28 ar
    42   27   43 1
    43   28   29 ar
    44   28   45 1
    45   29   30 ar
    46   29   44 1
    47   30   31 ar
@<TRIPOS>SUBSTRUCTURE
     1 ATP         1 GROUP 0 A     ****
@<TRIPOS>MOLECULE
[[[3,4-dihydroxy-5-(6-imino-1~{H}-purin-9-yl)tetrahydrofuran-2-yl]methoxy-hydroxy-phosphoryl]oxy-oxido-phosphoryl] hydrogen phosphate
   45    47     1     0     0
SMALL
USER_CHARGES

@<TRIPOS>ATOM
      1 PG         -5.7147    5.9430    0.1040 P.3       1 ATP         1.5414
      2 O1G        -5.8175    7.4491    0.1969 O.co2     1 ATP        -0.8562
      3 O2G        -6.4158    5.0525    1.1056 O.co2     1 ATP        -0.8562
      4 O3G        -6.1595    5.4846   -1.3987 O.3       1 ATP        -0.7907
      5 PB         -2.9612    5.6540    1.1513 P.3       1 ATP         1.6574
      6 O1B        -2.6787    7.1211    1.3869 O.co2     1 ATP        -0.8530
      7 O2B        -3.2795    4.7262    2.3026 O.co2     1 ATP        -0.8530
      8 O3B        -4.1407    5.5237    0.0317 O.3       1 ATP        -0.8003
      9 PA         -0.1726    4.7809    0.6792 P.3       1 ATP         1.7415
     10 O1A         0.5730    6.0334    1.0383 O.2       1 ATP        -0.8661
     11 O2A         0.4132    4.0050   -0.6141 O.3       1 ATP        -0.8077
     12 O3A        -1.7251    5.0214    0.2936 O.3       1 ATP        -0.7685
     13 O5'        -0.2068    3.6554    1.8412 O.3       1 ATP        -0.5590
     14 C5'        -0.8811    2.4285    1.6206 C.3       1 ATP         0.1960
     15 C4'        -0.1994    1.3333    2.4288 C.3       1 ATP         0.0976
     16 O4'        -1.1285    0.2356    2.5840 O.3       1 ATP        -0.3865
     17 C3'         1.0324    0.7610    1.7344 C.3       1 ATP         0.0901
     18 O3'         1.9175    0.2377    2.7247 O.3       1 ATP        -0.5889
     19 C2'         0.4468   -0.3802    0.9263 C.3       1 ATP         0.0574
     20 O2'         1.3993   -1.3703    0.5961 O.3       1 ATP        -0.5923
     21 C1'        -0.6159   -0.9100    1.8769 C.3       1 ATP         0.2452
     22 N9         -1.7127   -1.6108    1.2130 N.pl3     1 ATP        -0.1834
     23 C8         -2.0868   -2.9137    1.4327 C.ar      1 ATP         0.4338
     24 N7         -3.1125   -3.2756    0.6878 N.2       1 ATP        -0.6101
     25 C5         -3.4079   -2.1580   -0.0391 C.ar      1 ATP         0.2154
     26 C6         -4.4483   -1.9775   -1.0249 C.ar      1 ATP         0.6130
     27 N6         -5.2418   -2.9492   -1.3113 N.2       1 ATP        -0.8165
     28 N1         -4.3937   -0.6823   -1.5211 N.pl3     1 ATP        -0.8617
     29 C2         -3.4770    0.2901   -1.1271 C.ar      1 ATP         0.6151
     30 N3         -2.5289    0.1525   -0.2402 N.2       1 ATP        -0.5797
     31 C4         -2.5564   -1.1096    0.2655 C.ar      1 ATP         0.0328
     32 HOG3       -6.1461    4.5286   -1.6182 H         1 ATP         0.4197
     33 HOA2        1.3396    3.6830   -0.5945 H         1 ATP         0.4550
     34 H5'1       -1.9259    2.5372    1.9293 H         1 ATP         0.0431
     35 H5'2       -0.8477    2.1923    0.5521 H         1 ATP         0.0431
     36 H4'         0.0402    1.7079    3.4342 H         1 ATP         0.1325
     37 H3'         1.5907    1.4859    1.1353 H         1 ATP         0.0782
     38 HO3'        2.6839   -0.1150    2.2479 H         1 ATP         0.4062
     39 H2'        -0.0017    0.0018    0.0005 H         1 ATP         0.0689
     40 HO2'        0.9369   -2.0558    0.0825 H         1 ATP         0.4089
     41 H1'        -0.1998   -1.6319    2.6178 H         1 ATP         0.1098
     42 H8         -1.5740   -3.5449    2.1457 H         1 ATP         0.0929
     43 HN62       -5.9117   -2.6433   -2.0256 H         1 ATP         0.3678
     44 H2         -3.6225    1.2454   -1.6553 H         1 ATP         0.0383
     45 H45        -5.0794   -0.4231   -2.2258 H         1 ATP         0.4286
@<TRIPOS>BOND
     1    1    2 2
     2    1    3 1
     3    1    4 1
     4    1    8 1
     5    4   32 1
     6    5    6 2
     7    5    7 1
     8    5    8 1
     9    5   12 1
    10    9   10 2
    11    9   11 1
    12    9   12 1
    13    9   13 1
    14   11   33 1
    15   13   14 1
    16   14   15 1
    17   14   34 1
    18   14   35 1
    19   15   16 1
    20   15   17 1
    21   15   36 1
    22   16   21 1
    23   17   18 1
    24   17   19 1
    25   17   37 1
    26   18   38 1
    27   19   20 1
    28   19   21 1
    29   19   39 1
    30   20   40 1
    31   21   22 1
    32   21   41 1
    33   22   23 ar
    34   22   31 ar
    35   23   24 ar
    36   23   42 1
    37   24   25 ar
    38   25   26 ar
    39   25   31 ar
    40   26   27 2
    41   26   28 ar
    42   27   43 1
    43   28   29 ar
    44   28   45 1
    45   29   30 ar
    46   29   44 1
    47   30   31 ar
@<TRIPOS>SUBSTRUCTURE
     1 ATP         1 GROUP 0 A     ****
@<TRIPOS>MOLECULE
[[[3,4-dihydroxy-5-(6-imino-1~{H}-purin-9-yl)tetrahydrofuran-2-yl]methoxy-hydroxy-phosphoryl]oxy-oxido-phosphoryl] hydrogen phosphate
   45    47     1     0     0
SMALL
USER_CHARGES

@<TRIPOS>ATOM
      1 PG         -3.9499    7.0979    4.5008 P.3       1 ATP         1.5414
      2 O1G        -3.4491    8.5249    4.5222 O.co2     1 ATP        -0.8562
      3 O2G        -4.6076    6.4863    5.7177 O.co2     1 ATP        -0.8562
      4 O3G        -4.9522    6.9194    3.2242 O.3       1 ATP        -0.7907
      5 PB         -1.3291    5.7397    4.7216 P.3       1 ATP         1.6574
      6 O1B        -0.4622    6.9782    4.7703 O.co2     1 ATP        -0.8530
      7 O2B        -1.6202    4.9417    5.9730 O.co2     1 ATP        -0.8530
      8 O3B        -2.7430    6.1213    4.0026 O.3       1 ATP        -0.8003
      9 PA         -0.3718    4.9776    2.0264 P.3       1 ATP         1.7415
     10 O1A         0.6640    6.0385    1.7915 O.2       1 ATP        -0.8661
     11 O2A        -1.8128    5.2955    1.3627 O.3       1 ATP        -0.8077
     12 O3A        -0.7290    4.7337    3.5851 O.3       1 ATP        -0.7685
     13 O5'         0.0171    3.5129    1.4593 O.3       1 ATP        -0.5590
     14 C5'        -0.8811    2.4285    1.6206 C.3       1 ATP         0.1960
     15 C4'        -0.1994    1.3333    2.4288 C.3       1 ATP         0.0976
     16 O4'        -1.1285    0.2356    2.5840 O.3       1 ATP        -0.3865
     17 C3'         1.0324    0.7610    1.7344 C.3       1 ATP         0.0901
     18 O3'         1.9175    0.2377    2.7247 O.3       1 ATP        -0.5889
     19 C2'         0.4468   -0.3802    0.9263 C.3       1 ATP         0.0574
     20 O2'         1.3993   -1.3703    0.5961 O.3       1 ATP        -0.5923
     21 C1'        -0.6159   -0.9100    1.8769 C.3       1 ATP         0.2452
     22 N9         -1.7127   -1.6108    1.2130 N.pl3     1 ATP        -0.1834
     23 C8         -1.7690   -2.9583    0.9549 C.ar      1 ATP         0.4338
     24 N7         -2.8827   -3.3076    0.3418 N.2       1 ATP        -0.6101
     25 C5         -3.5683   -2.1351    0.2017 C.ar      1 ATP         0.2154
     26 C6         -4.8617   -1.9185   -0.4044 C.ar      1 ATP         0.6130
     27 N6         -5.5166   -2.9094   -0.8993 N.2       1 ATP        -0.8165
     28 N1         -5.1837   -0.5701   -0.3344 N.pl3     1 ATP        -0.8617
     29 C2         -4.3821    0.4180    0.2330 C.ar      1 ATP         0.6151
     30 N3         -3.2117    0.2488    0.7860 N.2       1 ATP        -0.5797
     31 C4         -2.8672   -1.0657    0.7327 C.ar      1 ATP         0.0328
     32 HOG3       -5.3626    6.0414    3.0723 H         1 ATP         0.4197
     33 HOA2       -2.2941    6.1043    1.6391 H         1 ATP         0.4550
     34 H5'1       -1.7775    2.7843    2.1389 H         1 ATP         0.0431
     35 H5'2       -1.1658    2.0534    0.6322 H         1 ATP         0.0431
     36 H4'         0.0402    1.7079    3.4342 H         1 ATP         0.1325
     37 H3'         1.5907    1.4859    1.1353 H         1 ATP         0.0782
     38 HO3'        2.6839   -0.1150    2.2479 H         1 ATP         0.4062
     39 H2'        -0.0017    0.0018    0.0005 H         1 ATP         0.0689
     40 HO2'        2.0953   -0.9375    0.0709 H         1 ATP         0.4089
     41 H1'        -0.1998   -1.6319    2.6178 H         1 ATP         0.1098
     42 H8         -0.9697   -3.6300    1.2371 H         1 ATP         0.0929
     43 HN62       -6.4060   -2.5723   -1.2840 H         1 ATP         0.3678
     44 H2         -4.8409    1.4176    0.1757 H         1 ATP         0.0383
     45 H45        -6.0768   -0.2826   -0.7263 H         1 ATP         0.4286
@<TRIPOS>BOND
     1    1    2 2
     2    1    3 1
     3    1    4 1
     4    1    8 1
     5    4   32 1
     6    5    6 2
     7    5    7 1
     8    5    8 1
     9    5   12 1
    10    9   10 2
    11    9   11 1
    12    9   12 1
    13    9   13 1
    14   11   33 1
    15   13   14 1
    16   14   15 1
    17   14   34 1
    18   14   35 1
    19   15   16 1
    20   15   17 1
    21   15   36 1
    22   16   21 1
    23   17   18 1
    24   17   19 1
    25   17   37 1
    26   18   38 1
    27   19   20 1
    28   19   21 1
    29   19   39 1
    30   20   40 1
    31   21   22 1
    32   21   41 1
    33   22   23 ar
    34   22   31 ar
    35   23   24 ar
    36   23   42 1
    37   24   25 ar
    38   25   26 ar
    39   25   31 ar
    40   26   27 2
    41   26   28 ar
    42   27   43 1
    43   28   29 ar
    44   28   45 1
    45   29   30 ar
    46   29   44 1
    47   30   31 ar
@<TRIPOS>SUBSTRUCTURE
     1 ATP         1 GROUP 0 A     ****
@<TRIPOS>MOLECULE
[[[3,4-dihydroxy-5-(6-imino-1~{H}-purin-9-yl)tetrahydrofuran-2-yl]methoxy-hydroxy-phosphoryl]oxy-oxido-phosphoryl] hydrogen phosphate
   45    47     1     0     0
SMALL
USER_CHARGES

@<TRIPOS>ATOM
      1 PG          6.9152   -3.6929   -0.3672 P.3       1 ATP         1.5414
      2 O1G         5.5223   -4.2342   -0.1339 O.co2     1 ATP        -0.8562
      3 O2G         8.0717   -4.1179    0.5100 O.co2     1 ATP        -0.8562
      4 O3G         7.3208   -3.9599   -1.9262 O.3       1 ATP        -0.7907
      5 PB          6.5028   -0.9926    0.7732 P.3       1 ATP         1.6574
      6 O1B         5.0504   -1.1565    1.1625 O.co2     1 ATP        -0.8530
      7 O2B         7.5996   -1.0432    1.8134 O.co2     1 ATP        -0.8530
      8 O3B         6.8500   -2.0642   -0.4070 O.3       1 ATP        -0.8003
      9 PA          5.8742    0.9198   -1.3967 P.3       1 ATP         1.7415
     10 O1A         6.0134    0.0298   -2.5976 O.2       1 ATP        -0.8661
     11 O2A         6.4679    2.4111   -1.6008 O.3       1 ATP        -0.8077
     12 O3A         6.6551    0.3880   -0.0837 O.3       1 ATP        -0.7685
     13 O5'         4.3520    1.1579   -0.9021 O.3       1 ATP        -0.5590
     14 C5'         4.0922    1.9801    0.2227 C.3       1 ATP         0.1960
     15 C4'         2.5944    2.0310    0.4653 C.3       1 ATP         0.0976
     16 O4'         1.9327    2.5740   -0.6889 O.3       1 ATP        -0.3865
     17 C3'         1.9685    0.6634    0.6767 C.3       1 ATP         0.0901
     18 O3'         2.1425    0.1975    1.9977 O.3       1 ATP        -0.5889
     19 C2'         0.5176    0.9128    0.3099 C.3       1 ATP         0.0574
     20 O2'        -0.2103    1.4454    1.4152 O.3       1 ATP        -0.5923
     21 C1'         0.6219    1.9765   -0.7844 C.3       1 ATP         0.2452
     22 N9          0.4237    1.4496   -2.1357 N.pl3     1 ATP        -0.1834
     23 C8          1.4069    0.9710   -2.9662 C.ar      1 ATP         0.4338
     24 N7          0.9316    0.5623   -4.1260 N.2       1 ATP        -0.6101
     25 C5         -0.4120    0.7884   -4.0344 C.ar      1 ATP         0.2154
     26 C6         -1.4353    0.5283   -5.0204 C.ar      1 ATP         0.6130
     27 N6         -1.1199    0.0176   -6.1586 N.2       1 ATP        -0.8165
     28 N1         -2.6704    0.9095   -4.5147 N.pl3     1 ATP        -0.8617
     29 C2         -2.8863    1.4571   -3.2520 C.ar      1 ATP         0.6151
     30 N3         -1.9805    1.7017   -2.3442 N.2       1 ATP        -0.5797
     31 C4         -0.7561    1.3381   -2.8112 C.ar      1 ATP         0.0328
     32 HOG3        8.2030   -3.6633   -2.2363 H         1 ATP         0.4197
     33 HOA2        7.4193    2.5175   -1.8146 H         1 ATP         0.4550
     34 H5'1        4.6066    1.5622    1.0942 H         1 ATP         0.0431
     35 H5'2        4.4821    2.9841    0.0260 H         1 ATP         0.0431
     36 H4'         2.3752    2.7029    1.3156 H         1 ATP         0.1325
     37 H3'         2.4336   -0.1217   -0.0016 H         1 ATP         0.0782
     38 HO3'        3.0987    0.1465    2.1461 H         1 ATP         0.4062
     39 H2'         0.0316    0.0155   -0.0339 H         1 ATP         0.0689
     40 HO2'       -0.1608    0.7921    2.1351 H         1 ATP         0.4089
     41 H1'        -0.1474    2.7798   -0.6651 H         1 ATP         0.1098
     42 H8          2.4466    0.9468   -2.6694 H         1 ATP         0.0929
     43 HN62       -1.9661   -0.0965   -6.7275 H         1 ATP         0.3678
     44 H2         -3.9481    1.6825   -3.0660 H         1 ATP         0.0383
     45 H45        -3.4814    0.7753   -5.1133 H         1 ATP         0.4286
@<TRIPOS>BOND
     1    1    2 2
     2    1    3 1
     3    1    4 1
     4    1    8 1
     5    4   32 1
     6    5    6 2
     7    5    7 1
     8    5    8 1
     9    5   12 1
    10    9   10 2
    11    9   11 1
    12    9   12 1
    13    9   13 1
    14   11   33 1
    15   13   14 1
    16   14   15 1
    17   14   34 1
    18   14   35 1
    19   15   16 1
    20   15   17 1
    21   15   36 1
    22   16   21 1
    23   17   18 1
    24   17   19 1
    25   17   37 1
    26   18   38 1
    27   19   20 1
    28   19   21 1
    29   19   39 1
    30   20   40 1
    31   21   22 1
    32   21   41 1
    33   22   23 ar
    34   22   31 ar
    35   23   24 ar
    36   23   42 1
    37   24   25 ar
    38   25   26 ar
    39   25   31 ar
    40   26   27 2
    41   26   28 ar
    42   27   43 1
    43   28   29 ar
    44   28   45 1
    45   29   30 ar
    46   29   44 1
    47   30   31 ar
@<TRIPOS>SUBSTRUCTURE
     1 ATP         1 GROUP 0 A     ****
@<TRIPOS>MOLECULE
[[[3,4-dihydroxy-5-(6-imino-1~{H}-purin-9-yl)tetrahydrofuran-2-yl]methoxy-hydroxy-phosphoryl]oxy-oxido-phosphoryl] hydrogen phosphate
   45    47     1     0     0
SMALL
USER_CHARGES

@<TRIPOS>ATOM
      1 PG          6.0349    2.5411   -4.3068 P.3       1 ATP         1.5414
      2 O1G         6.4644    1.1938   -4.8434 O.co2     1 ATP        -0.8562
      3 O2G         6.5727    3.8228   -4.9029 O.co2     1 ATP        -0.8562
      4 O3G         4.4034    2.6076   -4.3184 O.3       1 ATP        -0.7907
      5 PB          7.6510    2.5293   -1.8268 P.3       1 ATP         1.6574
      6 O1B         8.3035    1.1780   -2.0162 O.co2     1 ATP        -0.8530
      7 O2B         8.4181    3.8082   -2.0798 O.co2     1 ATP        -0.8530
      8 O3B         6.2692    2.5669   -2.6934 O.3       1 ATP        -0.8003
      9 PA          6.0786    3.6970    0.3924 P.3       1 ATP         1.7415
     10 O1A         6.4580    5.1157    0.0811 O.2       1 ATP        -0.8661
     11 O2A         6.1835    3.3084    1.9596 O.3       1 ATP        -0.8077
     12 O3A         7.0121    2.5885   -0.3262 O.3       1 ATP        -0.7685
     13 O5'         4.5673    3.2930   -0.0211 O.3       1 ATP        -0.5590
     14 C5'         4.0922    1.9801    0.2227 C.3       1 ATP         0.1960
     15 C4'         2.5944    2.0310    0.4653 C.3       1 ATP         0.0976
     16 O4'         1.9327    2.5740   -0.6889 O.3       1 ATP        -0.3865
     17 C3'         1.9685    0.6634    0.6767 C.3       1 ATP         0.0901
     18 O3'         2.1425    0.1975    1.9977 O.3       1 ATP        -0.5889
     19 C2'         0.5176    0.9128    0.3099 C.3       1 ATP         0.0574
     20 O2'        -0.2103    1.4454    1.4152 O.3       1 ATP        -0.5923
     21 C1'         0.6219    1.9765   -0.7844 C.3       1 ATP         0.2452
     22 N9          0.4237    1.4496   -2.1357 N.pl3     1 ATP        -0.1834
     23 C8          1.4069    0.9710   -2.9662 C.ar      1 ATP         0.4338
     24 N7          0.9316    0.5623   -4.1260 N.2       1 ATP        -0.6101
     25 C5         -0.4120    0.7884   -4.0344 C.ar      1 ATP         0.2154
     26 C6         -1.4353    0.5283   -5.0204 C.ar      1 ATP         0.6130
     27 N6         -1.1199    0.0176   -6.1586 N.2       1 ATP        -0.8165
     28 N1         -2.6704    0.9095   -4.5147 N.pl3     1 ATP        -0.8617
     29 C2         -2.8863    1.4571   -3.2520 C.ar      1 ATP         0.6151
     30 N3         -1.9805    1.7017   -2.3442 N.2       1 ATP        -0.5797
     31 C4         -0.7561    1.3381   -2.8112 C.ar      1 ATP         0.0328
     32 HOG3        3.9674    3.4254   -3.9968 H         1 ATP         0.4197
     33 HOA2        5.6397    3.8038    2.6084 H         1 ATP         0.4550
     34 H5'1        4.3175    1.3541   -0.6468 H         1 ATP         0.0431
     35 H5'2        4.6079    1.5730    1.0985 H         1 ATP         0.0431
     36 H4'         2.3752    2.7029    1.3156 H         1 ATP         0.1325
     37 H3'         2.4336   -0.1217   -0.0016 H         1 ATP         0.0782
     38 HO3'        3.0987    0.1465    2.1461 H         1 ATP         0.4062
     39 H2'         0.0316    0.0155   -0.0339 H         1 ATP         0.0689
     40 HO2'       -0.1608    0.7921    2.1351 H         1 ATP         0.4089
     41 H1'        -0.1474    2.7798   -0.6651 H         1 ATP         0.1098
     42 H8          2.4466    0.9468   -2.6694 H         1 ATP         0.0929
     43 HN62       -1.9661   -0.0965   -6.7275 H         1 ATP         0.3678
     44 H2         -3.9481    1.6825   -3.0660 H         1 ATP         0.0383
     45 H45        -3.4814    0.7753   -5.1133 H         1 ATP         0.4286
@<TRIPOS>BOND
     1    1    2 2
     2    1    3 1
     3    1    4 1
     4    1    8 1
     5    4   32 1
     6    5    6 2
     7    5    7 1
     8    5    8 1
     9    5   12 1
    10    9   10 2
    11    9   11 1
    12    9   12 1
    13    9   13 1
    14   11   33 1
    15   13   14 1
    16   14   15 1
    17   14   34 1
    18   14   35 1
    19   15   16 1
    20   15   17 1
    21   15   36 1
    22   16   21 1
    23   17   18 1
    24   17   19 1
    25   17   37 1
    26   18   38 1
    27   19   20 1
    28   19   21 1
    29   19   39 1
    30   20   40 1
    31   21   22 1
    32   21   41 1
    33   22   23 ar
    34   22   31 ar
    35   23   24 ar
    36   23   42 1
    37   24   25 ar
    38   25   26 ar
    39   25   31 ar
    40   26   27 2
    41   26   28 ar
    42   27   43 1
    43   28   29 ar
    44   28   45 1
    45   29   30 ar
    46   29   44 1
    47   30   31 ar
@<TRIPOS>SUBSTRUCTURE
     1 ATP         1 GROUP 0 A     ****
@<TRIPOS>MOLECULE
[[[3,4-dihydroxy-5-(6-imino-1~{H}-purin-9-yl)tetrahydrofuran-2-yl]methoxy-hydroxy-phosphoryl]oxy-oxido-phosphoryl] hydrogen phosphate
   45    47     1     0     0
SMALL
USER_CHARGES

@<TRIPOS>ATOM
      1 PG          0.0097    8.2342    5.5859 P.3       1 ATP         1.5414
      2 O1G         0.2166    7.8687    7.0388 O.co2     1 ATP        -0.8562
      3 O2G        -1.0726    9.2076    5.1754 O.co2     1 ATP        -0.8562
      4 O3G         1.4324    8.7516    4.9738 O.3       1 ATP        -0.7907
      5 PB         -1.3291    5.7397    4.7216 P.3       1 ATP         1.6574
      6 O1B        -1.3057    5.0246    6.0542 O.co2     1 ATP        -0.8530
      7 O2B        -2.6012    6.3656    4.1945 O.co2     1 ATP        -0.8530
      8 O3B        -0.1486    6.8658    4.7136 O.3       1 ATP        -0.8003
      9 PA         -0.3718    4.9776    2.0264 P.3       1 ATP         1.7415
     10 O1A         0.6640    6.0385    1.7915 O.2       1 ATP        -0.8661
     11 O2A        -1.8128    5.2955    1.3627 O.3       1 ATP        -0.8077
     12 O3A        -0.7290    4.7337    3.5851 O.3       1 ATP        -0.7685
     13 O5'         0.0171    3.5129    1.4593 O.3       1 ATP        -0.5590
     14 C5'        -0.8811    2.4285    1.6206 C.3       1 ATP         0.1960
     15 C4'        -0.1994    1.3333    2.4288 C.3       1 ATP         0.0976
     16 O4'        -1.1285    0.2356    2.5840 O.3       1 ATP        -0.3865
     17 C3'         1.0324    0.7610    1.7344 C.3       1 ATP         0.0901
     18 O3'         1.9175    0.2377    2.7247 O.3       1 ATP        -0.5889
     19 C2'         0.4468   -0.3802    0.9263 C.3       1 ATP         0.0574
     20 O2'         1.3993   -1.3703    0.5961 O.3       1 ATP        -0.5923
     21 C1'        -0.6159   -0.9100    1.8769 C.3       1 ATP         0.2452
     22 N9         -1.7127   -1.6108    1.2130 N.pl3     1 ATP        -0.1834
     23 C8         -2.5485   -1.0808    0.2609 C.ar      1 ATP         0.4338
     24 N7         -3.4476   -1.9486   -0.1593 N.2       1 ATP        -0.6101
     25 C5         -3.1762   -3.0816    0.5530 C.ar      1 ATP         0.2154
     26 C6         -3.8510   -4.3579    0.5006 C.ar      1 ATP         0.6130
     27 N6         -4.8468   -4.5293   -0.2961 N.2       1 ATP        -0.8165
     28 N1         -3.2499   -5.2342    1.3937 N.pl3     1 ATP        -0.8617
     29 C2         -2.1646   -4.9275    2.2116 C.ar      1 ATP         0.6151
     30 N3         -1.5382   -3.7840    2.2778 N.2       1 ATP        -0.5797
     31 C4         -2.1054   -2.9018    1.4120 C.ar      1 ATP         0.0328
     32 HOG3        1.4628    9.0278    4.0330 H         1 ATP         0.4197
     33 HOA2       -2.2941    6.1043    1.6391 H         1 ATP         0.4550
     34 H5'1       -1.7775    2.7843    2.1389 H         1 ATP         0.0431
     35 H5'2       -1.1658    2.0534    0.6322 H         1 ATP         0.0431
     36 H4'         0.0402    1.7079    3.4342 H         1 ATP         0.1325
     37 H3'         1.5907    1.4859    1.1353 H         1 ATP         0.0782
     38 HO3'        2.1521    0.9800    3.3017 H         1 ATP         0.4062
     39 H2'        -0.0017    0.0018    0.0005 H         1 ATP         0.0689
     40 HO2'        2.0953   -0.9375    0.0709 H         1 ATP         0.4089
     41 H1'        -0.1998   -1.6319    2.6178 H         1 ATP         0.1098
     42 H8         -2.4515   -0.0599   -0.0829 H         1 ATP         0.0929
     43 HN62       -5.1990   -5.4882   -0.2005 H         1 ATP         0.3678
     44 H2         -1.8555   -5.7783    2.8388 H         1 ATP         0.0383
     45 H45        -3.6312   -6.1750    1.4526 H         1 ATP         0.4286
@<TRIPOS>BOND
     1    1    2 2
     2    1    3 1
     3    1    4 1
     4    1    8 1
     5    4   32 1
     6    5    6 2
     7    5    7 1
     8    5    8 1
     9    5   12 1
    10    9   10 2
    11    9   11 1
    12    9   12 1
    13    9   13 1
    14   11   33 1
    15   13   14 1
    16   14   15 1
    17   14   34 1
    18   14   35 1
    19   15   16 1
    20   15   17 1
    21   15   36 1
    22   16   21 1
    23   17   18 1
    24   17   19 1
    25   17   37 1
    26   18   38 1
    27   19   20 1
    28   19   21 1
    29   19   39 1
    30   20   40 1
    31   21   22 1
    32   21   41 1
    33   22   23 ar
    34   22   31 ar
    35   23   24 ar
    36   23   42 1
    37   24   25 ar
    38   25   26 ar
    39   25   31 ar
    40   26   27 2
    41   26   28 ar
    42   27   43 1
    43   28   29 ar
    44   28   45 1
    45   29   30 ar
    46   29   44 1
    47   30   31 ar
@<TRIPOS>SUBSTRUCTURE
     1 ATP         1 GROUP 0 A     ****
@<TRIPOS>MOLECULE
[[[3,4-dihydroxy-5-(6-imino-1~{H}-purin-9-yl)tetrahydrofuran-2-yl]methoxy-hydroxy-phosphoryl]oxy-oxido-phosphoryl] hydrogen phosphate
   45    47     1     0     0
SMALL
USER_CHARGES

@<TRIPOS>ATOM
      1 PG         -2.4736    3.6376    6.1432 P.3       1 ATP         1.5414
      2 O1G        -2.3045    2.5720    5.0832 O.co2     1 ATP        -0.8562
      3 O2G        -3.7794    4.3861    6.2919 O.co2     1 ATP        -0.8562
      4 O3G        -2.0750    2.9965    7.5911 O.3       1 ATP        -0.7907
      5 PB         -0.9171    5.7812    4.8225 P.3       1 ATP         1.6574
      6 O1B        -2.1489    6.6182    4.5579 O.co2     1 ATP        -0.8530
      7 O2B         0.4172    6.4291    5.1187 O.co2     1 ATP        -0.8530
      8 O3B        -1.2568    4.7147    6.0094 O.3       1 ATP        -0.8003
      9 PA         -0.3718    4.9776    2.0264 P.3       1 ATP         1.7415
     10 O1A         0.6640    6.0385    1.7915 O.2       1 ATP        -0.8661
     11 O2A        -1.8128    5.2955    1.3627 O.3       1 ATP        -0.8077
     12 O3A        -0.7290    4.7337    3.5851 O.3       1 ATP        -0.7685
     13 O5'         0.0171    3.5129    1.4593 O.3       1 ATP        -0.5590
     14 C5'        -0.8811    2.4285    1.6206 C.3       1 ATP         0.1960
     15 C4'        -0.1994    1.3333    2.4288 C.3       1 ATP         0.0976
     16 O4'        -1.1285    0.2356    2.5840 O.3       1 ATP        -0.3865
     17 C3'         1.0324    0.7610    1.7344 C.3       1 ATP         0.0901
     18 O3'         1.9175    0.2377    2.7247 O.3       1 ATP        -0.5889
     19 C2'         0.4468   -0.3802    0.9263 C.3       1 ATP         0.0574
     20 O2'         1.3993   -1.3703    0.5961 O.3       1 ATP        -0.5923
     21 C1'        -0.6159   -0.9100    1.8769 C.3       1 ATP         0.2452
     22 N9         -1.7127   -1.6108    1.2130 N.pl3     1 ATP        -0.1834
     23 C8         -1.7690   -2.9583    0.9549 C.ar      1 ATP         0.4338
     24 N7         -2.8827   -3.3076    0.3418 N.2       1 ATP        -0.6101
     25 C5         -3.5683   -2.1351    0.2017 C.ar      1 ATP         0.2154
     26 C6         -4.8617   -1.9185   -0.4044 C.ar      1 ATP         0.6130
     27 N6         -5.5166   -2.9094   -0.8993 N.2       1 ATP        -0.8165
     28 N1         -5.1837   -0.5701   -0.3344 N.pl3     1 ATP        -0.8617
     29 C2         -4.3821    0.4180    0.2330 C.ar      1 ATP         0.6151
     30 N3         -3.2117    0.2488    0.7860 N.2       1 ATP        -0.5797
     31 C4         -2.8672   -1.0657    0.7327 C.ar      1 ATP         0.0328
     32 HOG3       -2.1334    3.5678    8.3864 H         1 ATP         0.4197
     33 HOA2       -2.2941    6.1043    1.6391 H         1 ATP         0.4550
     34 H5'1       -1.7775    2.7843    2.1389 H         1 ATP         0.0431
     35 H5'2       -1.1658    2.0534    0.6322 H         1 ATP         0.0431
     36 H4'         0.0402    1.7079    3.4342 H         1 ATP         0.1325
     37 H3'         1.5907    1.4859    1.1353 H         1 ATP         0.0782
     38 HO3'        2.1521    0.9800    3.3017 H         1 ATP         0.4062
     39 H2'        -0.0017    0.0018    0.0005 H         1 ATP         0.0689
     40 HO2'        0.9369   -2.0558    0.0825 H         1 ATP         0.4089
     41 H1'        -0.1998   -1.6319    2.6178 H         1 ATP         0.1098
     42 H8         -0.9697   -3.6300    1.2371 H         1 ATP         0.0929
     43 HN62       -6.4060   -2.5723   -1.2840 H         1 ATP         0.3678
     44 H2         -4.8409    1.4176    0.1757 H         1 ATP         0.0383
     45 H45        -6.0768   -0.2826   -0.7263 H         1 ATP         0.4286
@<TRIPOS>BOND
     1    1    2 2
     2    1    3 1
     3    1    4 1
     4    1    8 1
     5    4   32 1
     6    5    6 2
     7    5    7 1
     8    5    8 1
     9    5   12 1
    10    9   10 2
    11    9   11 1
    12    9   12 1
    13    9   13 1
    14   11   33 1
    15   13   14 1
    16   14   15 1
    17   14   34 1
    18   14   35 1
    19   15   16 1
    20   15   17 1
    21   15   36 1
    22   16   21 1
    23   17   18 1
    24   17   19 1
    25   17   37 1
    26   18   38 1
    27   19   20 1
    28   19   21 1
    29   19   39 1
    30   20   40 1
    31   21   22 1
    32   21   41 1
    33   22   23 ar
    34   22   31 ar
    35   23   24 ar
    36   23   42 1
    37   24   25 ar
    38   25   26 ar
    39   25   31 ar
    40   26   27 2
    41   26   28 ar
    42   27   43 1
    43   28   29 ar
    44   28   45 1
    45   29   30 ar
    46   29   44 1
    47   30   31 ar
@<TRIPOS>SUBSTRUCTURE
     1 ATP         1 GROUP 0 A     ****
@<TRIPOS>MOLECULE
[[[3,4-dihydroxy-5-(6-imino-1~{H}-purin-9-yl)tetrahydrofuran-2-yl]methoxy-hydroxy-phosphoryl]oxy-oxido-phosphoryl] hydrogen phosphate
   45    47     1     0     0
SMALL
USER_CHARGES

@<TRIPOS>ATOM
      1 PG          2.7397    2.8116   -1.7480 P.3       1 ATP         1.5414
      2 O1G         3.6977    3.9081   -1.3386 O.co2     1 ATP        -0.8562
      3 O2G         2.7008    2.3050   -3.1726 O.co2     1 ATP        -0.8562
      4 O3G         2.9530    1.5374   -0.7496 O.3       1 ATP        -0.7907
      5 PB          0.2648    4.4339   -1.8192 P.3       1 ATP         1.6574
      6 O1B         0.8776    5.7567   -1.4160 O.co2     1 ATP        -0.8530
      7 O2B        -0.1168    4.1569   -3.2563 O.co2     1 ATP        -0.8530
      8 O3B         1.2311    3.2297   -1.2921 O.3       1 ATP        -0.8003
      9 PA         -1.9904    2.8591   -0.7259 P.3       1 ATP         1.7415
     10 O1A        -2.3196    2.1913   -2.0295 O.2       1 ATP        -0.8661
     11 O2A        -3.2755    3.4364    0.0698 O.3       1 ATP        -0.8077
     12 O3A        -1.0319    4.1544   -0.8684 O.3       1 ATP        -0.7685
     13 O5'        -1.2435    1.9111    0.3519 O.3       1 ATP        -0.5590
     14 C5'        -0.8811    2.4285    1.6206 C.3       1 ATP         0.1960
     15 C4'        -0.1994    1.3333    2.4288 C.3       1 ATP         0.0976
     16 O4'        -1.1285    0.2356    2.5840 O.3       1 ATP        -0.3865
     17 C3'         1.0324    0.7610    1.7344 C.3       1 ATP         0.0901
     18 O3'         1.9175    0.2377    2.7247 O.3       1 ATP        -0.5889
     19 C2'         0.4468   -0.3802    0.9263 C.3       1 ATP         0.0574
     20 O2'         1.3993   -1.3703    0.5961 O.3       1 ATP        -0.5923
     21 C1'        -0.6159   -0.9100    1.8769 C.3       1 ATP         0.2452
     22 N9         -1.7127   -1.6108    1.2130 N.pl3     1 ATP        -0.1834
     23 C8         -2.8662   -1.0361    0.7388 C.ar      1 ATP         0.4338
     24 N7         -3.6774   -1.9166    0.1867 N.2       1 ATP        -0.6101
     25 C5         -3.0159   -3.1045    0.3122 C.ar      1 ATP         0.2154
     26 C6         -3.4377   -4.4169   -0.1199 C.ar      1 ATP         0.6130
     27 N6         -4.5720   -4.5691   -0.7080 N.2       1 ATP        -0.8165
     28 N1         -2.4600   -5.3463    0.2071 N.pl3     1 ATP        -0.8617
     29 C2         -1.2595   -5.0554    0.8515 C.ar      1 ATP         0.6151
     30 N3         -0.8555   -3.8803    1.2516 N.2       1 ATP        -0.5797
     31 C4         -1.7946   -2.9457    0.9448 C.ar      1 ATP         0.0328
     32 HOG3        2.3999    0.7389   -0.8872 H         1 ATP         0.4197
     33 HOA2       -3.9837    2.8144    0.3413 H         1 ATP         0.4550
     34 H5'1       -0.2031    3.2762    1.4776 H         1 ATP         0.0431
     35 H5'2       -1.7839    2.7764    2.1331 H         1 ATP         0.0431
     36 H4'         0.0402    1.7079    3.4342 H         1 ATP         0.1325
     37 H3'         1.5907    1.4859    1.1353 H         1 ATP         0.0782
     38 HO3'        2.6839   -0.1150    2.2479 H         1 ATP         0.4062
     39 H2'        -0.0017    0.0018    0.0005 H         1 ATP         0.0689
     40 HO2'        0.9369   -2.0558    0.0825 H         1 ATP         0.4089
     41 H1'        -0.1998   -1.6319    2.6178 H         1 ATP         0.1098
     42 H8         -3.0558    0.0252    0.8256 H         1 ATP         0.0929
     43 HN62       -4.7047   -5.5592   -0.9421 H         1 ATP         0.3678
     44 H2         -0.6372   -5.9505    1.0077 H         1 ATP         0.0383
     45 H45        -2.6338   -6.3155   -0.0469 H         1 ATP         0.4286
@<TRIPOS>BOND
     1    1    2 2
     2    1    3 1
     3    1    4 1
     4    1    8 1
     5    4   32 1
     6    5    6 2
     7    5    7 1
     8    5    8 1
     9    5   12 1
    10    9   10 2
    11    9   11 1
    12    9   12 1
    13    9   13 1
    14   11   33 1
    15   13   14 1
    16   14   15 1
    17   14   34 1
    18   14   35 1
    19   15   16 1
    20   15   17 1
    21   15   36 1
    22   16   21 1
    23   17   18 1
    24   17   19 1
    25   17   37 1
    26   18   38 1
    27   19   20 1
    28   19   21 1
    29   19   39 1
    30   20   40 1
    31   21   22 1
    32   21   41 1
    33   22   23 ar
    34   22   31 ar
    35   23   24 ar
    36   23   42 1
    37   24   25 ar
    38   25   26 ar
    39   25   31 ar
    40   26   27 2
    41   26   28 ar
    42   27   43 1
    43   28   29 ar
    44   28   45 1
    45   29   30 ar
    46   29   44 1
    47   30   31 ar
@<TRIPOS>SUBSTRUCTURE
     1 ATP         1 GROUP 0 A     ****
@<TRIPOS>MOLECULE
[[[3,4-dihydroxy-5-(6-imino-1~{H}-purin-9-yl)tetrahydrofuran-2-yl]methoxy-hydroxy-phosphoryl]oxy-oxido-phosphoryl] hydrogen phosphate
   45    47     1     0     0
SMALL
USER_CHARGES

@<TRIPOS>ATOM
      1 PG         -2.5540    6.3096   -1.6297 P.3       1 ATP         1.5414
      2 O1G        -3.8008    7.1639   -1.6881 O.co2     1 ATP        -0.8562
      3 O2G        -2.6475    4.8036   -1.5259 O.co2     1 ATP        -0.8562
      4 O3G        -1.6086    6.6841   -2.9073 O.3       1 ATP        -0.7907
      5 PB         -1.8026    6.8710    1.1778 P.3       1 ATP         1.6574
      6 O1B        -0.5253    7.3473    1.8331 O.co2     1 ATP        -0.8530
      7 O2B        -3.1301    7.5258    1.4890 O.co2     1 ATP        -0.8530
      8 O3B        -1.5877    6.8646   -0.4394 O.3       1 ATP        -0.8003
      9 PA         -2.1760    4.4068    2.7745 P.3       1 ATP         1.7415
     10 O1A        -3.4497    4.7369    3.4974 O.2       1 ATP        -0.8661
     11 O2A        -0.8322    4.6898    3.6302 O.3       1 ATP        -0.8077
     12 O3A        -1.9401    5.2633    1.4227 O.3       1 ATP        -0.7685
     13 O5'        -2.0397    2.8622    2.3122 O.3       1 ATP        -0.5590
     14 C5'        -0.8811    2.4285    1.6206 C.3       1 ATP         0.1960
     15 C4'        -0.1994    1.3333    2.4288 C.3       1 ATP         0.0976
     16 O4'        -1.1285    0.2356    2.5840 O.3       1 ATP        -0.3865
     17 C3'         1.0324    0.7610    1.7344 C.3       1 ATP         0.0901
     18 O3'         1.9175    0.2377    2.7247 O.3       1 ATP        -0.5889
     19 C2'         0.4468   -0.3802    0.9263 C.3       1 ATP         0.0574
     20 O2'         1.3993   -1.3703    0.5961 O.3       1 ATP        -0.5923
     21 C1'        -0.6159   -0.9100    1.8769 C.3       1 ATP         0.2452
     22 N9         -1.7127   -1.6108    1.2130 N.pl3     1 ATP        -0.1834
     23 C8         -2.0868   -2.9137    1.4327 C.ar      1 ATP         0.4338
     24 N7         -3.1125   -3.2756    0.6878 N.2       1 ATP        -0.6101
     25 C5         -3.4079   -2.1580   -0.0391 C.ar      1 ATP         0.2154
     26 C6         -4.4483   -1.9775   -1.0249 C.ar      1 ATP         0.6130
     27 N6         -5.2418   -2.9492   -1.3113 N.2       1 ATP        -0.8165
     28 N1         -4.3937   -0.6823   -1.5211 N.pl3     1 ATP        -0.8617
     29 C2         -3.4770    0.2901   -1.1271 C.ar      1 ATP         0.6151
     30 N3         -2.5289    0.1525   -0.2402 N.2       1 ATP        -0.5797
     31 C4         -2.5564   -1.1096    0.2655 C.ar      1 ATP         0.0328
     32 HOG3       -0.7556    6.2109   -3.0112 H         1 ATP         0.4197
     33 HOA2       -0.7033    4.2178    4.4804 H         1 ATP         0.4550
     34 H5'1       -1.1761    2.0499    0.6365 H         1 ATP         0.0431
     35 H5'2       -0.2073    3.2811    1.4874 H         1 ATP         0.0431
     36 H4'         0.0402    1.7079    3.4342 H         1 ATP         0.1325
     37 H3'         1.5907    1.4859    1.1353 H         1 ATP         0.0782
     38 HO3'        2.1521    0.9800    3.3017 H         1 ATP         0.4062
     39 H2'        -0.0017    0.0018    0.0005 H         1 ATP         0.0689
     40 HO2'        2.0953   -0.9375    0.0709 H         1 ATP         0.4089
     41 H1'        -0.1998   -1.6319    2.6178 H         1 ATP         0.1098
     42 H8         -1.5740   -3.5449    2.1457 H         1 ATP         0.0929
     43 HN62       -5.9117   -2.6433   -2.0256 H         1 ATP         0.3678
     44 H2         -3.6225    1.2454   -1.6553 H         1 ATP         0.0383
     45 H45        -5.0794   -0.4231   -2.2258 H         1 ATP         0.4286
@<TRIPOS>BOND
     1    1    2 2
     2    1    3 1
     3    1    4 1
     4    1    8 1
     5    4   32 1
     6    5    6 2
     7    5    7 1
     8    5    8 1
     9    5   12 1
    10    9   10 2
    11    9   11 1
    12    9   12 1
    13    9   13 1
    14   11   33 1
    15   13   14 1
    16   14   15 1
    17   14   34 1
    18   14   35 1
    19   15   16 1
    20   15   17 1
    21   15   36 1
    22   16   21 1
    23   17   18 1
    24   17   19 1
    25   17   37 1
    26   18   38 1
    27   19   20 1
    28   19   21 1
    29   19   39 1
    30   20   40 1
    31   21   22 1
    32   21   41 1
    33   22   23 ar
    34   22   31 ar
    35   23   24 ar
    36   23   42 1
    37   24   25 ar
    38   25   26 ar
    39   25   31 ar
    40   26   27 2
    41   26   28 ar
    42   27   43 1
    43   28   29 ar
    44   28   45 1
    45   29   30 ar
    46   29   44 1
    47   30   31 ar
@<TRIPOS>SUBSTRUCTURE
     1 ATP         1 GROUP 0 A     ****
@<TRIPOS>MOLECULE
[[[3,4-dihydroxy-5-(6-imino-1~{H}-purin-9-yl)tetrahydrofuran-2-yl]methoxy-hydroxy-phosphoryl]oxy-oxido-phosphoryl] hydrogen phosphate
   45    47     1     0     0
SMALL
USER_CHARGES

@<TRIPOS>ATOM
      1 PG         -1.3686    8.1012   -1.4792 P.3       1 ATP         1.5414
      2 O1G        -2.4841    9.1049   -1.2900 O.co2     1 ATP        -0.8562
      3 O2G        -1.0490    7.5427   -2.8480 O.co2     1 ATP        -0.8562
      4 O3G        -0.0001    8.7202   -0.8387 O.3       1 ATP        -0.7907
      5 PB         -1.8026    6.8710    1.1778 P.3       1 ATP         1.6574
      6 O1B        -0.5253    7.3473    1.8331 O.co2     1 ATP        -0.8530
      7 O2B        -3.1301    7.5258    1.4890 O.co2     1 ATP        -0.8530
      8 O3B        -1.5877    6.8646   -0.4394 O.3       1 ATP        -0.8003
      9 PA         -2.1760    4.4068    2.7745 P.3       1 ATP         1.7415
     10 O1A        -3.4497    4.7369    3.4974 O.2       1 ATP        -0.8661
     11 O2A        -0.8322    4.6898    3.6302 O.3       1 ATP        -0.8077
     12 O3A        -1.9401    5.2633    1.4227 O.3       1 ATP        -0.7685
     13 O5'        -2.0397    2.8622    2.3122 O.3       1 ATP        -0.5590
     14 C5'        -0.8811    2.4285    1.6206 C.3       1 ATP         0.1960
     15 C4'        -0.1994    1.3333    2.4288 C.3       1 ATP         0.0976
     16 O4'        -1.1285    0.2356    2.5840 O.3       1 ATP        -0.3865
     17 C3'         1.0324    0.7610    1.7344 C.3       1 ATP         0.0901
     18 O3'         1.9175    0.2377    2.7247 O.3       1 ATP        -0.5889
     19 C2'         0.4468   -0.3802    0.9263 C.3       1 ATP         0.0574
     20 O2'         1.3993   -1.3703    0.5961 O.3       1 ATP        -0.5923
     21 C1'        -0.6159   -0.9100    1.8769 C.3       1 ATP         0.2452
     22 N9         -1.7127   -1.6108    1.2130 N.pl3     1 ATP        -0.1834
     23 C8         -2.8662   -1.0361    0.7388 C.ar      1 ATP         0.4338
     24 N7         -3.6774   -1.9166    0.1867 N.2       1 ATP        -0.6101
     25 C5         -3.0159   -3.1045    0.3122 C.ar      1 ATP         0.2154
     26 C6         -3.4377   -4.4169   -0.1199 C.ar      1 ATP         0.6130
     27 N6         -4.5720   -4.5691   -0.7080 N.2       1 ATP        -0.8165
     28 N1         -2.4600   -5.3463    0.2071 N.pl3     1 ATP        -0.8617
     29 C2         -1.2595   -5.0554    0.8515 C.ar      1 ATP         0.6151
     30 N3         -0.8555   -3.8803    1.2516 N.2       1 ATP        -0.5797
     31 C4         -1.7946   -2.9457    0.9448 C.ar      1 ATP         0.0328
     32 HOG3        0.0088    8.9432    0.1166 H         1 ATP         0.4197
     33 HOA2       -0.7033    4.2178    4.4804 H         1 ATP         0.4550
     34 H5'1       -1.1761    2.0499    0.6365 H         1 ATP         0.0431
     35 H5'2       -0.2073    3.2811    1.4874 H         1 ATP         0.0431
     36 H4'         0.0402    1.7079    3.4342 H         1 ATP         0.1325
     37 H3'         1.5907    1.4859    1.1353 H         1 ATP         0.0782
     38 HO3'        2.6839   -0.1150    2.2479 H         1 ATP         0.4062
     39 H2'        -0.0017    0.0018    0.0005 H         1 ATP         0.0689
     40 HO2'        0.9369   -2.0558    0.0825 H         1 ATP         0.4089
     41 H1'        -0.1998   -1.6319    2.6178 H         1 ATP         0.1098
     42 H8         -3.0558    0.0252    0.8256 H         1 ATP         0.0929
     43 HN62       -4.7047   -5.5592   -0.9421 H         1 ATP         0.3678
     44 H2         -0.6372   -5.9505    1.0077 H         1 ATP         0.0383
     45 H45        -2.6338   -6.3155   -0.0469 H         1 ATP         0.4286
@<TRIPOS>BOND
     1    1    2 2
     2    1    3 1
     3    1    4 1
     4    1    8 1
     5    4   32 1
     6    5    6 2
     7    5    7 1
     8    5    8 1
     9    5   12 1
    10    9   10 2
    11    9   11 1
    12    9   12 1
    13    9   13 1
    14   11   33 1
    15   13   14 1
    16   14   15 1
    17   14   34 1
    18   14   35 1
    19   15   16 1
    20   15   17 1
    21   15   36 1
    22   16   21 1
    23   17   18 1
    24   17   19 1
    25   17   37 1
    26   18   38 1
    27   19   20 1
    28   19   21 1
    29   19   39 1
    30   20   40 1
    31   21   22 1
    32   21   41 1
    33   22   23 ar
    34   22   31 ar
    35   23   24 ar
    36   23   42 1
    37   24   25 ar
    38   25   26 ar
    39   25   31 ar
    40   26   27 2
    41   26   28 ar
    42   27   43 1
    43   28   29 ar
    44   28   45 1
    45   29   30 ar
    46   29   44 1
    47   30   31 ar
@<TRIPOS>SUBSTRUCTURE
     1 ATP         1 GROUP 0 A     ****
@<TRIPOS>MOLECULE
[[[3,4-dihydroxy-5-(6-imino-1~{H}-purin-9-yl)tetrahydrofuran-2-yl]methoxy-hydroxy-phosphoryl]oxy-oxido-phosphoryl] hydrogen phosphate
   45    47     1     0     0
SMALL
USER_CHARGES

@<TRIPOS>ATOM
      1 PG          9.6545    4.1794   -3.5783 P.3       1 ATP         1.5414
      2 O1G         9.6209    3.5938   -4.9724 O.co2     1 ATP        -0.8562
      3 O2G        10.8720    4.0167   -2.6958 O.co2     1 ATP        -0.8562
      4 O3G         9.2919    5.7685   -3.6746 O.3       1 ATP        -0.7907
      5 PB          7.9146    2.1849   -2.2530 P.3       1 ATP         1.6574
      6 O1B         7.6353    1.3227   -3.4639 O.co2     1 ATP        -0.8530
      7 O2B         8.8921    1.7405   -1.1878 O.co2     1 ATP        -0.8530
      8 O3B         8.3360    3.6767   -2.7614 O.3       1 ATP        -0.8003
      9 PA          6.1388    3.5441   -0.3139 P.3       1 ATP         1.7415
     10 O1A         6.5122    4.9778   -0.5559 O.2       1 ATP        -0.8661
     11 O2A         6.8954    2.8621    0.9433 O.3       1 ATP        -0.8077
     12 O3A         6.4925    2.5510   -1.5408 O.3       1 ATP        -0.7685
     13 O5'         4.5673    3.2930   -0.0211 O.3       1 ATP        -0.5590
     14 C5'         4.0922    1.9801    0.2227 C.3       1 ATP         0.1960
     15 C4'         2.5944    2.0310    0.4653 C.3       1 ATP         0.0976
     16 O4'         1.9327    2.5740   -0.6889 O.3       1 ATP        -0.3865
     17 C3'         1.9685    0.6634    0.6767 C.3       1 ATP         0.0901
     18 O3'         2.1425    0.1975    1.9977 O.3       1 ATP        -0.5889
     19 C2'         0.5176    0.9128    0.3099 C.3       1 ATP         0.0574
     20 O2'        -0.2103    1.4454    1.4152 O.3       1 ATP        -0.5923
     21 C1'         0.6219    1.9765   -0.7844 C.3       1 ATP         0.2452
     22 N9          0.4237    1.4496   -2.1357 N.pl3     1 ATP        -0.1834
     23 C8          1.4069    0.9710   -2.9662 C.ar      1 ATP         0.4338
     24 N7          0.9316    0.5623   -4.1260 N.2       1 ATP        -0.6101
     25 C5         -0.4120    0.7884   -4.0344 C.ar      1 ATP         0.2154
     26 C6         -1.4353    0.5283   -5.0204 C.ar      1 ATP         0.6130
     27 N6         -1.1199    0.0176   -6.1586 N.2       1 ATP        -0.8165
     28 N1         -2.6704    0.9095   -4.5147 N.pl3     1 ATP        -0.8617
     29 C2         -2.8863    1.4571   -3.2520 C.ar      1 ATP         0.6151
     30 N3         -1.9805    1.7017   -2.3442 N.2       1 ATP        -0.5797
     31 C4         -0.7561    1.3381   -2.8112 C.ar      1 ATP         0.0328
     32 HOG3        9.2726    6.2939   -2.8464 H         1 ATP         0.4197
     33 HOA2        6.7749    3.2497    1.8363 H         1 ATP         0.4550
     34 H5'1        4.3175    1.3541   -0.6468 H         1 ATP         0.0431
     35 H5'2        4.6079    1.5730    1.0985 H         1 ATP         0.0431
     36 H4'         2.3752    2.7029    1.3156 H         1 ATP         0.1325
     37 H3'         2.4336   -0.1217   -0.0016 H         1 ATP         0.0782
     38 HO3'        1.7160   -0.6716    2.0397 H         1 ATP         0.4062
     39 H2'         0.0316    0.0155   -0.0339 H         1 ATP         0.0689
     40 HO2'       -0.1608    0.7921    2.1351 H         1 ATP         0.4089
     41 H1'        -0.1474    2.7798   -0.6651 H         1 ATP         0.1098
     42 H8          2.4466    0.9468   -2.6694 H         1 ATP         0.0929
     43 HN62       -1.9661   -0.0965   -6.7275 H         1 ATP         0.3678
     44 H2         -3.9481    1.6825   -3.0660 H         1 ATP         0.0383
     45 H45        -3.4814    0.7753   -5.1133 H         1 ATP         0.4286
@<TRIPOS>BOND
     1    1    2 2
     2    1    3 1
     3    1    4 1
     4    1    8 1
     5    4   32 1
     6    5    6 2
     7    5    7 1
     8    5    8 1
     9    5   12 1
    10    9   10 2
    11    9   11 1
    12    9   12 1
    13    9   13 1
    14   11   33 1
    15   13   14 1
    16   14   15 1
    17   14   34 1
    18   14   35 1
    19   15   16 1
    20   15   17 1
    21   15   36 1
    22   16   21 1
    23   17   18 1
    24   17   19 1
    25   17   37 1
    26   18   38 1
    27   19   20 1
    28   19   21 1
    29   19   39 1
    30   20   40 1
    31   21   22 1
    32   21   41 1
    33   22   23 ar
    34   22   31 ar
    35   23   24 ar
    36   23   42 1
    37   24   25 ar
    38   25   26 ar
    39   25   31 ar
    40   26   27 2
    41   26   28 ar
    42   27   43 1
    43   28   29 ar
    44   28   45 1
    45   29   30 ar
    46   29   44 1
    47   30   31 ar
@<TRIPOS>SUBSTRUCTURE
     1 ATP         1 GROUP 0 A     ****
@<TRIPOS>MOLECULE
[[[3,4-dihydroxy-5-(6-imino-1~{H}-purin-9-yl)tetrahydrofuran-2-yl]methoxy-hydroxy-phosphoryl]oxy-oxido-phosphoryl] hydrogen phosphate
   45    47     1     0     0
SMALL
USER_CHARGES

@<TRIPOS>ATOM
      1 PG          1.8892    6.9617    5.8174 P.3       1 ATP         1.5414
      2 O1G         3.2387    6.2880    5.7046 O.co2     1 ATP        -0.8562
      3 O2G         1.2383    7.1779    7.1654 O.co2     1 ATP        -0.8562
      4 O3G         1.9587    8.3952    5.0386 O.3       1 ATP        -0.7907
      5 PB          0.2198    4.6910    4.9124 P.3       1 ATP         1.6574
      6 O1B         1.3376    3.7013    4.6700 O.co2     1 ATP        -0.8530
      7 O2B        -0.6615    4.5877    6.1373 O.co2     1 ATP        -0.8530
      8 O3B         0.8342    6.2004    4.8346 O.3       1 ATP        -0.8003
      9 PA         -0.3718    4.9776    2.0264 P.3       1 ATP         1.7415
     10 O1A         0.6640    6.0385    1.7915 O.2       1 ATP        -0.8661
     11 O2A        -1.8128    5.2955    1.3627 O.3       1 ATP        -0.8077
     12 O3A        -0.7290    4.7337    3.5851 O.3       1 ATP        -0.7685
     13 O5'         0.0171    3.5129    1.4593 O.3       1 ATP        -0.5590
     14 C5'        -0.8811    2.4285    1.6206 C.3       1 ATP         0.1960
     15 C4'        -0.1994    1.3333    2.4288 C.3       1 ATP         0.0976
     16 O4'        -1.1285    0.2356    2.5840 O.3       1 ATP        -0.3865
     17 C3'         1.0324    0.7610    1.7344 C.3       1 ATP         0.0901
     18 O3'         1.9175    0.2377    2.7247 O.3       1 ATP        -0.5889
     19 C2'         0.4468   -0.3802    0.9263 C.3       1 ATP         0.0574
     20 O2'         1.3993   -1.3703    0.5961 O.3       1 ATP        -0.5923
     21 C1'        -0.6159   -0.9100    1.8769 C.3       1 ATP         0.2452
     22 N9         -1.7127   -1.6108    1.2130 N.pl3     1 ATP        -0.1834
     23 C8         -1.7690   -2.9583    0.9549 C.ar      1 ATP         0.4338
     24 N7         -2.8827   -3.3076    0.3418 N.2       1 ATP        -0.6101
     25 C5         -3.5683   -2.1351    0.2017 C.ar      1 ATP         0.2154
     26 C6         -4.8617   -1.9185   -0.4044 C.ar      1 ATP         0.6130
     27 N6         -5.5166   -2.9094   -0.8993 N.2       1 ATP        -0.8165
     28 N1         -5.1837   -0.5701   -0.3344 N.pl3     1 ATP        -0.8617
     29 C2         -4.3821    0.4180    0.2330 C.ar      1 ATP         0.6151
     30 N3         -3.2117    0.2488    0.7860 N.2       1 ATP        -0.5797
     31 C4         -2.8672   -1.0657    0.7327 C.ar      1 ATP         0.0328
     32 HOG3        1.1544    8.9566    5.0217 H         1 ATP         0.4197
     33 HOA2       -1.8712    5.4150    0.3908 H         1 ATP         0.4550
     34 H5'1       -1.7775    2.7843    2.1389 H         1 ATP         0.0431
     35 H5'2       -1.1658    2.0534    0.6322 H         1 ATP         0.0431
     36 H4'         0.0402    1.7079    3.4342 H         1 ATP         0.1325
     37 H3'         1.5907    1.4859    1.1353 H         1 ATP         0.0782
     38 HO3'        2.6839   -0.1150    2.2479 H         1 ATP         0.4062
     39 H2'        -0.0017    0.0018    0.0005 H         1 ATP         0.0689
     40 HO2'        2.0953   -0.9375    0.0709 H         1 ATP         0.4089
     41 H1'        -0.1998   -1.6319    2.6178 H         1 ATP         0.1098
     42 H8         -0.9697   -3.6300    1.2371 H         1 ATP         0.0929
     43 HN62       -6.4060   -2.5723   -1.2840 H         1 ATP         0.3678
     44 H2         -4.8409    1.4176    0.1757 H         1 ATP         0.0383
     45 H45        -6.0768   -0.2826   -0.7263 H         1 ATP         0.4286
@<TRIPOS>BOND
     1    1    2 2
     2    1    3 1
     3    1    4 1
     4    1    8 1
     5    4   32 1
     6    5    6 2
     7    5    7 1
     8    5    8 1
     9    5   12 1
    10    9   10 2
    11    9   11 1
    12    9   12 1
    13    9   13 1
    14   11   33 1
    15   13   14 1
    16   14   15 1
    17   14   34 1
    18   14   35 1
    19   15   16 1
    20   15   17 1
    21   15   36 1
    22   16   21 1
    23   17   18 1
    24   17   19 1
    25   17   37 1
    26   18   38 1
    27   19   20 1
    28   19   21 1
    29   19   39 1
    30   20   40 1
    31   21   22 1
    32   21   41 1
    33   22   23 ar
    34   22   31 ar
    35   23   24 ar
    36   23   42 1
    37   24   25 ar
    38   25   26 ar
    39   25   31 ar
    40   26   27 2
    41   26   28 ar
    42   27   43 1
    43   28   29 ar
    44   28   45 1
    45   29   30 ar
    46   29   44 1
    47   30   31 ar
@<TRIPOS>SUBSTRUCTURE
     1 ATP         1 GROUP 0 A     ****
@<TRIPOS>MOLECULE
[[[3,4-dihydroxy-5-(6-imino-1~{H}-purin-9-yl)tetrahydrofuran-2-yl]methoxy-hydroxy-phosphoryl]oxy-oxido-phosphoryl] hydrogen phosphate
   45    47     1     0     0
SMALL
USER_CHARGES

@<TRIPOS>ATOM
      1 PG          7.3331    5.4517   -0.7701 P.3       1 ATP         1.5414
      2 O1G         6.0728    6.2862   -0.8247 O.co2     1 ATP        -0.8562
      3 O2G         7.4732    4.1993   -1.6064 O.co2     1 ATP        -0.8562
      4 O3G         8.6111    6.4225   -1.0711 O.3       1 ATP        -0.7907
      5 PB          6.8510    4.1504    1.8445 P.3       1 ATP         1.6574
      6 O1B         7.6787    4.0163    3.1033 O.co2     1 ATP        -0.8530
      7 O2B         5.4122    4.6132    1.9027 O.co2     1 ATP        -0.8530
      8 O3B         7.6614    5.0905    0.7856 O.3       1 ATP        -0.8003
      9 PA          6.3383    1.2702    1.3945 P.3       1 ATP         1.7415
     10 O1A         6.8885    0.6904    2.6653 O.2       1 ATP        -0.8661
     11 O2A         6.6702    0.4038    0.0690 O.3       1 ATP        -0.8077
     12 O3A         6.9154    2.7370    1.0311 O.3       1 ATP        -0.7685
     13 O5'         4.7296    1.4429    1.3689 O.3       1 ATP        -0.5590
     14 C5'         4.0922    1.9801    0.2227 C.3       1 ATP         0.1960
     15 C4'         2.5944    2.0310    0.4653 C.3       1 ATP         0.0976
     16 O4'         1.9327    2.5740   -0.6889 O.3       1 ATP        -0.3865
     17 C3'         1.9685    0.6634    0.6767 C.3       1 ATP         0.0901
     18 O3'         2.1425    0.1975    1.9977 O.3       1 ATP        -0.5889
     19 C2'         0.5176    0.9128    0.3099 C.3       1 ATP         0.0574
     20 O2'        -0.2103    1.4454    1.4152 O.3       1 ATP        -0.5923
     21 C1'         0.6219    1.9765   -0.7844 C.3       1 ATP         0.2452
     22 N9          0.4237    1.4496   -2.1357 N.pl3     1 ATP        -0.1834
     23 C8          1.4069    0.9710   -2.9662 C.ar      1 ATP         0.4338
     24 N7          0.9316    0.5623   -4.1260 N.2       1 ATP        -0.6101
     25 C5         -0.4120    0.7884   -4.0344 C.ar      1 ATP         0.2154
     26 C6         -1.4353    0.5283   -5.0204 C.ar      1 ATP         0.6130
     27 N6         -1.1199    0.0176   -6.1586 N.2       1 ATP        -0.8165
     28 N1         -2.6704    0.9095   -4.5147 N.pl3     1 ATP        -0.8617
     29 C2         -2.8863    1.4571   -3.2520 C.ar      1 ATP         0.6151
     30 N3         -1.9805    1.7017   -2.3442 N.2       1 ATP        -0.5797
     31 C4         -0.7561    1.3381   -2.8112 C.ar      1 ATP         0.0328
     32 HOG3        9.5084    6.0261   -1.0710 H         1 ATP         0.4197
     33 HOA2        6.3519   -0.5225    0.0159 H         1 ATP         0.4550
     34 H5'1        4.4838    2.9857    0.0375 H         1 ATP         0.0431
     35 H5'2        4.3186    1.3449   -0.6398 H         1 ATP         0.0431
     36 H4'         2.3752    2.7029    1.3156 H         1 ATP         0.1325
     37 H3'         2.4336   -0.1217   -0.0016 H         1 ATP         0.0782
     38 HO3'        3.0987    0.1465    2.1461 H         1 ATP         0.4062
     39 H2'         0.0316    0.0155   -0.0339 H         1 ATP         0.0689
     40 HO2'       -1.1270    1.5823    1.1180 H         1 ATP         0.4089
     41 H1'        -0.1474    2.7798   -0.6651 H         1 ATP         0.1098
     42 H8          2.4466    0.9468   -2.6694 H         1 ATP         0.0929
     43 HN62       -1.9661   -0.0965   -6.7275 H         1 ATP         0.3678
     44 H2         -3.9481    1.6825   -3.0660 H         1 ATP         0.0383
     45 H45        -3.4814    0.7753   -5.1133 H         1 ATP         0.4286
@<TRIPOS>BOND
     1    1    2 2
     2    1    3 1
     3    1    4 1
     4    1    8 1
     5    4   32 1
     6    5    6 2
     7    5    7 1
     8    5    8 1
     9    5   12 1
    10    9   10 2
    11    9   11 1
    12    9   12 1
    13    9   13 1
    14   11   33 1
    15   13   14 1
    16   14   15 1
    17   14   34 1
    18   14   35 1
    19   15   16 1
    20   15   17 1
    21   15   36 1
    22   16   21 1
    23   17   18 1
    24   17   19 1
    25   17   37 1
    26   18   38 1
    27   19   20 1
    28   19   21 1
    29   19   39 1
    30   20   40 1
    31   21   22 1
    32   21   41 1
    33   22   23 ar
    34   22   31 ar
    35   23   24 ar
    36   23   42 1
    37   24   25 ar
    38   25   26 ar
    39   25   31 ar
    40   26   27 2
    41   26   28 ar
    42   27   43 1
    43   28   29 ar
    44   28   45 1
    45   29   30 ar
    46   29   44 1
    47   30   31 ar
@<TRIPOS>SUBSTRUCTURE
     1 ATP         1 GROUP 0 A     ****
@<TRIPOS>MOLECULE
[[[3,4-dihydroxy-5-(6-imino-1~{H}-purin-9-yl)tetrahydrofuran-2-yl]methoxy-hydroxy-phosphoryl]oxy-oxido-phosphoryl] hydrogen phosphate
   45    47     1     0     0
SMALL
USER_CHARGES

@<TRIPOS>ATOM
      1 PG          6.0412    1.1004   -5.1320 P.3       1 ATP         1.5414
      2 O1G         6.8010    0.5147   -3.9627 O.co2     1 ATP        -0.8562
      3 O2G         6.7416    1.9545   -6.1651 O.co2     1 ATP        -0.8562
      4 O3G         5.2608   -0.1099   -5.9016 O.3       1 ATP        -0.7907
      5 PB          4.6535    3.2710   -3.6742 P.3       1 ATP         1.6574
      6 O1B         5.4610    4.3512   -4.3589 O.co2     1 ATP        -0.8530
      7 O2B         3.2104    3.5038   -3.2857 O.co2     1 ATP        -0.8530
      8 O3B         4.7425    1.9087   -4.5674 O.3       1 ATP        -0.8003
      9 PA          5.8506    3.5249   -0.9791 P.3       1 ATP         1.7415
     10 O1A         6.2523    4.9605   -1.1558 O.2       1 ATP        -0.8661
     11 O2A         7.0027    2.5847   -0.3414 O.3       1 ATP        -0.8077
     12 O3A         5.4767    2.7667   -2.3582 O.3       1 ATP        -0.7685
     13 O5'         4.5673    3.2930   -0.0211 O.3       1 ATP        -0.5590
     14 C5'         4.0922    1.9801    0.2227 C.3       1 ATP         0.1960
     15 C4'         2.5944    2.0310    0.4653 C.3       1 ATP         0.0976
     16 O4'         1.9327    2.5740   -0.6889 O.3       1 ATP        -0.3865
     17 C3'         1.9685    0.6634    0.6767 C.3       1 ATP         0.0901
     18 O3'         2.1425    0.1975    1.9977 O.3       1 ATP        -0.5889
     19 C2'         0.5176    0.9128    0.3099 C.3       1 ATP         0.0574
     20 O2'        -0.2103    1.4454    1.4152 O.3       1 ATP        -0.5923
     21 C1'         0.6219    1.9765   -0.7844 C.3       1 ATP         0.2452
     22 N9          0.4237    1.4496   -2.1357 N.pl3     1 ATP        -0.1834
     23 C8          1.4069    0.9710   -2.9662 C.ar      1 ATP         0.4338
     24 N7          0.9316    0.5623   -4.1260 N.2       1 ATP        -0.6101
     25 C5         -0.4120    0.7884   -4.0344 C.ar      1 ATP         0.2154
     26 C6         -1.4353    0.5283   -5.0204 C.ar      1 ATP         0.6130
     27 N6         -1.1199    0.0176   -6.1586 N.2       1 ATP        -0.8165
     28 N1         -2.6704    0.9095   -4.5147 N.pl3     1 ATP        -0.8617
     29 C2         -2.8863    1.4571   -3.2520 C.ar      1 ATP         0.6151
     30 N3         -1.9805    1.7017   -2.3442 N.2       1 ATP        -0.5797
     31 C4         -0.7561    1.3381   -2.8112 C.ar      1 ATP         0.0328
     32 HOG3        4.7187    0.1107   -6.6889 H         1 ATP         0.4197
     33 HOA2        7.8561    2.4926   -0.8161 H         1 ATP         0.4550
     34 H5'1        4.3175    1.3541   -0.6468 H         1 ATP         0.0431
     35 H5'2        4.6079    1.5730    1.0985 H         1 ATP         0.0431
     36 H4'         2.3752    2.7029    1.3156 H         1 ATP         0.1325
     37 H3'         2.4336   -0.1217   -0.0016 H         1 ATP         0.0782
     38 HO3'        3.0987    0.1465    2.1461 H         1 ATP         0.4062
     39 H2'         0.0316    0.0155   -0.0339 H         1 ATP         0.0689
     40 HO2'       -1.1270    1.5823    1.1180 H         1 ATP         0.4089
     41 H1'        -0.1474    2.7798   -0.6651 H         1 ATP         0.1098
     42 H8          2.4466    0.9468   -2.6694 H         1 ATP         0.0929
     43 HN62       -1.9661   -0.0965   -6.7275 H         1 ATP         0.3678
     44 H2         -3.9481    1.6825   -3.0660 H         1 ATP         0.0383
     45 H45        -3.4814    0.7753   -5.1133 H         1 ATP         0.4286
@<TRIPOS>BOND
     1    1    2 2
     2    1    3 1
     3    1    4 1
     4    1    8 1
     5    4   32 1
     6    5    6 2
     7    5    7 1
     8    5    8 1
     9    5   12 1
    10    9   10 2
    11    9   11 1
    12    9   12 1
    13    9   13 1
    14   11   33 1
    15   13   14 1
    16   14   15 1
    17   14   34 1
    18   14   35 1
    19   15   16 1
    20   15   17 1
    21   15   36 1
    22   16   21 1
    23   17   18 1
    24   17   19 1
    25   17   37 1
    26   18   38 1
    27   19   20 1
    28   19   21 1
    29   19   39 1
    30   20   40 1
    31   21   22 1
    32   21   41 1
    33   22   23 ar
    34   22   31 ar
    35   23   24 ar
    36   23   42 1
    37   24   25 ar
    38   25   26 ar
    39   25   31 ar
    40   26   27 2
    41   26   28 ar
    42   27   43 1
    43   28   29 ar
    44   28   45 1
    45   29   30 ar
    46   29   44 1
    47   30   31 ar
@<TRIPOS>SUBSTRUCTURE
     1 ATP         1 GROUP 0 A     ****
@<TRIPOS>MOLECULE
[[[3,4-dihydroxy-5-(6-imino-1~{H}-purin-9-yl)tetrahydrofuran-2-yl]methoxy-hydroxy-phosphoryl]oxy-oxido-phosphoryl] hydrogen phosphate
   45    47     1     0     0
SMALL
USER_CHARGES

@<TRIPOS>ATOM
      1 PG         -3.6944    4.6021   -3.4169 P.3       1 ATP         1.5414
      2 O1G        -3.6834    3.1484   -3.8342 O.co2     1 ATP        -0.8562
      3 O2G        -2.9869    5.6534   -4.2425 O.co2     1 ATP        -0.8562
      4 O3G        -5.2444    5.0679   -3.2011 O.3       1 ATP        -0.7907
      5 PB         -3.7139    3.9441   -0.5310 P.3       1 ATP         1.6574
      6 O1B        -5.1195    4.4118   -0.2257 O.co2     1 ATP        -0.8530
      7 O2B        -3.3921    2.4716   -0.6576 O.co2     1 ATP        -0.8530
      8 O3B        -3.1884    4.7124   -1.8708 O.3       1 ATP        -0.8003
      9 PA         -2.5525    4.3888    2.1550 P.3       1 ATP         1.7415
     10 O1A        -3.7892    4.7207    2.9387 O.2       1 ATP        -0.8661
     11 O2A        -1.2618    5.2871    2.5359 O.3       1 ATP        -0.8077
     12 O3A        -2.6994    4.6113    0.5595 O.3       1 ATP        -0.7685
     13 O5'        -2.0397    2.8622    2.3122 O.3       1 ATP        -0.5590
     14 C5'        -0.8811    2.4285    1.6206 C.3       1 ATP         0.1960
     15 C4'        -0.1994    1.3333    2.4288 C.3       1 ATP         0.0976
     16 O4'        -1.1285    0.2356    2.5840 O.3       1 ATP        -0.3865
     17 C3'         1.0324    0.7610    1.7344 C.3       1 ATP         0.0901
     18 O3'         1.9175    0.2377    2.7247 O.3       1 ATP        -0.5889
     19 C2'         0.4468   -0.3802    0.9263 C.3       1 ATP         0.0574
     20 O2'         1.3993   -1.3703    0.5961 O.3       1 ATP        -0.5923
     21 C1'        -0.6159   -0.9100    1.8769 C.3       1 ATP         0.2452
     22 N9         -1.7127   -1.6108    1.2130 N.pl3     1 ATP        -0.1834
     23 C8         -2.5485   -1.0808    0.2609 C.ar      1 ATP         0.4338
     24 N7         -3.4476   -1.9486   -0.1593 N.2       1 ATP        -0.6101
     25 C5         -3.1762   -3.0816    0.5530 C.ar      1 ATP         0.2154
     26 C6         -3.8510   -4.3579    0.5006 C.ar      1 ATP         0.6130
     27 N6         -4.8468   -4.5293   -0.2961 N.2       1 ATP        -0.8165
     28 N1         -3.2499   -5.2342    1.3937 N.pl3     1 ATP        -0.8617
     29 C2         -2.1646   -4.9275    2.2116 C.ar      1 ATP         0.6151
     30 N3         -1.5382   -3.7840    2.2778 N.2       1 ATP        -0.5797
     31 C4         -2.1054   -2.9018    1.4120 C.ar      1 ATP         0.0328
     32 HOG3       -5.7832    4.5993   -2.5285 H         1 ATP         0.4197
     33 HOA2       -0.9230    5.2641    3.4562 H         1 ATP         0.4550
     34 H5'1       -1.1761    2.0499    0.6365 H         1 ATP         0.0431
     35 H5'2       -0.2073    3.2811    1.4874 H         1 ATP         0.0431
     36 H4'         0.0402    1.7079    3.4342 H         1 ATP         0.1325
     37 H3'         1.5907    1.4859    1.1353 H         1 ATP         0.0782
     38 HO3'        2.6839   -0.1150    2.2479 H         1 ATP         0.4062
     39 H2'        -0.0017    0.0018    0.0005 H         1 ATP         0.0689
     40 HO2'        0.9369   -2.0558    0.0825 H         1 ATP         0.4089
     41 H1'        -0.1998   -1.6319    2.6178 H         1 ATP         0.1098
     42 H8         -2.4515   -0.0599   -0.0829 H         1 ATP         0.0929
     43 HN62       -5.1990   -5.4882   -0.2005 H         1 ATP         0.3678
     44 H2         -1.8555   -5.7783    2.8388 H         1 ATP         0.0383
     45 H45        -3.6312   -6.1750    1.4526 H         1 ATP         0.4286
@<TRIPOS>BOND
     1    1    2 2
     2    1    3 1
     3    1    4 1
     4    1    8 1
     5    4   32 1
     6    5    6 2
     7    5    7 1
     8    5    8 1
     9    5   12 1
    10    9   10 2
    11    9   11 1
    12    9   12 1
    13    9   13 1
    14   11   33 1
    15   13   14 1
    16   14   15 1
    17   14   34 1
    18   14   35 1
    19   15   16 1
    20   15   17 1
    21   15   36 1
    22   16   21 1
    23   17   18 1
    24   17   19 1
    25   17   37 1
    26   18   38 1
    27   19   20 1
    28   19   21 1
    29   19   39 1
    30   20   40 1
    31   21   22 1
    32   21   41 1
    33   22   23 ar
    34   22   31 ar
    35   23   24 ar
    36   23   42 1
    37   24   25 ar
    38   25   26 ar
    39   25   31 ar
    40   26   27 2
    41   26   28 ar
    42   27   43 1
    43   28   29 ar
    44   28   45 1
    45   29   30 ar
    46   29   44 1
    47   30   31 ar
@<TRIPOS>SUBSTRUCTURE
     1 ATP         1 GROUP 0 A     ****
@<TRIPOS>MOLECULE
[[[3,4-dihydroxy-5-(6-imino-1~{H}-purin-9-yl)tetrahydrofuran-2-yl]methoxy-hydroxy-phosphoryl]oxy-oxido-phosphoryl] hydrogen phosphate
   45    47     1     0     0
SMALL
USER_CHARGES

@<TRIPOS>ATOM
      1 PG         -1.8641    4.9328    7.5189 P.3       1 ATP         1.5414
      2 O1G        -1.5435    3.6943    8.3256 O.co2     1 ATP        -0.8562
      3 O2G        -3.2595    5.5159    7.5109 O.co2     1 ATP        -0.8562
      4 O3G        -0.8120    6.1098    7.9357 O.3       1 ATP        -0.7907
      5 PB         -1.3291    5.7397    4.7216 P.3       1 ATP         1.6574
      6 O1B        -2.7473    6.1012    4.3399 O.co2     1 ATP        -0.8530
      7 O2B        -0.3026    6.8116    5.0136 O.co2     1 ATP        -0.8530
      8 O3B        -1.3764    4.7026    5.9801 O.3       1 ATP        -0.8003
      9 PA         -0.3718    4.9776    2.0264 P.3       1 ATP         1.7415
     10 O1A         0.6640    6.0385    1.7915 O.2       1 ATP        -0.8661
     11 O2A        -1.8128    5.2955    1.3627 O.3       1 ATP        -0.8077
     12 O3A        -0.7290    4.7337    3.5851 O.3       1 ATP        -0.7685
     13 O5'         0.0171    3.5129    1.4593 O.3       1 ATP        -0.5590
     14 C5'        -0.8811    2.4285    1.6206 C.3       1 ATP         0.1960
     15 C4'        -0.1994    1.3333    2.4288 C.3       1 ATP         0.0976
     16 O4'        -1.1285    0.2356    2.5840 O.3       1 ATP        -0.3865
     17 C3'         1.0324    0.7610    1.7344 C.3       1 ATP         0.0901
     18 O3'         1.9175    0.2377    2.7247 O.3       1 ATP        -0.5889
     19 C2'         0.4468   -0.3802    0.9263 C.3       1 ATP         0.0574
     20 O2'         1.3993   -1.3703    0.5961 O.3       1 ATP        -0.5923
     21 C1'        -0.6159   -0.9100    1.8769 C.3       1 ATP         0.2452
     22 N9         -1.7127   -1.6108    1.2130 N.pl3     1 ATP        -0.1834
     23 C8         -1.7690   -2.9583    0.9549 C.ar      1 ATP         0.4338
     24 N7         -2.8827   -3.3076    0.3418 N.2       1 ATP        -0.6101
     25 C5         -3.5683   -2.1351    0.2017 C.ar      1 ATP         0.2154
     26 C6         -4.8617   -1.9185   -0.4044 C.ar      1 ATP         0.6130
     27 N6         -5.5166   -2.9094   -0.8993 N.2       1 ATP        -0.8165
     28 N1         -5.1837   -0.5701   -0.3344 N.pl3     1 ATP        -0.8617
     29 C2         -4.3821    0.4180    0.2330 C.ar      1 ATP         0.6151
     30 N3         -3.2117    0.2488    0.7860 N.2       1 ATP        -0.5797
     31 C4         -2.8672   -1.0657    0.7327 C.ar      1 ATP         0.0328
     32 HOG3       -0.8903    6.9831    7.4957 H         1 ATP         0.4197
     33 HOA2       -1.8712    5.4150    0.3908 H         1 ATP         0.4550
     34 H5'1       -1.7775    2.7843    2.1389 H         1 ATP         0.0431
     35 H5'2       -1.1658    2.0534    0.6322 H         1 ATP         0.0431
     36 H4'         0.0402    1.7079    3.4342 H         1 ATP         0.1325
     37 H3'         1.5907    1.4859    1.1353 H         1 ATP         0.0782
     38 HO3'        2.6839   -0.1150    2.2479 H         1 ATP         0.4062
     39 H2'        -0.0017    0.0018    0.0005 H         1 ATP         0.0689
     40 HO2'        2.0953   -0.9375    0.0709 H         1 ATP         0.4089
     41 H1'        -0.1998   -1.6319    2.6178 H         1 ATP         0.1098
     42 H8         -0.9697   -3.6300    1.2371 H         1 ATP         0.0929
     43 HN62       -6.4060   -2.5723   -1.2840 H         1 ATP         0.3678
     44 H2         -4.8409    1.4176    0.1757 H         1 ATP         0.0383
     45 H45        -6.0768   -0.2826   -0.7263 H         1 ATP         0.4286
@<TRIPOS>BOND
     1    1    2 2
     2    1    3 1
     3    1    4 1
     4    1    8 1
     5    4   32 1
     6    5    6 2
     7    5    7 1
     8    5    8 1
     9    5   12 1
    10    9   10 2
    11    9   11 1
    12    9   12 1
    13    9   13 1
    14   11   33 1
    15   13   14 1
    16   14   15 1
    17   14   34 1
    18   14   35 1
    19   15   16 1
    20   15   17 1
    21   15   36 1
    22   16   21 1
    23   17   18 1
    24   17   19 1
    25   17   37 1
    26   18   38 1
    27   19   20 1
    28   19   21 1
    29   19   39 1
    30   20   40 1
    31   21   22 1
    32   21   41 1
    33   22   23 ar
    34   22   31 ar
    35   23   24 ar
    36   23   42 1
    37   24   25 ar
    38   25   26 ar
    39   25   31 ar
    40   26   27 2
    41   26   28 ar
    42   27   43 1
    43   28   29 ar
    44   28   45 1
    45   29   30 ar
    46   29   44 1
    47   30   31 ar
@<TRIPOS>SUBSTRUCTURE
     1 ATP         1 GROUP 0 A     ****
@<TRIPOS>MOLECULE
[[[3,4-dihydroxy-5-(6-imino-1~{H}-purin-9-yl)tetrahydrofuran-2-yl]methoxy-hydroxy-phosphoryl]oxy-oxido-phosphoryl] hydrogen phosphate
   45    47     1     0     0
SMALL
USER_CHARGES

@<TRIPOS>ATOM
      1 PG         -2.0719    7.0771   -2.2508 P.3       1 ATP         1.5414
      2 O1G        -2.2813    5.9591   -3.2477 O.co2     1 ATP        -0.8562
      3 O2G        -1.0042    8.1254   -2.4710 O.co2     1 ATP        -0.8562
      4 O3G        -3.4996    7.8325   -2.0117 O.3       1 ATP        -0.7907
      5 PB         -2.8249    5.3825    0.0564 P.3       1 ATP         1.6574
      6 O1B        -4.1326    6.0648    0.3912 O.co2     1 ATP        -0.8530
      7 O2B        -2.8011    4.0487   -0.6565 O.co2     1 ATP        -0.8530
      8 O3B        -1.8844    6.4326   -0.7649 O.3       1 ATP        -0.8003
      9 PA         -2.1760    4.4068    2.7745 P.3       1 ATP         1.7415
     10 O1A        -3.4497    4.7369    3.4974 O.2       1 ATP        -0.8661
     11 O2A        -0.8322    4.6898    3.6302 O.3       1 ATP        -0.8077
     12 O3A        -1.9401    5.2633    1.4227 O.3       1 ATP        -0.7685
     13 O5'        -2.0397    2.8622    2.3122 O.3       1 ATP        -0.5590
     14 C5'        -0.8811    2.4285    1.6206 C.3       1 ATP         0.1960
     15 C4'        -0.1994    1.3333    2.4288 C.3       1 ATP         0.0976
     16 O4'        -1.1285    0.2356    2.5840 O.3       1 ATP        -0.3865
     17 C3'         1.0324    0.7610    1.7344 C.3       1 ATP         0.0901
     18 O3'         1.9175    0.2377    2.7247 O.3       1 ATP        -0.5889
     19 C2'         0.4468   -0.3802    0.9263 C.3       1 ATP         0.0574
     20 O2'         1.3993   -1.3703    0.5961 O.3       1 ATP        -0.5923
     21 C1'        -0.6159   -0.9100    1.8769 C.3       1 ATP         0.2452
     22 N9         -1.7127   -1.6108    1.2130 N.pl3     1 ATP        -0.1834
     23 C8         -1.7690   -2.9583    0.9549 C.ar      1 ATP         0.4338
     24 N7         -2.8827   -3.3076    0.3418 N.2       1 ATP        -0.6101
     25 C5         -3.5683   -2.1351    0.2017 C.ar      1 ATP         0.2154
     26 C6         -4.8617   -1.9185   -0.4044 C.ar      1 ATP         0.6130
     27 N6         -5.5166   -2.9094   -0.8993 N.2       1 ATP        -0.8165
     28 N1         -5.1837   -0.5701   -0.3344 N.pl3     1 ATP        -0.8617
     29 C2         -4.3821    0.4180    0.2330 C.ar      1 ATP         0.6151
     30 N3         -3.2117    0.2488    0.7860 N.2       1 ATP        -0.5797
     31 C4         -2.8672   -1.0657    0.7327 C.ar      1 ATP         0.0328
     32 HOG3       -4.2520    7.3088   -1.6623 H         1 ATP         0.4197
     33 HOA2       -0.7033    4.2178    4.4804 H         1 ATP         0.4550
     34 H5'1       -1.1761    2.0499    0.6365 H         1 ATP         0.0431
     35 H5'2       -0.2073    3.2811    1.4874 H         1 ATP         0.0431
     36 H4'         0.0402    1.7079    3.4342 H         1 ATP         0.1325
     37 H3'         1.5907    1.4859    1.1353 H         1 ATP         0.0782
     38 HO3'        2.1521    0.9800    3.3017 H         1 ATP         0.4062
     39 H2'        -0.0017    0.0018    0.0005 H         1 ATP         0.0689
     40 HO2'        0.9369   -2.0558    0.0825 H         1 ATP         0.4089
     41 H1'        -0.1998   -1.6319    2.6178 H         1 ATP         0.1098
     42 H8         -0.9697   -3.6300    1.2371 H         1 ATP         0.0929
     43 HN62       -6.4060   -2.5723   -1.2840 H         1 ATP         0.3678
     44 H2         -4.8409    1.4176    0.1757 H         1 ATP         0.0383
     45 H45        -6.0768   -0.2826   -0.7263 H         1 ATP         0.4286
@<TRIPOS>BOND
     1    1    2 2
     2    1    3 1
     3    1    4 1
     4    1    8 1
     5    4   32 1
     6    5    6 2
     7    5    7 1
     8    5    8 1
     9    5   12 1
    10    9   10 2
    11    9   11 1
    12    9   12 1
    13    9   13 1
    14   11   33 1
    15   13   14 1
    16   14   15 1
    17   14   34 1
    18   14   35 1
    19   15   16 1
    20   15   17 1
    21   15   36 1
    22   16   21 1
    23   17   18 1
    24   17   19 1
    25   17   37 1
    26   18   38 1
    27   19   20 1
    28   19   21 1
    29   19   39 1
    30   20   40 1
    31   21   22 1
    32   21   41 1
    33   22   23 ar
    34   22   31 ar
    35   23   24 ar
    36   23   42 1
    37   24   25 ar
    38   25   26 ar
    39   25   31 ar
    40   26   27 2
    41   26   28 ar
    42   27   43 1
    43   28   29 ar
    44   28   45 1
    45   29   30 ar
    46   29   44 1
    47   30   31 ar
@<TRIPOS>SUBSTRUCTURE
     1 ATP         1 GROUP 0 A     ****
@<TRIPOS>MOLECULE
[[[3,4-dihydroxy-5-(6-imino-1~{H}-purin-9-yl)tetrahydrofuran-2-yl]methoxy-hydroxy-phosphoryl]oxy-oxido-phosphoryl] hydrogen phosphate
   45    47     1     0     0
SMALL
USER_CHARGES

@<TRIPOS>ATOM
      1 PG         -5.1080    5.6130    4.2383 P.3       1 ATP         1.5414
      2 O1G        -5.1979    5.7354    2.7335 O.co2     1 ATP        -0.8562
      3 O2G        -4.9855    6.8411    5.1124 O.co2     1 ATP        -0.8562
      4 O3G        -6.3750    4.7267    4.7630 O.3       1 ATP        -0.7907
      5 PB         -2.2964    4.7029    4.4090 P.3       1 ATP         1.6574
      6 O1B        -1.8335    6.0012    5.0316 O.co2     1 ATP        -0.8530
      7 O2B        -1.6518    3.3861    4.7807 O.co2     1 ATP        -0.8530
      8 O3B        -3.9098    4.5728    4.6138 O.3       1 ATP        -0.8003
      9 PA         -1.0201    5.0520    1.7613 P.3       1 ATP         1.7415
     10 O1A        -0.1913    6.2779    2.0142 O.2       1 ATP        -0.8661
     11 O2A        -1.7336    5.0186    0.3095 O.3       1 ATP        -0.8077
     12 O3A        -2.2583    4.8663    2.7856 O.3       1 ATP        -0.7685
     13 O5'        -0.2068    3.6554    1.8412 O.3       1 ATP        -0.5590
     14 C5'        -0.8811    2.4285    1.6206 C.3       1 ATP         0.1960
     15 C4'        -0.1994    1.3333    2.4288 C.3       1 ATP         0.0976
     16 O4'        -1.1285    0.2356    2.5840 O.3       1 ATP        -0.3865
     17 C3'         1.0324    0.7610    1.7344 C.3       1 ATP         0.0901
     18 O3'         1.9175    0.2377    2.7247 O.3       1 ATP        -0.5889
     19 C2'         0.4468   -0.3802    0.9263 C.3       1 ATP         0.0574
     20 O2'         1.3993   -1.3703    0.5961 O.3       1 ATP        -0.5923
     21 C1'        -0.6159   -0.9100    1.8769 C.3       1 ATP         0.2452
     22 N9         -1.7127   -1.6108    1.2130 N.pl3     1 ATP        -0.1834
     23 C8         -2.0868   -2.9137    1.4327 C.ar      1 ATP         0.4338
     24 N7         -3.1125   -3.2756    0.6878 N.2       1 ATP        -0.6101
     25 C5         -3.4079   -2.1580   -0.0391 C.ar      1 ATP         0.2154
     26 C6         -4.4483   -1.9775   -1.0249 C.ar      1 ATP         0.6130
     27 N6         -5.2418   -2.9492   -1.3113 N.2       1 ATP        -0.8165
     28 N1         -4.3937   -0.6823   -1.5211 N.pl3     1 ATP        -0.8617
     29 C2         -3.4770    0.2901   -1.1271 C.ar      1 ATP         0.6151
     30 N3         -2.5289    0.1525   -0.2402 N.2       1 ATP        -0.5797
     31 C4         -2.5564   -1.1096    0.2655 C.ar      1 ATP         0.0328
     32 HOG3       -6.4589    4.5565    5.7255 H         1 ATP         0.4197
     33 HOA2       -2.3631    5.7331    0.0740 H         1 ATP         0.4550
     34 H5'1       -1.9259    2.5372    1.9293 H         1 ATP         0.0431
     35 H5'2       -0.8477    2.1923    0.5521 H         1 ATP         0.0431
     36 H4'         0.0402    1.7079    3.4342 H         1 ATP         0.1325
     37 H3'         1.5907    1.4859    1.1353 H         1 ATP         0.0782
     38 HO3'        2.6839   -0.1150    2.2479 H         1 ATP         0.4062
     39 H2'        -0.0017    0.0018    0.0005 H         1 ATP         0.0689
     40 HO2'        0.9369   -2.0558    0.0825 H         1 ATP         0.4089
     41 H1'        -0.1998   -1.6319    2.6178 H         1 ATP         0.1098
     42 H8         -1.5740   -3.5449    2.1457 H         1 ATP         0.0929
     43 HN62       -5.9117   -2.6433   -2.0256 H         1 ATP         0.3678
     44 H2         -3.6225    1.2454   -1.6553 H         1 ATP         0.0383
     45 H45        -5.0794   -0.4231   -2.2258 H         1 ATP         0.4286
@<TRIPOS>BOND
     1    1    2 2
     2    1    3 1
     3    1    4 1
     4    1    8 1
     5    4   32 1
     6    5    6 2
     7    5    7 1
     8    5    8 1
     9    5   12 1
    10    9   10 2
    11    9   11 1
    12    9   12 1
    13    9   13 1
    14   11   33 1
    15   13   14 1
    16   14   15 1
    17   14   34 1
    18   14   35 1
    19   15   16 1
    20   15   17 1
    21   15   36 1
    22   16   21 1
    23   17   18 1
    24   17   19 1
    25   17   37 1
    26   18   38 1
    27   19   20 1
    28   19   21 1
    29   19   39 1
    30   20   40 1
    31   21   22 1
    32   21   41 1
    33   22   23 ar
    34   22   31 ar
    35   23   24 ar
    36   23   42 1
    37   24   25 ar
    38   25   26 ar
    39   25   31 ar
    40   26   27 2
    41   26   28 ar
    42   27   43 1
    43   28   29 ar
    44   28   45 1
    45   29   30 ar
    46   29   44 1
    47   30   31 ar
@<TRIPOS>SUBSTRUCTURE
     1 ATP         1 GROUP 0 A     ****
@<TRIPOS>MOLECULE
[[[3,4-dihydroxy-5-(6-imino-1~{H}-purin-9-yl)tetrahydrofuran-2-yl]methoxy-hydroxy-phosphoryl]oxy-oxido-phosphoryl] hydrogen phosphate
   45    47     1     0     0
SMALL
USER_CHARGES

@<TRIPOS>ATOM
      1 PG          9.2478   -0.4616    1.7451 P.3       1 ATP         1.5414
      2 O1G         9.4664    0.8608    1.0444 O.co2     1 ATP        -0.8562
      3 O2G         9.9002   -1.7280    1.2369 O.co2     1 ATP        -0.8562
      4 O3G         9.6253   -0.2806    3.3234 O.3       1 ATP        -0.7907
      5 PB          6.5028   -0.9926    0.7732 P.3       1 ATP         1.6574
      6 O1B         6.9512   -2.1468   -0.0954 O.co2     1 ATP        -0.8530
      7 O2B         5.1471   -1.0020    1.4440 O.co2     1 ATP        -0.8530
      8 O3B         7.6454   -0.7172    1.9047 O.3       1 ATP        -0.8003
      9 PA          5.8742    0.9198   -1.3967 P.3       1 ATP         1.7415
     10 O1A         6.0134    0.0298   -2.5976 O.2       1 ATP        -0.8661
     11 O2A         6.4679    2.4111   -1.6008 O.3       1 ATP        -0.8077
     12 O3A         6.6551    0.3880   -0.0837 O.3       1 ATP        -0.7685
     13 O5'         4.3520    1.1579   -0.9021 O.3       1 ATP        -0.5590
     14 C5'         4.0922    1.9801    0.2227 C.3       1 ATP         0.1960
     15 C4'         2.5944    2.0310    0.4653 C.3       1 ATP         0.0976
     16 O4'         1.9327    2.5740   -0.6889 O.3       1 ATP        -0.3865
     17 C3'         1.9685    0.6634    0.6767 C.3       1 ATP         0.0901
     18 O3'         2.1425    0.1975    1.9977 O.3       1 ATP        -0.5889
     19 C2'         0.5176    0.9128    0.3099 C.3       1 ATP         0.0574
     20 O2'        -0.2103    1.4454    1.4152 O.3       1 ATP        -0.5923
     21 C1'         0.6219    1.9765   -0.7844 C.3       1 ATP         0.2452
     22 N9          0.4237    1.4496   -2.1357 N.pl3     1 ATP        -0.1834
     23 C8          1.4069    0.9710   -2.9662 C.ar      1 ATP         0.4338
     24 N7          0.9316    0.5623   -4.1260 N.2       1 ATP        -0.6101
     25 C5         -0.4120    0.7884   -4.0344 C.ar      1 ATP         0.2154
     26 C6         -1.4353    0.5283   -5.0204 C.ar      1 ATP         0.6130
     27 N6         -1.1199    0.0176   -6.1586 N.2       1 ATP        -0.8165
     28 N1         -2.6704    0.9095   -4.5147 N.pl3     1 ATP        -0.8617
     29 C2         -2.8863    1.4571   -3.2520 C.ar      1 ATP         0.6151
     30 N3         -1.9805    1.7017   -2.3442 N.2       1 ATP        -0.5797
     31 C4         -0.7561    1.3381   -2.8112 C.ar      1 ATP         0.0328
     32 HOG3        9.5349   -1.0565    3.9168 H         1 ATP         0.4197
     33 HOA2        6.0941    2.9774   -2.3091 H         1 ATP         0.4550
     34 H5'1        4.6066    1.5622    1.0942 H         1 ATP         0.0431
     35 H5'2        4.4821    2.9841    0.0260 H         1 ATP         0.0431
     36 H4'         2.3752    2.7029    1.3156 H         1 ATP         0.1325
     37 H3'         2.4336   -0.1217   -0.0016 H         1 ATP         0.0782
     38 HO3'        1.7160   -0.6716    2.0397 H         1 ATP         0.4062
     39 H2'         0.0316    0.0155   -0.0339 H         1 ATP         0.0689
     40 HO2'       -1.1270    1.5823    1.1180 H         1 ATP         0.4089
     41 H1'        -0.1474    2.7798   -0.6651 H         1 ATP         0.1098
     42 H8          2.4466    0.9468   -2.6694 H         1 ATP         0.0929
     43 HN62       -1.9661   -0.0965   -6.7275 H         1 ATP         0.3678
     44 H2         -3.9481    1.6825   -3.0660 H         1 ATP         0.0383
     45 H45        -3.4814    0.7753   -5.1133 H         1 ATP         0.4286
@<TRIPOS>BOND
     1    1    2 2
     2    1    3 1
     3    1    4 1
     4    1    8 1
     5    4   32 1
     6    5    6 2
     7    5    7 1
     8    5    8 1
     9    5   12 1
    10    9   10 2
    11    9   11 1
    12    9   12 1
    13    9   13 1
    14   11   33 1
    15   13   14 1
    16   14   15 1
    17   14   34 1
    18   14   35 1
    19   15   16 1
    20   15   17 1
    21   15   36 1
    22   16   21 1
    23   17   18 1
    24   17   19 1
    25   17   37 1
    26   18   38 1
    27   19   20 1
    28   19   21 1
    29   19   39 1
    30   20   40 1
    31   21   22 1
    32   21   41 1
    33   22   23 ar
    34   22   31 ar
    35   23   24 ar
    36   23   42 1
    37   24   25 ar
    38   25   26 ar
    39   25   31 ar
    40   26   27 2
    41   26   28 ar
    42   27   43 1
    43   28   29 ar
    44   28   45 1
    45   29   30 ar
    46   29   44 1
    47   30   31 ar
@<TRIPOS>SUBSTRUCTURE
     1 ATP         1 GROUP 0 A     ****
@<TRIPOS>MOLECULE
[[[3,4-dihydroxy-5-(6-imino-1~{H}-purin-9-yl)tetrahydrofuran-2-yl]methoxy-hydroxy-phosphoryl]oxy-oxido-phosphoryl] hydrogen phosphate
   45    47     1     0     0
SMALL
USER_CHARGES

@<TRIPOS>ATOM
      1 PG         -5.2851    6.5301   -0.7893 P.3       1 ATP         1.5414
      2 O1G        -5.0283    7.9796   -1.1365 O.co2     1 ATP        -0.8562
      3 O2G        -6.3820    6.1448    0.1781 O.co2     1 ATP        -0.8562
      4 O3G        -5.4991    5.6950   -2.1760 O.3       1 ATP        -0.7907
      5 PB         -2.4287    5.7938   -1.0365 P.3       1 ATP         1.6574
      6 O1B        -2.5446    4.9477   -2.2849 O.co2     1 ATP        -0.8530
      7 O2B        -1.8633    7.1955   -1.0940 O.co2     1 ATP        -0.8530
      8 O3B        -3.8863    5.8463   -0.3054 O.3       1 ATP        -0.8003
      9 PA         -0.0705    4.4476    0.1413 P.3       1 ATP         1.7415
     10 O1A         0.9358    5.5605    0.0915 O.2       1 ATP        -0.8661
     11 O2A         0.0245    3.4081   -1.0950 O.3       1 ATP        -0.8077
     12 O3A        -1.6095    4.9430    0.0898 O.3       1 ATP        -0.7685
     13 O5'         0.0171    3.5129    1.4593 O.3       1 ATP        -0.5590
     14 C5'        -0.8811    2.4285    1.6206 C.3       1 ATP         0.1960
     15 C4'        -0.1994    1.3333    2.4288 C.3       1 ATP         0.0976
     16 O4'        -1.1285    0.2356    2.5840 O.3       1 ATP        -0.3865
     17 C3'         1.0324    0.7610    1.7344 C.3       1 ATP         0.0901
     18 O3'         1.9175    0.2377    2.7247 O.3       1 ATP        -0.5889
     19 C2'         0.4468   -0.3802    0.9263 C.3       1 ATP         0.0574
     20 O2'         1.3993   -1.3703    0.5961 O.3       1 ATP        -0.5923
     21 C1'        -0.6159   -0.9100    1.8769 C.3       1 ATP         0.2452
     22 N9         -1.7127   -1.6108    1.2130 N.pl3     1 ATP        -0.1834
     23 C8         -1.7690   -2.9583    0.9549 C.ar      1 ATP         0.4338
     24 N7         -2.8827   -3.3076    0.3418 N.2       1 ATP        -0.6101
     25 C5         -3.5683   -2.1351    0.2017 C.ar      1 ATP         0.2154
     26 C6         -4.8617   -1.9185   -0.4044 C.ar      1 ATP         0.6130
     27 N6         -5.5166   -2.9094   -0.8993 N.2       1 ATP        -0.8165
     28 N1         -5.1837   -0.5701   -0.3344 N.pl3     1 ATP        -0.8617
     29 C2         -4.3821    0.4180    0.2330 C.ar      1 ATP         0.6151
     30 N3         -3.2117    0.2488    0.7860 N.2       1 ATP        -0.5797
     31 C4         -2.8672   -1.0657    0.7327 C.ar      1 ATP         0.0328
     32 HOG3       -4.7680    5.6811   -2.8300 H         1 ATP         0.4197
     33 HOA2        0.8591    2.9119   -1.2342 H         1 ATP         0.4550
     34 H5'1       -1.7775    2.7843    2.1389 H         1 ATP         0.0431
     35 H5'2       -1.1658    2.0534    0.6322 H         1 ATP         0.0431
     36 H4'         0.0402    1.7079    3.4342 H         1 ATP         0.1325
     37 H3'         1.5907    1.4859    1.1353 H         1 ATP         0.0782
     38 HO3'        2.6839   -0.1150    2.2479 H         1 ATP         0.4062
     39 H2'        -0.0017    0.0018    0.0005 H         1 ATP         0.0689
     40 HO2'        2.0953   -0.9375    0.0709 H         1 ATP         0.4089
     41 H1'        -0.1998   -1.6319    2.6178 H         1 ATP         0.1098
     42 H8         -0.9697   -3.6300    1.2371 H         1 ATP         0.0929
     43 HN62       -6.4060   -2.5723   -1.2840 H         1 ATP         0.3678
     44 H2         -4.8409    1.4176    0.1757 H         1 ATP         0.0383
     45 H45        -6.0768   -0.2826   -0.7263 H         1 ATP         0.4286
@<TRIPOS>BOND
     1    1    2 2
     2    1    3 1
     3    1    4 1
     4    1    8 1
     5    4   32 1
     6    5    6 2
     7    5    7 1
     8    5    8 1
     9    5   12 1
    10    9   10 2
    11    9   11 1
    12    9   12 1
    13    9   13 1
    14   11   33 1
    15   13   14 1
    16   14   15 1
    17   14   34 1
    18   14   35 1
    19   15   16 1
    20   15   17 1
    21   15   36 1
    22   16   21 1
    23   17   18 1
    24   17   19 1
    25   17   37 1
    26   18   38 1
    27   19   20 1
    28   19   21 1
    29   19   39 1
    30   20   40 1
    31   21   22 1
    32   21   41 1
    33   22   23 ar
    34   22   31 ar
    35   23   24 ar
    36   23   42 1
    37   24   25 ar
    38   25   26 ar
    39   25   31 ar
    40   26   27 2
    41   26   28 ar
    42   27   43 1
    43   28   29 ar
    44   28   45 1
    45   29   30 ar
    46   29   44 1
    47   30   31 ar
@<TRIPOS>SUBSTRUCTURE
     1 ATP         1 GROUP 0 A     ****
@<TRIPOS>MOLECULE
[[[3,4-dihydroxy-5-(6-imino-1~{H}-purin-9-yl)tetrahydrofuran-2-yl]methoxy-hydroxy-phosphoryl]oxy-oxido-phosphoryl] hydrogen phosphate
   45    47     1     0     0
SMALL
USER_CHARGES

@<TRIPOS>ATOM
      1 PG          5.2086    5.4150    3.6227 P.3       1 ATP         1.5414
      2 O1G         5.2921    6.7728    2.9617 O.co2     1 ATP        -0.8562
      3 O2G         5.8345    5.1700    4.9776 O.co2     1 ATP        -0.8562
      4 O3G         3.6402    4.9651    3.6865 O.3       1 ATP        -0.7907
      5 PB          7.2389    4.0297    1.9733 P.3       1 ATP         1.6574
      6 O1B         7.6032    5.1942    1.0794 O.co2     1 ATP        -0.8530
      7 O2B         8.1511    3.5953    3.0989 O.co2     1 ATP        -0.8530
      8 O3B         5.7451    4.2841    2.5779 O.3       1 ATP        -0.8003
      9 PA          6.3383    1.2702    1.3945 P.3       1 ATP         1.7415
     10 O1A         6.8885    0.6904    2.6653 O.2       1 ATP        -0.8661
     11 O2A         6.6702    0.4038    0.0690 O.3       1 ATP        -0.8077
     12 O3A         6.9154    2.7370    1.0311 O.3       1 ATP        -0.7685
     13 O5'         4.7296    1.4429    1.3689 O.3       1 ATP        -0.5590
     14 C5'         4.0922    1.9801    0.2227 C.3       1 ATP         0.1960
     15 C4'         2.5944    2.0310    0.4653 C.3       1 ATP         0.0976
     16 O4'         1.9327    2.5740   -0.6889 O.3       1 ATP        -0.3865
     17 C3'         1.9685    0.6634    0.6767 C.3       1 ATP         0.0901
     18 O3'         2.1425    0.1975    1.9977 O.3       1 ATP        -0.5889
     19 C2'         0.5176    0.9128    0.3099 C.3       1 ATP         0.0574
     20 O2'        -0.2103    1.4454    1.4152 O.3       1 ATP        -0.5923
     21 C1'         0.6219    1.9765   -0.7844 C.3       1 ATP         0.2452
     22 N9          0.4237    1.4496   -2.1357 N.pl3     1 ATP        -0.1834
     23 C8          1.4069    0.9710   -2.9662 C.ar      1 ATP         0.4338
     24 N7          0.9316    0.5623   -4.1260 N.2       1 ATP        -0.6101
     25 C5         -0.4120    0.7884   -4.0344 C.ar      1 ATP         0.2154
     26 C6         -1.4353    0.5283   -5.0204 C.ar      1 ATP         0.6130
     27 N6         -1.1199    0.0176   -6.1586 N.2       1 ATP        -0.8165
     28 N1         -2.6704    0.9095   -4.5147 N.pl3     1 ATP        -0.8617
     29 C2         -2.8863    1.4571   -3.2520 C.ar      1 ATP         0.6151
     30 N3         -1.9805    1.7017   -2.3442 N.2       1 ATP        -0.5797
     31 C4         -0.7561    1.3381   -2.8112 C.ar      1 ATP         0.0328
     32 HOG3        3.4192    4.0992    4.0912 H         1 ATP         0.4197
     33 HOA2        7.6079    0.2509   -0.1750 H         1 ATP         0.4550
     34 H5'1        4.4838    2.9857    0.0375 H         1 ATP         0.0431
     35 H5'2        4.3186    1.3449   -0.6398 H         1 ATP         0.0431
     36 H4'         2.3752    2.7029    1.3156 H         1 ATP         0.1325
     37 H3'         2.4336   -0.1217   -0.0016 H         1 ATP         0.0782
     38 HO3'        3.0987    0.1465    2.1461 H         1 ATP         0.4062
     39 H2'         0.0316    0.0155   -0.0339 H         1 ATP         0.0689
     40 HO2'       -0.1608    0.7921    2.1351 H         1 ATP         0.4089
     41 H1'        -0.1474    2.7798   -0.6651 H         1 ATP         0.1098
     42 H8          2.4466    0.9468   -2.6694 H         1 ATP         0.0929
     43 HN62       -1.9661   -0.0965   -6.7275 H         1 ATP         0.3678
     44 H2         -3.9481    1.6825   -3.0660 H         1 ATP         0.0383
     45 H45        -3.4814    0.7753   -5.1133 H         1 ATP         0.4286
@<TRIPOS>BOND
     1    1    2 2
     2    1    3 1
     3    1    4 1
     4    1    8 1
     5    4   32 1
     6    5    6 2
     7    5    7 1
     8    5    8 1
     9    5   12 1
    10    9   10 2
    11    9   11 1
    12    9   12 1
    13    9   13 1
    14   11   33 1
    15   13   14 1
    16   14   15 1
    17   14   34 1
    18   14   35 1
    19   15   16 1
    20   15   17 1
    21   15   36 1
    22   16   21 1
    23   17   18 1
    24   17   19 1
    25   17   37 1
    26   18   38 1
    27   19   20 1
    28   19   21 1
    29   19   39 1
    30   20   40 1
    31   21   22 1
    32   21   41 1
    33   22   23 ar
    34   22   31 ar
    35   23   24 ar
    36   23   42 1
    37   24   25 ar
    38   25   26 ar
    39   25   31 ar
    40   26   27 2
    41   26   28 ar
    42   27   43 1
    43   28   29 ar
    44   28   45 1
    45   29   30 ar
    46   29   44 1
    47   30   31 ar
@<TRIPOS>SUBSTRUCTURE
     1 ATP         1 GROUP 0 A     ****
@<TRIPOS>MOLECULE
[[[3,4-dihydroxy-5-(6-imino-1~{H}-purin-9-yl)tetrahydrofuran-2-yl]methoxy-hydroxy-phosphoryl]oxy-oxido-phosphoryl] hydrogen phosphate
   45    47     1     0     0
SMALL
USER_CHARGES

@<TRIPOS>ATOM
      1 PG          8.8757    0.9215   -3.7162 P.3       1 ATP         1.5414
      2 O1G         9.7964    2.0154   -4.2093 O.co2     1 ATP        -0.8562
      3 O2G         8.4289   -0.1924   -4.6365 O.co2     1 ATP        -0.8562
      4 O3G         9.5315    0.2566   -2.3767 O.3       1 ATP        -0.7907
      5 PB          6.3586    2.4790   -3.7011 P.3       1 ATP         1.6574
      6 O1B         6.9294    3.7919   -4.1891 O.co2     1 ATP        -0.8530
      7 O2B         5.5619    1.5839   -4.6239 O.co2     1 ATP        -0.8530
      8 O3B         7.5622    1.6039   -3.0323 O.3       1 ATP        -0.8003
      9 PA          5.8506    3.5249   -0.9791 P.3       1 ATP         1.7415
     10 O1A         6.2523    4.9605   -1.1558 O.2       1 ATP        -0.8661
     11 O2A         7.0027    2.5847   -0.3414 O.3       1 ATP        -0.8077
     12 O3A         5.4767    2.7667   -2.3582 O.3       1 ATP        -0.7685
     13 O5'         4.5673    3.2930   -0.0211 O.3       1 ATP        -0.5590
     14 C5'         4.0922    1.9801    0.2227 C.3       1 ATP         0.1960
     15 C4'         2.5944    2.0310    0.4653 C.3       1 ATP         0.0976
     16 O4'         1.9327    2.5740   -0.6889 O.3       1 ATP        -0.3865
     17 C3'         1.9685    0.6634    0.6767 C.3       1 ATP         0.0901
     18 O3'         2.1425    0.1975    1.9977 O.3       1 ATP        -0.5889
     19 C2'         0.5176    0.9128    0.3099 C.3       1 ATP         0.0574
     20 O2'        -0.2103    1.4454    1.4152 O.3       1 ATP        -0.5923
     21 C1'         0.6219    1.9765   -0.7844 C.3       1 ATP         0.2452
     22 N9          0.4237    1.4496   -2.1357 N.pl3     1 ATP        -0.1834
     23 C8          1.4069    0.9710   -2.9662 C.ar      1 ATP         0.4338
     24 N7          0.9316    0.5623   -4.1260 N.2       1 ATP        -0.6101
     25 C5         -0.4120    0.7884   -4.0344 C.ar      1 ATP         0.2154
     26 C6         -1.4353    0.5283   -5.0204 C.ar      1 ATP         0.6130
     27 N6         -1.1199    0.0176   -6.1586 N.2       1 ATP        -0.8165
     28 N1         -2.6704    0.9095   -4.5147 N.pl3     1 ATP        -0.8617
     29 C2         -2.8863    1.4571   -3.2520 C.ar      1 ATP         0.6151
     30 N3         -1.9805    1.7017   -2.3442 N.2       1 ATP        -0.5797
     31 C4         -0.7561    1.3381   -2.8112 C.ar      1 ATP         0.0328
     32 HOG3        9.0490   -0.4740   -1.9342 H         1 ATP         0.4197
     33 HOA2        7.3527    2.8015    0.5489 H         1 ATP         0.4550
     34 H5'1        4.3175    1.3541   -0.6468 H         1 ATP         0.0431
     35 H5'2        4.6079    1.5730    1.0985 H         1 ATP         0.0431
     36 H4'         2.3752    2.7029    1.3156 H         1 ATP         0.1325
     37 H3'         2.4336   -0.1217   -0.0016 H         1 ATP         0.0782
     38 HO3'        3.0987    0.1465    2.1461 H         1 ATP         0.4062
     39 H2'         0.0316    0.0155   -0.0339 H         1 ATP         0.0689
     40 HO2'       -0.1608    0.7921    2.1351 H         1 ATP         0.4089
     41 H1'        -0.1474    2.7798   -0.6651 H         1 ATP         0.1098
     42 H8          2.4466    0.9468   -2.6694 H         1 ATP         0.0929
     43 HN62       -1.9661   -0.0965   -6.7275 H         1 ATP         0.3678
     44 H2         -3.9481    1.6825   -3.0660 H         1 ATP         0.0383
     45 H45        -3.4814    0.7753   -5.1133 H         1 ATP         0.4286
@<TRIPOS>BOND
     1    1    2 2
     2    1    3 1
     3    1    4 1
     4    1    8 1
     5    4   32 1
     6    5    6 2
     7    5    7 1
     8    5    8 1
     9    5   12 1
    10    9   10 2
    11    9   11 1
    12    9   12 1
    13    9   13 1
    14   11   33 1
    15   13   14 1
    16   14   15 1
    17   14   34 1
    18   14   35 1
    19   15   16 1
    20   15   17 1
    21   15   36 1
    22   16   21 1
    23   17   18 1
    24   17   19 1
    25   17   37 1
    26   18   38 1
    27   19   20 1
    28   19   21 1
    29   19   39 1
    30   20   40 1
    31   21   22 1
    32   21   41 1
    33   22   23 ar
    34   22   31 ar
    35   23   24 ar
    36   23   42 1
    37   24   25 ar
    38   25   26 ar
    39   25   31 ar
    40   26   27 2
    41   26   28 ar
    42   27   43 1
    43   28   29 ar
    44   28   45 1
    45   29   30 ar
    46   29   44 1
    47   30   31 ar
@<TRIPOS>SUBSTRUCTURE
     1 ATP         1 GROUP 0 A     ****
@<TRIPOS>MOLECULE
[[[3,4-dihydroxy-5-(6-imino-1~{H}-purin-9-yl)tetrahydrofuran-2-yl]methoxy-hydroxy-phosphoryl]oxy-oxido-phosphoryl] hydrogen phosphate
   45    47     1     0     0
SMALL
USER_CHARGES

@<TRIPOS>ATOM
      1 PG         -3.2296    5.9807   -3.2674 P.3       1 ATP         1.5414
      2 O1G        -4.5552    6.7089   -3.2574 O.co2     1 ATP        -0.8562
      3 O2G        -2.9055    4.9705   -4.3453 O.co2     1 ATP        -0.8562
      4 O3G        -2.0299    7.0872   -3.2154 O.3       1 ATP        -0.7907
      5 PB         -3.0385    5.9477   -0.3137 P.3       1 ATP         1.6574
      6 O1B        -1.8849    6.9160   -0.1742 O.co2     1 ATP        -0.8530
      7 O2B        -4.4577    6.3771   -0.0148 O.co2     1 ATP        -0.8530
      8 O3B        -2.9924    5.2940   -1.8077 O.3       1 ATP        -0.8003
      9 PA         -2.5525    4.3888    2.1550 P.3       1 ATP         1.7415
     10 O1A        -3.7892    4.7207    2.9387 O.2       1 ATP        -0.8661
     11 O2A        -1.2618    5.2871    2.5359 O.3       1 ATP        -0.8077
     12 O3A        -2.6994    4.6113    0.5595 O.3       1 ATP        -0.7685
     13 O5'        -2.0397    2.8622    2.3122 O.3       1 ATP        -0.5590
     14 C5'        -0.8811    2.4285    1.6206 C.3       1 ATP         0.1960
     15 C4'        -0.1994    1.3333    2.4288 C.3       1 ATP         0.0976
     16 O4'        -1.1285    0.2356    2.5840 O.3       1 ATP        -0.3865
     17 C3'         1.0324    0.7610    1.7344 C.3       1 ATP         0.0901
     18 O3'         1.9175    0.2377    2.7247 O.3       1 ATP        -0.5889
     19 C2'         0.4468   -0.3802    0.9263 C.3       1 ATP         0.0574
     20 O2'         1.3993   -1.3703    0.5961 O.3       1 ATP        -0.5923
     21 C1'        -0.6159   -0.9100    1.8769 C.3       1 ATP         0.2452
     22 N9         -1.7127   -1.6108    1.2130 N.pl3     1 ATP        -0.1834
     23 C8         -1.7690   -2.9583    0.9549 C.ar      1 ATP         0.4338
     24 N7         -2.8827   -3.3076    0.3418 N.2       1 ATP        -0.6101
     25 C5         -3.5683   -2.1351    0.2017 C.ar      1 ATP         0.2154
     26 C6         -4.8617   -1.9185   -0.4044 C.ar      1 ATP         0.6130
     27 N6         -5.5166   -2.9094   -0.8993 N.2       1 ATP        -0.8165
     28 N1         -5.1837   -0.5701   -0.3344 N.pl3     1 ATP        -0.8617
     29 C2         -4.3821    0.4180    0.2330 C.ar      1 ATP         0.6151
     30 N3         -3.2117    0.2488    0.7860 N.2       1 ATP        -0.5797
     31 C4         -2.8672   -1.0657    0.7327 C.ar      1 ATP         0.0328
     32 HOG3       -1.9882    7.6945   -2.4461 H         1 ATP         0.4197
     33 HOA2       -1.3110    6.2601    2.4220 H         1 ATP         0.4550
     34 H5'1       -1.1761    2.0499    0.6365 H         1 ATP         0.0431
     35 H5'2       -0.2073    3.2811    1.4874 H         1 ATP         0.0431
     36 H4'         0.0402    1.7079    3.4342 H         1 ATP         0.1325
     37 H3'         1.5907    1.4859    1.1353 H         1 ATP         0.0782
     38 HO3'        2.1521    0.9800    3.3017 H         1 ATP         0.4062
     39 H2'        -0.0017    0.0018    0.0005 H         1 ATP         0.0689
     40 HO2'        2.0953   -0.9375    0.0709 H         1 ATP         0.4089
     41 H1'        -0.1998   -1.6319    2.6178 H         1 ATP         0.1098
     42 H8         -0.9697   -3.6300    1.2371 H         1 ATP         0.0929
     43 HN62       -6.4060   -2.5723   -1.2840 H         1 ATP         0.3678
     44 H2         -4.8409    1.4176    0.1757 H         1 ATP         0.0383
     45 H45        -6.0768   -0.2826   -0.7263 H         1 ATP         0.4286
@<TRIPOS>BOND
     1    1    2 2
     2    1    3 1
     3    1    4 1
     4    1    8 1
     5    4   32 1
     6    5    6 2
     7    5    7 1
     8    5    8 1
     9    5   12 1
    10    9   10 2
    11    9   11 1
    12    9   12 1
    13    9   13 1
    14   11   33 1
    15   13   14 1
    16   14   15 1
    17   14   34 1
    18   14   35 1
    19   15   16 1
    20   15   17 1
    21   15   36 1
    22   16   21 1
    23   17   18 1
    24   17   19 1
    25   17   37 1
    26   18   38 1
    27   19   20 1
    28   19   21 1
    29   19   39 1
    30   20   40 1
    31   21   22 1
    32   21   41 1
    33   22   23 ar
    34   22   31 ar
    35   23   24 ar
    36   23   42 1
    37   24   25 ar
    38   25   26 ar
    39   25   31 ar
    40   26   27 2
    41   26   28 ar
    42   27   43 1
    43   28   29 ar
    44   28   45 1
    45   29   30 ar
    46   29   44 1
    47   30   31 ar
@<TRIPOS>SUBSTRUCTURE
     1 ATP         1 GROUP 0 A     ****
@<TRIPOS>MOLECULE
[[[3,4-dihydroxy-5-(6-imino-1~{H}-purin-9-yl)tetrahydrofuran-2-yl]methoxy-hydroxy-phosphoryl]oxy-oxido-phosphoryl] hydrogen phosphate
   45    47     1     0     0
SMALL
USER_CHARGES

@<TRIPOS>ATOM
      1 PG          7.3341   -1.6481    2.4027 P.3       1 ATP         1.5414
      2 O1G         7.9327   -2.9481    1.9135 O.co2     1 ATP        -0.8562
      3 O2G         5.8495   -1.3834    2.2868 O.co2     1 ATP        -0.8562
      4 O3G         7.7816   -1.4237    3.9569 O.3       1 ATP        -0.7907
      5 PB          8.2369    0.0825    0.1774 P.3       1 ATP         1.6574
      6 O1B         8.9923    1.3918    0.1239 O.co2     1 ATP        -0.8530
      7 O2B         8.6529   -1.0935   -0.6780 O.co2     1 ATP        -0.8530
      8 O3B         8.1487   -0.4052    1.7317 O.3       1 ATP        -0.8003
      9 PA          5.8742    0.9198   -1.3967 P.3       1 ATP         1.7415
     10 O1A         6.0134    0.0298   -2.5976 O.2       1 ATP        -0.8661
     11 O2A         6.4679    2.4111   -1.6008 O.3       1 ATP        -0.8077
     12 O3A         6.6551    0.3880   -0.0837 O.3       1 ATP        -0.7685
     13 O5'         4.3520    1.1579   -0.9021 O.3       1 ATP        -0.5590
     14 C5'         4.0922    1.9801    0.2227 C.3       1 ATP         0.1960
     15 C4'         2.5944    2.0310    0.4653 C.3       1 ATP         0.0976
     16 O4'         1.9327    2.5740   -0.6889 O.3       1 ATP        -0.3865
     17 C3'         1.9685    0.6634    0.6767 C.3       1 ATP         0.0901
     18 O3'         2.1425    0.1975    1.9977 O.3       1 ATP        -0.5889
     19 C2'         0.5176    0.9128    0.3099 C.3       1 ATP         0.0574
     20 O2'        -0.2103    1.4454    1.4152 O.3       1 ATP        -0.5923
     21 C1'         0.6219    1.9765   -0.7844 C.3       1 ATP         0.2452
     22 N9          0.4237    1.4496   -2.1357 N.pl3     1 ATP        -0.1834
     23 C8          1.4069    0.9710   -2.9662 C.ar      1 ATP         0.4338
     24 N7          0.9316    0.5623   -4.1260 N.2       1 ATP        -0.6101
     25 C5         -0.4120    0.7884   -4.0344 C.ar      1 ATP         0.2154
     26 C6         -1.4353    0.5283   -5.0204 C.ar      1 ATP         0.6130
     27 N6         -1.1199    0.0176   -6.1586 N.2       1 ATP        -0.8165
     28 N1         -2.6704    0.9095   -4.5147 N.pl3     1 ATP        -0.8617
     29 C2         -2.8863    1.4571   -3.2520 C.ar      1 ATP         0.6151
     30 N3         -1.9805    1.7017   -2.3442 N.2       1 ATP        -0.5797
     31 C4         -0.7561    1.3381   -2.8112 C.ar      1 ATP         0.0328
     32 HOG3        7.4702   -0.6171    4.4204 H         1 ATP         0.4197
     33 HOA2        7.4193    2.5175   -1.8146 H         1 ATP         0.4550
     34 H5'1        4.6066    1.5622    1.0942 H         1 ATP         0.0431
     35 H5'2        4.4821    2.9841    0.0260 H         1 ATP         0.0431
     36 H4'         2.3752    2.7029    1.3156 H         1 ATP         0.1325
     37 H3'         2.4336   -0.1217   -0.0016 H         1 ATP         0.0782
     38 HO3'        3.0987    0.1465    2.1461 H         1 ATP         0.4062
     39 H2'         0.0316    0.0155   -0.0339 H         1 ATP         0.0689
     40 HO2'       -0.1608    0.7921    2.1351 H         1 ATP         0.4089
     41 H1'        -0.1474    2.7798   -0.6651 H         1 ATP         0.1098
     42 H8          2.4466    0.9468   -2.6694 H         1 ATP         0.0929
     43 HN62       -1.9661   -0.0965   -6.7275 H         1 ATP         0.3678
     44 H2         -3.9481    1.6825   -3.0660 H         1 ATP         0.0383
     45 H45        -3.4814    0.7753   -5.1133 H         1 ATP         0.4286
@<TRIPOS>BOND
     1    1    2 2
     2    1    3 1
     3    1    4 1
     4    1    8 1
     5    4   32 1
     6    5    6 2
     7    5    7 1
     8    5    8 1
     9    5   12 1
    10    9   10 2
    11    9   11 1
    12    9   12 1
    13    9   13 1
    14   11   33 1
    15   13   14 1
    16   14   15 1
    17   14   34 1
    18   14   35 1
    19   15   16 1
    20   15   17 1
    21   15   36 1
    22   16   21 1
    23   17   18 1
    24   17   19 1
    25   17   37 1
    26   18   38 1
    27   19   20 1
    28   19   21 1
    29   19   39 1
    30   20   40 1
    31   21   22 1
    32   21   41 1
    33   22   23 ar
    34   22   31 ar
    35   23   24 ar
    36   23   42 1
    37   24   25 ar
    38   25   26 ar
    39   25   31 ar
    40   26   27 2
    41   26   28 ar
    42   27   43 1
    43   28   29 ar
    44   28   45 1
    45   29   30 ar
    46   29   44 1
    47   30   31 ar
@<TRIPOS>SUBSTRUCTURE
     1 ATP         1 GROUP 0 A     ****
@<TRIPOS>MOLECULE
[[[3,4-dihydroxy-5-(6-imino-1~{H}-purin-9-yl)tetrahydrofuran-2-yl]methoxy-hydroxy-phosphoryl]oxy-oxido-phosphoryl] hydrogen phosphate
   45    47     1     0     0
SMALL
USER_CHARGES

@<TRIPOS>ATOM
      1 PG         -2.2425    5.2671    6.4511 P.3       1 ATP         1.5414
      2 O1G        -3.2178    5.2639    5.2951 O.co2     1 ATP        -0.8562
      3 O2G        -1.7950    6.5642    7.0873 O.co2     1 ATP        -0.8562
      4 O3G        -2.8228    4.2878    7.6218 O.3       1 ATP        -0.7907
      5 PB          0.2198    4.6910    4.9124 P.3       1 ATP         1.6574
      6 O1B         0.7807    6.0764    5.1444 O.co2     1 ATP        -0.8530
      7 O2B         1.1297    3.4863    4.8215 O.co2     1 ATP        -0.8530
      8 O3B        -0.9268    4.3982    6.0355 O.3       1 ATP        -0.8003
      9 PA         -0.3718    4.9776    2.0264 P.3       1 ATP         1.7415
     10 O1A         0.6640    6.0385    1.7915 O.2       1 ATP        -0.8661
     11 O2A        -1.8128    5.2955    1.3627 O.3       1 ATP        -0.8077
     12 O3A        -0.7290    4.7337    3.5851 O.3       1 ATP        -0.7685
     13 O5'         0.0171    3.5129    1.4593 O.3       1 ATP        -0.5590
     14 C5'        -0.8811    2.4285    1.6206 C.3       1 ATP         0.1960
     15 C4'        -0.1994    1.3333    2.4288 C.3       1 ATP         0.0976
     16 O4'        -1.1285    0.2356    2.5840 O.3       1 ATP        -0.3865
     17 C3'         1.0324    0.7610    1.7344 C.3       1 ATP         0.0901
     18 O3'         1.9175    0.2377    2.7247 O.3       1 ATP        -0.5889
     19 C2'         0.4468   -0.3802    0.9263 C.3       1 ATP         0.0574
     20 O2'         1.3993   -1.3703    0.5961 O.3       1 ATP        -0.5923
     21 C1'        -0.6159   -0.9100    1.8769 C.3       1 ATP         0.2452
     22 N9         -1.7127   -1.6108    1.2130 N.pl3     1 ATP        -0.1834
     23 C8         -2.8662   -1.0361    0.7388 C.ar      1 ATP         0.4338
     24 N7         -3.6774   -1.9166    0.1867 N.2       1 ATP        -0.6101
     25 C5         -3.0159   -3.1045    0.3122 C.ar      1 ATP         0.2154
     26 C6         -3.4377   -4.4169   -0.1199 C.ar      1 ATP         0.6130
     27 N6         -4.5720   -4.5691   -0.7080 N.2       1 ATP        -0.8165
     28 N1         -2.4600   -5.3463    0.2071 N.pl3     1 ATP        -0.8617
     29 C2         -1.2595   -5.0554    0.8515 C.ar      1 ATP         0.6151
     30 N3         -0.8555   -3.8803    1.2516 N.2       1 ATP        -0.5797
     31 C4         -1.7946   -2.9457    0.9448 C.ar      1 ATP         0.0328
     32 HOG3       -2.2992    4.1831    8.4447 H         1 ATP         0.4197
     33 HOA2       -2.2941    6.1043    1.6391 H         1 ATP         0.4550
     34 H5'1       -1.7775    2.7843    2.1389 H         1 ATP         0.0431
     35 H5'2       -1.1658    2.0534    0.6322 H         1 ATP         0.0431
     36 H4'         0.0402    1.7079    3.4342 H         1 ATP         0.1325
     37 H3'         1.5907    1.4859    1.1353 H         1 ATP         0.0782
     38 HO3'        2.1521    0.9800    3.3017 H         1 ATP         0.4062
     39 H2'        -0.0017    0.0018    0.0005 H         1 ATP         0.0689
     40 HO2'        1.7495   -1.7243    1.4324 H         1 ATP         0.4089
     41 H1'        -0.1998   -1.6319    2.6178 H         1 ATP         0.1098
     42 H8         -3.0558    0.0252    0.8256 H         1 ATP         0.0929
     43 HN62       -4.7047   -5.5592   -0.9421 H         1 ATP         0.3678
     44 H2         -0.6372   -5.9505    1.0077 H         1 ATP         0.0383
     45 H45        -2.6338   -6.3155   -0.0469 H         1 ATP         0.4286
@<TRIPOS>BOND
     1    1    2 2
     2    1    3 1
     3    1    4 1
     4    1    8 1
     5    4   32 1
     6    5    6 2
     7    5    7 1
     8    5    8 1
     9    5   12 1
    10    9   10 2
    11    9   11 1
    12    9   12 1
    13    9   13 1
    14   11   33 1
    15   13   14 1
    16   14   15 1
    17   14   34 1
    18   14   35 1
    19   15   16 1
    20   15   17 1
    21   15   36 1
    22   16   21 1
    23   17   18 1
    24   17   19 1
    25   17   37 1
    26   18   38 1
    27   19   20 1
    28   19   21 1
    29   19   39 1
    30   20   40 1
    31   21   22 1
    32   21   41 1
    33   22   23 ar
    34   22   31 ar
    35   23   24 ar
    36   23   42 1
    37   24   25 ar
    38   25   26 ar
    39   25   31 ar
    40   26   27 2
    41   26   28 ar
    42   27   43 1
    43   28   29 ar
    44   28   45 1
    45   29   30 ar
    46   29   44 1
    47   30   31 ar
@<TRIPOS>SUBSTRUCTURE
     1 ATP         1 GROUP 0 A     ****
@<TRIPOS>MOLECULE
[[[3,4-dihydroxy-5-(6-imino-1~{H}-purin-9-yl)tetrahydrofuran-2-yl]methoxy-hydroxy-phosphoryl]oxy-oxido-phosphoryl] hydrogen phosphate
   45    47     1     0     0
SMALL
USER_CHARGES

@<TRIPOS>ATOM
      1 PG         -2.5193    5.0132   -1.3367 P.3       1 ATP         1.5414
      2 O1G        -1.4981    5.7455   -2.1783 O.co2     1 ATP        -0.8562
      3 O2G        -3.9757    5.4207   -1.3518 O.co2     1 ATP        -0.8562
      4 O3G        -2.4229    3.4188   -1.6755 O.3       1 ATP        -0.7907
      5 PB         -1.7939    6.1712    1.2891 P.3       1 ATP         1.6574
      6 O1B        -0.6685    7.0630    0.8137 O.co2     1 ATP        -0.8530
      7 O2B        -3.1493    6.7447    1.6380 O.co2     1 ATP        -0.8530
      8 O3B        -1.9972    4.9670    0.2073 O.3       1 ATP        -0.8003
      9 PA         -1.9403    4.0773    3.3760 P.3       1 ATP         1.7415
     10 O1A        -3.2371    4.4398    4.0398 O.2       1 ATP        -0.8661
     11 O2A        -0.7734    3.6204    4.3995 O.3       1 ATP        -0.8077
     12 O3A        -1.2556    5.2898    2.5529 O.3       1 ATP        -0.7685
     13 O5'        -2.0397    2.8622    2.3122 O.3       1 ATP        -0.5590
     14 C5'        -0.8811    2.4285    1.6206 C.3       1 ATP         0.1960
     15 C4'        -0.1994    1.3333    2.4288 C.3       1 ATP         0.0976
     16 O4'        -1.1285    0.2356    2.5840 O.3       1 ATP        -0.3865
     17 C3'         1.0324    0.7610    1.7344 C.3       1 ATP         0.0901
     18 O3'         1.9175    0.2377    2.7247 O.3       1 ATP        -0.5889
     19 C2'         0.4468   -0.3802    0.9263 C.3       1 ATP         0.0574
     20 O2'         1.3993   -1.3703    0.5961 O.3       1 ATP        -0.5923
     21 C1'        -0.6159   -0.9100    1.8769 C.3       1 ATP         0.2452
     22 N9         -1.7127   -1.6108    1.2130 N.pl3     1 ATP        -0.1834
     23 C8         -1.7690   -2.9583    0.9549 C.ar      1 ATP         0.4338
     24 N7         -2.8827   -3.3076    0.3418 N.2       1 ATP        -0.6101
     25 C5         -3.5683   -2.1351    0.2017 C.ar      1 ATP         0.2154
     26 C6         -4.8617   -1.9185   -0.4044 C.ar      1 ATP         0.6130
     27 N6         -5.5166   -2.9094   -0.8993 N.2       1 ATP        -0.8165
     28 N1         -5.1837   -0.5701   -0.3344 N.pl3     1 ATP        -0.8617
     29 C2         -4.3821    0.4180    0.2330 C.ar      1 ATP         0.6151
     30 N3         -3.2117    0.2488    0.7860 N.2       1 ATP        -0.5797
     31 C4         -2.8672   -1.0657    0.7327 C.ar      1 ATP         0.0328
     32 HOG3       -3.0268    2.8045   -1.2061 H         1 ATP         0.4197
     33 HOA2       -0.4720    4.2516    5.0872 H         1 ATP         0.4550
     34 H5'1       -1.1761    2.0499    0.6365 H         1 ATP         0.0431
     35 H5'2       -0.2073    3.2811    1.4874 H         1 ATP         0.0431
     36 H4'         0.0402    1.7079    3.4342 H         1 ATP         0.1325
     37 H3'         1.5907    1.4859    1.1353 H         1 ATP         0.0782
     38 HO3'        2.1521    0.9800    3.3017 H         1 ATP         0.4062
     39 H2'        -0.0017    0.0018    0.0005 H         1 ATP         0.0689
     40 HO2'        2.0953   -0.9375    0.0709 H         1 ATP         0.4089
     41 H1'        -0.1998   -1.6319    2.6178 H         1 ATP         0.1098
     42 H8         -0.9697   -3.6300    1.2371 H         1 ATP         0.0929
     43 HN62       -6.4060   -2.5723   -1.2840 H         1 ATP         0.3678
     44 H2         -4.8409    1.4176    0.1757 H         1 ATP         0.0383
     45 H45        -6.0768   -0.2826   -0.7263 H         1 ATP         0.4286
@<TRIPOS>BOND
     1    1    2 2
     2    1    3 1
     3    1    4 1
     4    1    8 1
     5    4   32 1
     6    5    6 2
     7    5    7 1
     8    5    8 1
     9    5   12 1
    10    9   10 2
    11    9   11 1
    12    9   12 1
    13    9   13 1
    14   11   33 1
    15   13   14 1
    16   14   15 1
    17   14   34 1
    18   14   35 1
    19   15   16 1
    20   15   17 1
    21   15   36 1
    22   16   21 1
    23   17   18 1
    24   17   19 1
    25   17   37 1
    26   18   38 1
    27   19   20 1
    28   19   21 1
    29   19   39 1
    30   20   40 1
    31   21   22 1
    32   21   41 1
    33   22   23 ar
    34   22   31 ar
    35   23   24 ar
    36   23   42 1
    37   24   25 ar
    38   25   26 ar
    39   25   31 ar
    40   26   27 2
    41   26   28 ar
    42   27   43 1
    43   28   29 ar
    44   28   45 1
    45   29   30 ar
    46   29   44 1
    47   30   31 ar
@<TRIPOS>SUBSTRUCTURE
     1 ATP         1 GROUP 0 A     ****
@<TRIPOS>MOLECULE
[[[3,4-dihydroxy-5-(6-imino-1~{H}-purin-9-yl)tetrahydrofuran-2-yl]methoxy-hydroxy-phosphoryl]oxy-oxido-phosphoryl] hydrogen phosphate
   45    47     1     0     0
SMALL
USER_CHARGES

@<TRIPOS>ATOM
      1 PG          8.1861    0.2909   -4.5116 P.3       1 ATP         1.5414
      2 O1G         9.0819   -0.7200   -3.8312 O.co2     1 ATP        -0.8562
      3 O2G         8.7411    1.2587   -5.5328 O.co2     1 ATP        -0.8562
      4 O3G         6.9241   -0.5013   -5.1795 O.3       1 ATP        -0.7907
      5 PB          7.9146    2.1849   -2.2530 P.3       1 ATP         1.6574
      6 O1B         8.7702    1.4357   -1.2559 O.co2     1 ATP        -0.8530
      7 O2B         8.4366    3.4166   -2.9587 O.co2     1 ATP        -0.8530
      8 O3B         7.3738    1.1289   -3.3730 O.3       1 ATP        -0.8003
      9 PA          6.1388    3.5441   -0.3139 P.3       1 ATP         1.7415
     10 O1A         6.5122    4.9778   -0.5559 O.2       1 ATP        -0.8661
     11 O2A         6.8954    2.8621    0.9433 O.3       1 ATP        -0.8077
     12 O3A         6.4925    2.5510   -1.5408 O.3       1 ATP        -0.7685
     13 O5'         4.5673    3.2930   -0.0211 O.3       1 ATP        -0.5590
     14 C5'         4.0922    1.9801    0.2227 C.3       1 ATP         0.1960
     15 C4'         2.5944    2.0310    0.4653 C.3       1 ATP         0.0976
     16 O4'         1.9327    2.5740   -0.6889 O.3       1 ATP        -0.3865
     17 C3'         1.9685    0.6634    0.6767 C.3       1 ATP         0.0901
     18 O3'         2.1425    0.1975    1.9977 O.3       1 ATP        -0.5889
     19 C2'         0.5176    0.9128    0.3099 C.3       1 ATP         0.0574
     20 O2'        -0.2103    1.4454    1.4152 O.3       1 ATP        -0.5923
     21 C1'         0.6219    1.9765   -0.7844 C.3       1 ATP         0.2452
     22 N9          0.4237    1.4496   -2.1357 N.pl3     1 ATP        -0.1834
     23 C8          1.4069    0.9710   -2.9662 C.ar      1 ATP         0.4338
     24 N7          0.9316    0.5623   -4.1260 N.2       1 ATP        -0.6101
     25 C5         -0.4120    0.7884   -4.0344 C.ar      1 ATP         0.2154
     26 C6         -1.4353    0.5283   -5.0204 C.ar      1 ATP         0.6130
     27 N6         -1.1199    0.0176   -6.1586 N.2       1 ATP        -0.8165
     28 N1         -2.6704    0.9095   -4.5147 N.pl3     1 ATP        -0.8617
     29 C2         -2.8863    1.4571   -3.2520 C.ar      1 ATP         0.6151
     30 N3         -1.9805    1.7017   -2.3442 N.2       1 ATP        -0.5797
     31 C4         -0.7561    1.3381   -2.8112 C.ar      1 ATP         0.0328
     32 HOG3        6.2478    0.0207   -5.6616 H         1 ATP         0.4197
     33 HOA2        7.8749    2.8112    0.9363 H         1 ATP         0.4550
     34 H5'1        4.3175    1.3541   -0.6468 H         1 ATP         0.0431
     35 H5'2        4.6079    1.5730    1.0985 H         1 ATP         0.0431
     36 H4'         2.3752    2.7029    1.3156 H         1 ATP         0.1325
     37 H3'         2.4336   -0.1217   -0.0016 H         1 ATP         0.0782
     38 HO3'        3.0987    0.1465    2.1461 H         1 ATP         0.4062
     39 H2'         0.0316    0.0155   -0.0339 H         1 ATP         0.0689
     40 HO2'       -1.1270    1.5823    1.1180 H         1 ATP         0.4089
     41 H1'        -0.1474    2.7798   -0.6651 H         1 ATP         0.1098
     42 H8          2.4466    0.9468   -2.6694 H         1 ATP         0.0929
     43 HN62       -1.9661   -0.0965   -6.7275 H         1 ATP         0.3678
     44 H2         -3.9481    1.6825   -3.0660 H         1 ATP         0.0383
     45 H45        -3.4814    0.7753   -5.1133 H         1 ATP         0.4286
@<TRIPOS>BOND
     1    1    2 2
     2    1    3 1
     3    1    4 1
     4    1    8 1
     5    4   32 1
     6    5    6 2
     7    5    7 1
     8    5    8 1
     9    5   12 1
    10    9   10 2
    11    9   11 1
    12    9   12 1
    13    9   13 1
    14   11   33 1
    15   13   14 1
    16   14   15 1
    17   14   34 1
    18   14   35 1
    19   15   16 1
    20   15   17 1
    21   15   36 1
    22   16   21 1
    23   17   18 1
    24   17   19 1
    25   17   37 1
    26   18   38 1
    27   19   20 1
    28   19   21 1
    29   19   39 1
    30   20   40 1
    31   21   22 1
    32   21   41 1
    33   22   23 ar
    34   22   31 ar
    35   23   24 ar
    36   23   42 1
    37   24   25 ar
    38   25   26 ar
    39   25   31 ar
    40   26   27 2
    41   26   28 ar
    42   27   43 1
    43   28   29 ar
    44   28   45 1
    45   29   30 ar
    46   29   44 1
    47   30   31 ar
@<TRIPOS>SUBSTRUCTURE
     1 ATP         1 GROUP 0 A     ****
@<TRIPOS>MOLECULE
[[[3,4-dihydroxy-5-(6-imino-1~{H}-purin-9-yl)tetrahydrofuran-2-yl]methoxy-hydroxy-phosphoryl]oxy-oxido-phosphoryl] hydrogen phosphate
   45    47     1     0     0
SMALL
USER_CHARGES

@<TRIPOS>ATOM
      1 PG         -3.7702    3.9508    5.5541 P.3       1 ATP         1.5414
      2 O1G        -3.3393    4.7955    6.7324 O.co2     1 ATP        -0.8562
      3 O2G        -2.8782    2.8544    5.0158 O.co2     1 ATP        -0.8562
      4 O3G        -5.2367    3.3124    5.8826 O.3       1 ATP        -0.7907
      5 PB         -3.2998    5.9496    3.4221 P.3       1 ATP         1.6574
      6 O1B        -4.1622    6.4969    2.3065 O.co2     1 ATP        -0.8530
      7 O2B        -2.5367    6.8749    4.3436 O.co2     1 ATP        -0.8530
      8 O3B        -4.2010    4.9347    4.3273 O.3       1 ATP        -0.8003
      9 PA         -1.0201    5.0520    1.7613 P.3       1 ATP         1.7415
     10 O1A        -0.1913    6.2779    2.0142 O.2       1 ATP        -0.8661
     11 O2A        -1.7336    5.0186    0.3095 O.3       1 ATP        -0.8077
     12 O3A        -2.2583    4.8663    2.7856 O.3       1 ATP        -0.7685
     13 O5'        -0.2068    3.6554    1.8412 O.3       1 ATP        -0.5590
     14 C5'        -0.8811    2.4285    1.6206 C.3       1 ATP         0.1960
     15 C4'        -0.1994    1.3333    2.4288 C.3       1 ATP         0.0976
     16 O4'        -1.1285    0.2356    2.5840 O.3       1 ATP        -0.3865
     17 C3'         1.0324    0.7610    1.7344 C.3       1 ATP         0.0901
     18 O3'         1.9175    0.2377    2.7247 O.3       1 ATP        -0.5889
     19 C2'         0.4468   -0.3802    0.9263 C.3       1 ATP         0.0574
     20 O2'         1.3993   -1.3703    0.5961 O.3       1 ATP        -0.5923
     21 C1'        -0.6159   -0.9100    1.8769 C.3       1 ATP         0.2452
     22 N9         -1.7127   -1.6108    1.2130 N.pl3     1 ATP        -0.1834
     23 C8         -2.5485   -1.0808    0.2609 C.ar      1 ATP         0.4338
     24 N7         -3.4476   -1.9486   -0.1593 N.2       1 ATP        -0.6101
     25 C5         -3.1762   -3.0816    0.5530 C.ar      1 ATP         0.2154
     26 C6         -3.8510   -4.3579    0.5006 C.ar      1 ATP         0.6130
     27 N6         -4.8468   -4.5293   -0.2961 N.2       1 ATP        -0.8165
     28 N1         -3.2499   -5.2342    1.3937 N.pl3     1 ATP        -0.8617
     29 C2         -2.1646   -4.9275    2.2116 C.ar      1 ATP         0.6151
     30 N3         -1.5382   -3.7840    2.2778 N.2       1 ATP        -0.5797
     31 C4         -2.1054   -2.9018    1.4120 C.ar      1 ATP         0.0328
     32 HOG3       -5.6556    2.7346    5.2094 H         1 ATP         0.4197
     33 HOA2       -1.1730    5.0459   -0.4950 H         1 ATP         0.4550
     34 H5'1       -1.9259    2.5372    1.9293 H         1 ATP         0.0431
     35 H5'2       -0.8477    2.1923    0.5521 H         1 ATP         0.0431
     36 H4'         0.0402    1.7079    3.4342 H         1 ATP         0.1325
     37 H3'         1.5907    1.4859    1.1353 H         1 ATP         0.0782
     38 HO3'        2.6839   -0.1150    2.2479 H         1 ATP         0.4062
     39 H2'        -0.0017    0.0018    0.0005 H         1 ATP         0.0689
     40 HO2'        0.9369   -2.0558    0.0825 H         1 ATP         0.4089
     41 H1'        -0.1998   -1.6319    2.6178 H         1 ATP         0.1098
     42 H8         -2.4515   -0.0599   -0.0829 H         1 ATP         0.0929
     43 HN62       -5.1990   -5.4882   -0.2005 H         1 ATP         0.3678
     44 H2         -1.8555   -5.7783    2.8388 H         1 ATP         0.0383
     45 H45        -3.6312   -6.1750    1.4526 H         1 ATP         0.4286
@<TRIPOS>BOND
     1    1    2 2
     2    1    3 1
     3    1    4 1
     4    1    8 1
     5    4   32 1
     6    5    6 2
     7    5    7 1
     8    5    8 1
     9    5   12 1
    10    9   10 2
    11    9   11 1
    12    9   12 1
    13    9   13 1
    14   11   33 1
    15   13   14 1
    16   14   15 1
    17   14   34 1
    18   14   35 1
    19   15   16 1
    20   15   17 1
    21   15   36 1
    22   16   21 1
    23   17   18 1
    24   17   19 1
    25   17   37 1
    26   18   38 1
    27   19   20 1
    28   19   21 1
    29   19   39 1
    30   20   40 1
    31   21   22 1
    32   21   41 1
    33   22   23 ar
    34   22   31 ar
    35   23   24 ar
    36   23   42 1
    37   24   25 ar
    38   25   26 ar
    39   25   31 ar
    40   26   27 2
    41   26   28 ar
    42   27   43 1
    43   28   29 ar
    44   28   45 1
    45   29   30 ar
    46   29   44 1
    47   30   31 ar
@<TRIPOS>SUBSTRUCTURE
     1 ATP         1 GROUP 0 A     ****
@<TRIPOS>MOLECULE
[[[3,4-dihydroxy-5-(6-imino-1~{H}-purin-9-yl)tetrahydrofuran-2-yl]methoxy-hydroxy-phosphoryl]oxy-oxido-phosphoryl] hydrogen phosphate
   45    47     1     0     0
SMALL
USER_CHARGES

@<TRIPOS>ATOM
      1 PG         -3.6869    3.6613    7.3333 P.3       1 ATP         1.5414
      2 O1G        -5.1591    3.6626    6.9869 O.co2     1 ATP        -0.8562
      3 O2G        -3.1283    4.6234    8.3579 O.co2     1 ATP        -0.8562
      4 O3G        -3.2551    2.1444    7.7561 O.3       1 ATP        -0.7907
      5 PB         -2.6917    5.0244    4.9015 P.3       1 ATP         1.6574
      6 O1B        -4.0258    5.2126    4.2140 O.co2     1 ATP        -0.8530
      7 O2B        -1.9978    6.1800    5.5876 O.co2     1 ATP        -0.8530
      8 O3B        -2.8198    3.7880    5.9582 O.3       1 ATP        -0.8003
      9 PA         -1.0028    4.9145    2.4731 P.3       1 ATP         1.7415
     10 O1A        -0.1757    6.1539    2.6562 O.2       1 ATP        -0.8661
     11 O2A        -2.2844    5.1064    1.5043 O.3       1 ATP        -0.8077
     12 O3A        -1.6550    4.3452    3.8396 O.3       1 ATP        -0.7685
     13 O5'        -0.2068    3.6554    1.8412 O.3       1 ATP        -0.5590
     14 C5'        -0.8811    2.4285    1.6206 C.3       1 ATP         0.1960
     15 C4'        -0.1994    1.3333    2.4288 C.3       1 ATP         0.0976
     16 O4'        -1.1285    0.2356    2.5840 O.3       1 ATP        -0.3865
     17 C3'         1.0324    0.7610    1.7344 C.3       1 ATP         0.0901
     18 O3'         1.9175    0.2377    2.7247 O.3       1 ATP        -0.5889
     19 C2'         0.4468   -0.3802    0.9263 C.3       1 ATP         0.0574
     20 O2'         1.3993   -1.3703    0.5961 O.3       1 ATP        -0.5923
     21 C1'        -0.6159   -0.9100    1.8769 C.3       1 ATP         0.2452
     22 N9         -1.7127   -1.6108    1.2130 N.pl3     1 ATP        -0.1834
     23 C8         -1.7690   -2.9583    0.9549 C.ar      1 ATP         0.4338
     24 N7         -2.8827   -3.3076    0.3418 N.2       1 ATP        -0.6101
     25 C5         -3.5683   -2.1351    0.2017 C.ar      1 ATP         0.2154
     26 C6         -4.8617   -1.9185   -0.4044 C.ar      1 ATP         0.6130
     27 N6         -5.5166   -2.9094   -0.8993 N.2       1 ATP        -0.8165
     28 N1         -5.1837   -0.5701   -0.3344 N.pl3     1 ATP        -0.8617
     29 C2         -4.3821    0.4180    0.2330 C.ar      1 ATP         0.6151
     30 N3         -3.2117    0.2488    0.7860 N.2       1 ATP        -0.5797
     31 C4         -2.8672   -1.0657    0.7327 C.ar      1 ATP         0.0328
     32 HOG3       -2.3223    1.9785    8.0105 H         1 ATP         0.4197
     33 HOA2       -2.1388    5.3842    0.5749 H         1 ATP         0.4550
     34 H5'1       -1.9259    2.5372    1.9293 H         1 ATP         0.0431
     35 H5'2       -0.8477    2.1923    0.5521 H         1 ATP         0.0431
     36 H4'         0.0402    1.7079    3.4342 H         1 ATP         0.1325
     37 H3'         1.5907    1.4859    1.1353 H         1 ATP         0.0782
     38 HO3'        2.6839   -0.1150    2.2479 H         1 ATP         0.4062
     39 H2'        -0.0017    0.0018    0.0005 H         1 ATP         0.0689
     40 HO2'        2.0953   -0.9375    0.0709 H         1 ATP         0.4089
     41 H1'        -0.1998   -1.6319    2.6178 H         1 ATP         0.1098
     42 H8         -0.9697   -3.6300    1.2371 H         1 ATP         0.0929
     43 HN62       -6.4060   -2.5723   -1.2840 H         1 ATP         0.3678
     44 H2         -4.8409    1.4176    0.1757 H         1 ATP         0.0383
     45 H45        -6.0768   -0.2826   -0.7263 H         1 ATP         0.4286
@<TRIPOS>BOND
     1    1    2 2
     2    1    3 1
     3    1    4 1
     4    1    8 1
     5    4   32 1
     6    5    6 2
     7    5    7 1
     8    5    8 1
     9    5   12 1
    10    9   10 2
    11    9   11 1
    12    9   12 1
    13    9   13 1
    14   11   33 1
    15   13   14 1
    16   14   15 1
    17   14   34 1
    18   14   35 1
    19   15   16 1
    20   15   17 1
    21   15   36 1
    22   16   21 1
    23   17   18 1
    24   17   19 1
    25   17   37 1
    26   18   38 1
    27   19   20 1
    28   19   21 1
    29   19   39 1
    30   20   40 1
    31   21   22 1
    32   21   41 1
    33   22   23 ar
    34   22   31 ar
    35   23   24 ar
    36   23   42 1
    37   24   25 ar
    38   25   26 ar
    39   25   31 ar
    40   26   27 2
    41   26   28 ar
    42   27   43 1
    43   28   29 ar
    44   28   45 1
    45   29   30 ar
    46   29   44 1
    47   30   31 ar
@<TRIPOS>SUBSTRUCTURE
     1 ATP         1 GROUP 0 A     ****
@<TRIPOS>MOLECULE
[[[3,4-dihydroxy-5-(6-imino-1~{H}-purin-9-yl)tetrahydrofuran-2-yl]methoxy-hydroxy-phosphoryl]oxy-oxido-phosphoryl] hydrogen phosphate
   45    47     1     0     0
SMALL
USER_CHARGES

@<TRIPOS>ATOM
      1 PG          5.4078    3.1443   -6.0176 P.3       1 ATP         1.5414
      2 O1G         4.0197    2.9075   -6.5694 O.co2     1 ATP        -0.8562
      3 O2G         6.5583    2.2362   -6.3908 O.co2     1 ATP        -0.8562
      4 O3G         5.8379    4.6862   -6.3399 O.3       1 ATP        -0.7907
      5 PB          6.4635    3.6433   -3.2975 P.3       1 ATP         1.6574
      6 O1B         7.5161    2.5571   -3.2860 O.co2     1 ATP        -0.8530
      7 O2B         6.8425    5.0947   -3.4913 O.co2     1 ATP        -0.8530
      8 O3B         5.3203    3.2495   -4.3928 O.3       1 ATP        -0.8003
      9 PA          5.9543    3.7373   -0.3833 P.3       1 ATP         1.7415
     10 O1A         6.4347    5.1233   -0.0640 O.2       1 ATP        -0.8661
     11 O2A         7.0417    2.5735   -0.0984 O.3       1 ATP        -0.8077
     12 O3A         5.5700    3.5110   -1.9382 O.3       1 ATP        -0.7685
     13 O5'         4.6408    3.2692    0.4376 O.3       1 ATP        -0.5590
     14 C5'         4.0922    1.9801    0.2227 C.3       1 ATP         0.1960
     15 C4'         2.5944    2.0310    0.4653 C.3       1 ATP         0.0976
     16 O4'         1.9327    2.5740   -0.6889 O.3       1 ATP        -0.3865
     17 C3'         1.9685    0.6634    0.6767 C.3       1 ATP         0.0901
     18 O3'         2.1425    0.1975    1.9977 O.3       1 ATP        -0.5889
     19 C2'         0.5176    0.9128    0.3099 C.3       1 ATP         0.0574
     20 O2'        -0.2103    1.4454    1.4152 O.3       1 ATP        -0.5923
     21 C1'         0.6219    1.9765   -0.7844 C.3       1 ATP         0.2452
     22 N9          0.4237    1.4496   -2.1357 N.pl3     1 ATP        -0.1834
     23 C8          1.4069    0.9710   -2.9662 C.ar      1 ATP         0.4338
     24 N7          0.9316    0.5623   -4.1260 N.2       1 ATP        -0.6101
     25 C5         -0.4120    0.7884   -4.0344 C.ar      1 ATP         0.2154
     26 C6         -1.4353    0.5283   -5.0204 C.ar      1 ATP         0.6130
     27 N6         -1.1199    0.0176   -6.1586 N.2       1 ATP        -0.8165
     28 N1         -2.6704    0.9095   -4.5147 N.pl3     1 ATP        -0.8617
     29 C2         -2.8863    1.4571   -3.2520 C.ar      1 ATP         0.6151
     30 N3         -1.9805    1.7017   -2.3442 N.2       1 ATP        -0.5797
     31 C4         -0.7561    1.3381   -2.8112 C.ar      1 ATP         0.0328
     32 HOG3        6.7198    4.9965   -6.0430 H         1 ATP         0.4197
     33 HOA2        7.3839    2.4574    0.8135 H         1 ATP         0.4550
     34 H5'1        4.3024    1.6722   -0.8067 H         1 ATP         0.0431
     35 H5'2        4.5673    1.2731    0.9105 H         1 ATP         0.0431
     36 H4'         2.3752    2.7029    1.3156 H         1 ATP         0.1325
     37 H3'         2.4336   -0.1217   -0.0016 H         1 ATP         0.0782
     38 HO3'        1.7160   -0.6716    2.0397 H         1 ATP         0.4062
     39 H2'         0.0316    0.0155   -0.0339 H         1 ATP         0.0689
     40 HO2'       -0.1608    0.7921    2.1351 H         1 ATP         0.4089
     41 H1'        -0.1474    2.7798   -0.6651 H         1 ATP         0.1098
     42 H8          2.4466    0.9468   -2.6694 H         1 ATP         0.0929
     43 HN62       -1.9661   -0.0965   -6.7275 H         1 ATP         0.3678
     44 H2         -3.9481    1.6825   -3.0660 H         1 ATP         0.0383
     45 H45        -3.4814    0.7753   -5.1133 H         1 ATP         0.4286
@<TRIPOS>BOND
     1    1    2 2
     2    1    3 1
     3    1    4 1
     4    1    8 1
     5    4   32 1
     6    5    6 2
     7    5    7 1
     8    5    8 1
     9    5   12 1
    10    9   10 2
    11    9   11 1
    12    9   12 1
    13    9   13 1
    14   11   33 1
    15   13   14 1
    16   14   15 1
    17   14   34 1
    18   14   35 1
    19   15   16 1
    20   15   17 1
    21   15   36 1
    22   16   21 1
    23   17   18 1
    24   17   19 1
    25   17   37 1
    26   18   38 1
    27   19   20 1
    28   19   21 1
    29   19   39 1
    30   20   40 1
    31   21   22 1
    32   21   41 1
    33   22   23 ar
    34   22   31 ar
    35   23   24 ar
    36   23   42 1
    37   24   25 ar
    38   25   26 ar
    39   25   31 ar
    40   26   27 2
    41   26   28 ar
    42   27   43 1
    43   28   29 ar
    44   28   45 1
    45   29   30 ar
    46   29   44 1
    47   30   31 ar
@<TRIPOS>SUBSTRUCTURE
     1 ATP         1 GROUP 0 A     ****
@<TRIPOS>MOLECULE
[[[3,4-dihydroxy-5-(6-imino-1~{H}-purin-9-yl)tetrahydrofuran-2-yl]methoxy-hydroxy-phosphoryl]oxy-oxido-phosphoryl] hydrogen phosphate
   45    47     1     0     0
SMALL
USER_CHARGES

@<TRIPOS>ATOM
      1 PG          9.1295    6.0592    0.1021 P.3       1 ATP         1.5414
      2 O1G         9.7190    5.8186   -1.2698 O.co2     1 ATP        -0.8562
      3 O2G        10.0195    6.3369    1.2930 O.co2     1 ATP        -0.8562
      4 O3G         8.0250    7.2565   -0.0109 O.3       1 ATP        -0.7907
      5 PB          8.4373    3.2548    0.7491 P.3       1 ATP         1.6574
      6 O1B         8.9274    2.6234   -0.5350 O.co2     1 ATP        -0.8530
      7 O2B         9.2353    3.1401    2.0288 O.co2     1 ATP        -0.8530
      8 O3B         8.1218    4.8306    0.4677 O.3       1 ATP        -0.8003
      9 PA          6.3383    1.2702    1.3945 P.3       1 ATP         1.7415
     10 O1A         6.8885    0.6904    2.6653 O.2       1 ATP        -0.8661
     11 O2A         6.6702    0.4038    0.0690 O.3       1 ATP        -0.8077
     12 O3A         6.9154    2.7370    1.0311 O.3       1 ATP        -0.7685
     13 O5'         4.7296    1.4429    1.3689 O.3       1 ATP        -0.5590
     14 C5'         4.0922    1.9801    0.2227 C.3       1 ATP         0.1960
     15 C4'         2.5944    2.0310    0.4653 C.3       1 ATP         0.0976
     16 O4'         1.9327    2.5740   -0.6889 O.3       1 ATP        -0.3865
     17 C3'         1.9685    0.6634    0.6767 C.3       1 ATP         0.0901
     18 O3'         2.1425    0.1975    1.9977 O.3       1 ATP        -0.5889
     19 C2'         0.5176    0.9128    0.3099 C.3       1 ATP         0.0574
     20 O2'        -0.2103    1.4454    1.4152 O.3       1 ATP        -0.5923
     21 C1'         0.6219    1.9765   -0.7844 C.3       1 ATP         0.2452
     22 N9          0.4237    1.4496   -2.1357 N.pl3     1 ATP        -0.1834
     23 C8          1.4069    0.9710   -2.9662 C.ar      1 ATP         0.4338
     24 N7          0.9316    0.5623   -4.1260 N.2       1 ATP        -0.6101
     25 C5         -0.4120    0.7884   -4.0344 C.ar      1 ATP         0.2154
     26 C6         -1.4353    0.5283   -5.0204 C.ar      1 ATP         0.6130
     27 N6         -1.1199    0.0176   -6.1586 N.2       1 ATP        -0.8165
     28 N1         -2.6704    0.9095   -4.5147 N.pl3     1 ATP        -0.8617
     29 C2         -2.8863    1.4571   -3.2520 C.ar      1 ATP         0.6151
     30 N3         -1.9805    1.7017   -2.3442 N.2       1 ATP        -0.5797
     31 C4         -0.7561    1.3381   -2.8112 C.ar      1 ATP         0.0328
     32 HOG3        7.5501    7.5316    0.8022 H         1 ATP         0.4197
     33 HOA2        6.3519   -0.5225    0.0159 H         1 ATP         0.4550
     34 H5'1        4.4838    2.9857    0.0375 H         1 ATP         0.0431
     35 H5'2        4.3186    1.3449   -0.6398 H         1 ATP         0.0431
     36 H4'         2.3752    2.7029    1.3156 H         1 ATP         0.1325
     37 H3'         2.4336   -0.1217   -0.0016 H         1 ATP         0.0782
     38 HO3'        3.0987    0.1465    2.1461 H         1 ATP         0.4062
     39 H2'         0.0316    0.0155   -0.0339 H         1 ATP         0.0689
     40 HO2'       -0.1608    0.7921    2.1351 H         1 ATP         0.4089
     41 H1'        -0.1474    2.7798   -0.6651 H         1 ATP         0.1098
     42 H8          2.4466    0.9468   -2.6694 H         1 ATP         0.0929
     43 HN62       -1.9661   -0.0965   -6.7275 H         1 ATP         0.3678
     44 H2         -3.9481    1.6825   -3.0660 H         1 ATP         0.0383
     45 H45        -3.4814    0.7753   -5.1133 H         1 ATP         0.4286
@<TRIPOS>BOND
     1    1    2 2
     2    1    3 1
     3    1    4 1
     4    1    8 1
     5    4   32 1
     6    5    6 2
     7    5    7 1
     8    5    8 1
     9    5   12 1
    10    9   10 2
    11    9   11 1
    12    9   12 1
    13    9   13 1
    14   11   33 1
    15   13   14 1
    16   14   15 1
    17   14   34 1
    18   14   35 1
    19   15   16 1
    20   15   17 1
    21   15   36 1
    22   16   21 1
    23   17   18 1
    24   17   19 1
    25   17   37 1
    26   18   38 1
    27   19   20 1
    28   19   21 1
    29   19   39 1
    30   20   40 1
    31   21   22 1
    32   21   41 1
    33   22   23 ar
    34   22   31 ar
    35   23   24 ar
    36   23   42 1
    37   24   25 ar
    38   25   26 ar
    39   25   31 ar
    40   26   27 2
    41   26   28 ar
    42   27   43 1
    43   28   29 ar
    44   28   45 1
    45   29   30 ar
    46   29   44 1
    47   30   31 ar
@<TRIPOS>SUBSTRUCTURE
     1 ATP         1 GROUP 0 A     ****
@<TRIPOS>MOLECULE
[[[3,4-dihydroxy-5-(6-imino-1~{H}-purin-9-yl)tetrahydrofuran-2-yl]methoxy-hydroxy-phosphoryl]oxy-oxido-phosphoryl] hydrogen phosphate
   45    47     1     0     0
SMALL
USER_CHARGES

@<TRIPOS>ATOM
      1 PG          9.3224   -0.8975    2.7510 P.3       1 ATP         1.5414
      2 O1G        10.2312    0.2727    3.0546 O.co2     1 ATP        -0.8562
      3 O2G         9.8851   -2.2111    2.2560 O.co2     1 ATP        -0.8562
      4 O3G         8.3984   -1.1908    4.0649 O.3       1 ATP        -0.7907
      5 PB          8.2369    0.0825    0.1774 P.3       1 ATP         1.6574
      6 O1B         8.9923    1.3918    0.1239 O.co2     1 ATP        -0.8530
      7 O2B         8.6529   -1.0935   -0.6780 O.co2     1 ATP        -0.8530
      8 O3B         8.1487   -0.4052    1.7317 O.3       1 ATP        -0.8003
      9 PA          5.8742    0.9198   -1.3967 P.3       1 ATP         1.7415
     10 O1A         6.0134    0.0298   -2.5976 O.2       1 ATP        -0.8661
     11 O2A         6.4679    2.4111   -1.6008 O.3       1 ATP        -0.8077
     12 O3A         6.6551    0.3880   -0.0837 O.3       1 ATP        -0.7685
     13 O5'         4.3520    1.1579   -0.9021 O.3       1 ATP        -0.5590
     14 C5'         4.0922    1.9801    0.2227 C.3       1 ATP         0.1960
     15 C4'         2.5944    2.0310    0.4653 C.3       1 ATP         0.0976
     16 O4'         1.9327    2.5740   -0.6889 O.3       1 ATP        -0.3865
     17 C3'         1.9685    0.6634    0.6767 C.3       1 ATP         0.0901
     18 O3'         2.1425    0.1975    1.9977 O.3       1 ATP        -0.5889
     19 C2'         0.5176    0.9128    0.3099 C.3       1 ATP         0.0574
     20 O2'        -0.2103    1.4454    1.4152 O.3       1 ATP        -0.5923
     21 C1'         0.6219    1.9765   -0.7844 C.3       1 ATP         0.2452
     22 N9          0.4237    1.4496   -2.1357 N.pl3     1 ATP        -0.1834
     23 C8          1.4069    0.9710   -2.9662 C.ar      1 ATP         0.4338
     24 N7          0.9316    0.5623   -4.1260 N.2       1 ATP        -0.6101
     25 C5         -0.4120    0.7884   -4.0344 C.ar      1 ATP         0.2154
     26 C6         -1.4353    0.5283   -5.0204 C.ar      1 ATP         0.6130
     27 N6         -1.1199    0.0176   -6.1586 N.2       1 ATP        -0.8165
     28 N1         -2.6704    0.9095   -4.5147 N.pl3     1 ATP        -0.8617
     29 C2         -2.8863    1.4571   -3.2520 C.ar      1 ATP         0.6151
     30 N3         -1.9805    1.7017   -2.3442 N.2       1 ATP        -0.5797
     31 C4         -0.7561    1.3381   -2.8112 C.ar      1 ATP         0.0328
     32 HOG3        7.7510   -1.9268    4.0253 H         1 ATP         0.4197
     33 HOA2        6.0941    2.9774   -2.3091 H         1 ATP         0.4550
     34 H5'1        4.6066    1.5622    1.0942 H         1 ATP         0.0431
     35 H5'2        4.4821    2.9841    0.0260 H         1 ATP         0.0431
     36 H4'         2.3752    2.7029    1.3156 H         1 ATP         0.1325
     37 H3'         2.4336   -0.1217   -0.0016 H         1 ATP         0.0782
     38 HO3'        1.7160   -0.6716    2.0397 H         1 ATP         0.4062
     39 H2'         0.0316    0.0155   -0.0339 H         1 ATP         0.0689
     40 HO2'       -0.1608    0.7921    2.1351 H         1 ATP         0.4089
     41 H1'        -0.1474    2.7798   -0.6651 H         1 ATP         0.1098
     42 H8          2.4466    0.9468   -2.6694 H         1 ATP         0.0929
     43 HN62       -1.9661   -0.0965   -6.7275 H         1 ATP         0.3678
     44 H2         -3.9481    1.6825   -3.0660 H         1 ATP         0.0383
     45 H45        -3.4814    0.7753   -5.1133 H         1 ATP         0.4286
@<TRIPOS>BOND
     1    1    2 2
     2    1    3 1
     3    1    4 1
     4    1    8 1
     5    4   32 1
     6    5    6 2
     7    5    7 1
     8    5    8 1
     9    5   12 1
    10    9   10 2
    11    9   11 1
    12    9   12 1
    13    9   13 1
    14   11   33 1
    15   13   14 1
    16   14   15 1
    17   14   34 1
    18   14   35 1
    19   15   16 1
    20   15   17 1
    21   15   36 1
    22   16   21 1
    23   17   18 1
    24   17   19 1
    25   17   37 1
    26   18   38 1
    27   19   20 1
    28   19   21 1
    29   19   39 1
    30   20   40 1
    31   21   22 1
    32   21   41 1
    33   22   23 ar
    34   22   31 ar
    35   23   24 ar
    36   23   42 1
    37   24   25 ar
    38   25   26 ar
    39   25   31 ar
    40   26   27 2
    41   26   28 ar
    42   27   43 1
    43   28   29 ar
    44   28   45 1
    45   29   30 ar
    46   29   44 1
    47   30   31 ar
@<TRIPOS>SUBSTRUCTURE
     1 ATP         1 GROUP 0 A     ****
@<TRIPOS>MOLECULE
[[[3,4-dihydroxy-5-(6-imino-1~{H}-purin-9-yl)tetrahydrofuran-2-yl]methoxy-hydroxy-phosphoryl]oxy-oxido-phosphoryl] hydrogen phosphate
   45    47     1     0     0
SMALL
USER_CHARGES

@<TRIPOS>ATOM
      1 PG          7.9965   -0.4246   -1.1871 P.3       1 ATP         1.5414
      2 O1G         6.5061   -0.2480   -1.3740 O.co2     1 ATP        -0.8562
      3 O2G         8.5465   -1.1924   -0.0058 O.co2     1 ATP        -0.8562
      4 O3G         8.6187   -1.0620   -2.5556 O.3       1 ATP        -0.7907
      5 PB          8.6167    2.3066   -0.2290 P.3       1 ATP         1.6574
      6 O1B         8.9343    1.8267    1.1697 O.co2     1 ATP        -0.8530
      7 O2B         9.3543    3.4784   -0.8379 O.co2     1 ATP        -0.8530
      8 O3B         8.7145    1.0380   -1.2501 O.3       1 ATP        -0.8003
      9 PA          6.0786    3.6970    0.3924 P.3       1 ATP         1.7415
     10 O1A         6.4580    5.1157    0.0811 O.2       1 ATP        -0.8661
     11 O2A         6.1835    3.3084    1.9596 O.3       1 ATP        -0.8077
     12 O3A         7.0121    2.5885   -0.3262 O.3       1 ATP        -0.7685
     13 O5'         4.5673    3.2930   -0.0211 O.3       1 ATP        -0.5590
     14 C5'         4.0922    1.9801    0.2227 C.3       1 ATP         0.1960
     15 C4'         2.5944    2.0310    0.4653 C.3       1 ATP         0.0976
     16 O4'         1.9327    2.5740   -0.6889 O.3       1 ATP        -0.3865
     17 C3'         1.9685    0.6634    0.6767 C.3       1 ATP         0.0901
     18 O3'         2.1425    0.1975    1.9977 O.3       1 ATP        -0.5889
     19 C2'         0.5176    0.9128    0.3099 C.3       1 ATP         0.0574
     20 O2'        -0.2103    1.4454    1.4152 O.3       1 ATP        -0.5923
     21 C1'         0.6219    1.9765   -0.7844 C.3       1 ATP         0.2452
     22 N9          0.4237    1.4496   -2.1357 N.pl3     1 ATP        -0.1834
     23 C8          1.4069    0.9710   -2.9662 C.ar      1 ATP         0.4338
     24 N7          0.9316    0.5623   -4.1260 N.2       1 ATP        -0.6101
     25 C5         -0.4120    0.7884   -4.0344 C.ar      1 ATP         0.2154
     26 C6         -1.4353    0.5283   -5.0204 C.ar      1 ATP         0.6130
     27 N6         -1.1199    0.0176   -6.1586 N.2       1 ATP        -0.8165
     28 N1         -2.6704    0.9095   -4.5147 N.pl3     1 ATP        -0.8617
     29 C2         -2.8863    1.4571   -3.2520 C.ar      1 ATP         0.6151
     30 N3         -1.9805    1.7017   -2.3442 N.2       1 ATP        -0.5797
     31 C4         -0.7561    1.3381   -2.8112 C.ar      1 ATP         0.0328
     32 HOG3        9.5832   -1.2376   -2.5921 H         1 ATP         0.4197
     33 HOA2        7.0521    3.3824    2.4093 H         1 ATP         0.4550
     34 H5'1        4.3175    1.3541   -0.6468 H         1 ATP         0.0431
     35 H5'2        4.6079    1.5730    1.0985 H         1 ATP         0.0431
     36 H4'         2.3752    2.7029    1.3156 H         1 ATP         0.1325
     37 H3'         2.4336   -0.1217   -0.0016 H         1 ATP         0.0782
     38 HO3'        1.7160   -0.6716    2.0397 H         1 ATP         0.4062
     39 H2'         0.0316    0.0155   -0.0339 H         1 ATP         0.0689
     40 HO2'       -0.1608    0.7921    2.1351 H         1 ATP         0.4089
     41 H1'        -0.1474    2.7798   -0.6651 H         1 ATP         0.1098
     42 H8          2.4466    0.9468   -2.6694 H         1 ATP         0.0929
     43 HN62       -1.9661   -0.0965   -6.7275 H         1 ATP         0.3678
     44 H2         -3.9481    1.6825   -3.0660 H         1 ATP         0.0383
     45 H45        -3.4814    0.7753   -5.1133 H         1 ATP         0.4286
@<TRIPOS>BOND
     1    1    2 2
     2    1    3 1
     3    1    4 1
     4    1    8 1
     5    4   32 1
     6    5    6 2
     7    5    7 1
     8    5    8 1
     9    5   12 1
    10    9   10 2
    11    9   11 1
    12    9   12 1
    13    9   13 1
    14   11   33 1
    15   13   14 1
    16   14   15 1
    17   14   34 1
    18   14   35 1
    19   15   16 1
    20   15   17 1
    21   15   36 1
    22   16   21 1
    23   17   18 1
    24   17   19 1
    25   17   37 1
    26   18   38 1
    27   19   20 1
    28   19   21 1
    29   19   39 1
    30   20   40 1
    31   21   22 1
    32   21   41 1
    33   22   23 ar
    34   22   31 ar
    35   23   24 ar
    36   23   42 1
    37   24   25 ar
    38   25   26 ar
    39   25   31 ar
    40   26   27 2
    41   26   28 ar
    42   27   43 1
    43   28   29 ar
    44   28   45 1
    45   29   30 ar
    46   29   44 1
    47   30   31 ar
@<TRIPOS>SUBSTRUCTURE
     1 ATP         1 GROUP 0 A     ****
@<TRIPOS>MOLECULE
[[[3,4-dihydroxy-5-(6-imino-1~{H}-purin-9-yl)tetrahydrofuran-2-yl]methoxy-hydroxy-phosphoryl]oxy-oxido-phosphoryl] hydrogen phosphate
   45    47     1     0     0
SMALL
USER_CHARGES

@<TRIPOS>ATOM
      1 PG         -5.1059   -0.1532   -2.5642 P.3       1 ATP         1.5414
      2 O1G        -4.7201    0.5013   -3.8720 O.co2     1 ATP        -0.8562
      3 O2G        -6.5543   -0.4372   -2.2343 O.co2     1 ATP        -0.8562
      4 O3G        -4.2565   -1.5390   -2.4076 O.3       1 ATP        -0.7907
      5 PB         -4.7347    2.1972   -0.8036 P.3       1 ATP         1.6574
      6 O1B        -4.2936    3.1791   -1.8662 O.co2     1 ATP        -0.8530
      7 O2B        -6.1341    2.2437   -0.2314 O.co2     1 ATP        -0.8530
      8 O3B        -4.4362    0.6842   -1.3359 O.3       1 ATP        -0.8003
      9 PA         -3.3138    3.4214    1.4862 P.3       1 ATP         1.7415
     10 O1A        -4.4758    3.8483    2.3355 O.2       1 ATP        -0.8661
     11 O2A        -2.7042    4.5947    0.5537 O.3       1 ATP        -0.8077
     12 O3A        -3.6627    2.2507    0.4259 O.3       1 ATP        -0.7685
     13 O5'        -2.0397    2.8622    2.3122 O.3       1 ATP        -0.5590
     14 C5'        -0.8811    2.4285    1.6206 C.3       1 ATP         0.1960
     15 C4'        -0.1994    1.3333    2.4288 C.3       1 ATP         0.0976
     16 O4'        -1.1285    0.2356    2.5840 O.3       1 ATP        -0.3865
     17 C3'         1.0324    0.7610    1.7344 C.3       1 ATP         0.0901
     18 O3'         1.9175    0.2377    2.7247 O.3       1 ATP        -0.5889
     19 C2'         0.4468   -0.3802    0.9263 C.3       1 ATP         0.0574
     20 O2'         1.3993   -1.3703    0.5961 O.3       1 ATP        -0.5923
     21 C1'        -0.6159   -0.9100    1.8769 C.3       1 ATP         0.2452
     22 N9         -1.7127   -1.6108    1.2130 N.pl3     1 ATP        -0.1834
     23 C8         -2.8662   -1.0361    0.7388 C.ar      1 ATP         0.4338
     24 N7         -3.6774   -1.9166    0.1867 N.2       1 ATP        -0.6101
     25 C5         -3.0159   -3.1045    0.3122 C.ar      1 ATP         0.2154
     26 C6         -3.4377   -4.4169   -0.1199 C.ar      1 ATP         0.6130
     27 N6         -4.5720   -4.5691   -0.7080 N.2       1 ATP        -0.8165
     28 N1         -2.4600   -5.3463    0.2071 N.pl3     1 ATP        -0.8617
     29 C2         -1.2595   -5.0554    0.8515 C.ar      1 ATP         0.6151
     30 N3         -0.8555   -3.8803    1.2516 N.2       1 ATP        -0.5797
     31 C4         -1.7946   -2.9457    0.9448 C.ar      1 ATP         0.0328
     32 HOG3       -4.3961   -2.0836   -1.6037 H         1 ATP         0.4197
     33 HOA2       -2.3487    5.4031    0.9806 H         1 ATP         0.4550
     34 H5'1       -1.1761    2.0499    0.6365 H         1 ATP         0.0431
     35 H5'2       -0.2073    3.2811    1.4874 H         1 ATP         0.0431
     36 H4'         0.0402    1.7079    3.4342 H         1 ATP         0.1325
     37 H3'         1.5907    1.4859    1.1353 H         1 ATP         0.0782
     38 HO3'        2.1521    0.9800    3.3017 H         1 ATP         0.4062
     39 H2'        -0.0017    0.0018    0.0005 H         1 ATP         0.0689
     40 HO2'        2.0953   -0.9375    0.0709 H         1 ATP         0.4089
     41 H1'        -0.1998   -1.6319    2.6178 H         1 ATP         0.1098
     42 H8         -3.0558    0.0252    0.8256 H         1 ATP         0.0929
     43 HN62       -4.7047   -5.5592   -0.9421 H         1 ATP         0.3678
     44 H2         -0.6372   -5.9505    1.0077 H         1 ATP         0.0383
     45 H45        -2.6338   -6.3155   -0.0469 H         1 ATP         0.4286
@<TRIPOS>BOND
     1    1    2 2
     2    1    3 1
     3    1    4 1
     4    1    8 1
     5    4   32 1
     6    5    6 2
     7    5    7 1
     8    5    8 1
     9    5   12 1
    10    9   10 2
    11    9   11 1
    12    9   12 1
    13    9   13 1
    14   11   33 1
    15   13   14 1
    16   14   15 1
    17   14   34 1
    18   14   35 1
    19   15   16 1
    20   15   17 1
    21   15   36 1
    22   16   21 1
    23   17   18 1
    24   17   19 1
    25   17   37 1
    26   18   38 1
    27   19   20 1
    28   19   21 1
    29   19   39 1
    30   20   40 1
    31   21   22 1
    32   21   41 1
    33   22   23 ar
    34   22   31 ar
    35   23   24 ar
    36   23   42 1
    37   24   25 ar
    38   25   26 ar
    39   25   31 ar
    40   26   27 2
    41   26   28 ar
    42   27   43 1
    43   28   29 ar
    44   28   45 1
    45   29   30 ar
    46   29   44 1
    47   30   31 ar
@<TRIPOS>SUBSTRUCTURE
     1 ATP         1 GROUP 0 A     ****
@<TRIPOS>MOLECULE
[[[3,4-dihydroxy-5-(6-imino-1~{H}-purin-9-yl)tetrahydrofuran-2-yl]methoxy-hydroxy-phosphoryl]oxy-oxido-phosphoryl] hydrogen phosphate
   45    47     1     0     0
SMALL
USER_CHARGES

@<TRIPOS>ATOM
      1 PG         -3.8885    3.5121   -2.0293 P.3       1 ATP         1.5414
      2 O1G        -4.9127    3.3113   -0.9346 O.co2     1 ATP        -0.8562
      3 O2G        -2.8701    2.4401   -2.3474 O.co2     1 ATP        -0.8562
      4 O3G        -4.6721    3.9085   -3.4059 O.3       1 ATP        -0.7907
      5 PB         -2.0954    5.3676   -0.5789 P.3       1 ATP         1.6574
      6 O1B        -1.5230    6.7275   -0.9118 O.co2     1 ATP        -0.8530
      7 O2B        -2.7674    5.1086    0.7512 O.co2     1 ATP        -0.8530
      8 O3B        -3.1120    4.9231   -1.7749 O.3       1 ATP        -0.8003
      9 PA          0.4610    3.9828   -0.0241 P.3       1 ATP         1.7415
     10 O1A         1.4152    5.1413   -0.0577 O.2       1 ATP        -0.8661
     11 O2A         1.0250    2.6353   -0.7201 O.3       1 ATP        -0.8077
     12 O3A        -0.9304    4.2474   -0.8055 O.3       1 ATP        -0.7685
     13 O5'         0.0171    3.5129    1.4593 O.3       1 ATP        -0.5590
     14 C5'        -0.8811    2.4285    1.6206 C.3       1 ATP         0.1960
     15 C4'        -0.1994    1.3333    2.4288 C.3       1 ATP         0.0976
     16 O4'        -1.1285    0.2356    2.5840 O.3       1 ATP        -0.3865
     17 C3'         1.0324    0.7610    1.7344 C.3       1 ATP         0.0901
     18 O3'         1.9175    0.2377    2.7247 O.3       1 ATP        -0.5889
     19 C2'         0.4468   -0.3802    0.9263 C.3       1 ATP         0.0574
     20 O2'         1.3993   -1.3703    0.5961 O.3       1 ATP        -0.5923
     21 C1'        -0.6159   -0.9100    1.8769 C.3       1 ATP         0.2452
     22 N9         -1.7127   -1.6108    1.2130 N.pl3     1 ATP        -0.1834
     23 C8         -2.8662   -1.0361    0.7388 C.ar      1 ATP         0.4338
     24 N7         -3.6774   -1.9166    0.1867 N.2       1 ATP        -0.6101
     25 C5         -3.0159   -3.1045    0.3122 C.ar      1 ATP         0.2154
     26 C6         -3.4377   -4.4169   -0.1199 C.ar      1 ATP         0.6130
     27 N6         -4.5720   -4.5691   -0.7080 N.2       1 ATP        -0.8165
     28 N1         -2.4600   -5.3463    0.2071 N.pl3     1 ATP        -0.8617
     29 C2         -1.2595   -5.0554    0.8515 C.ar      1 ATP         0.6151
     30 N3         -0.8555   -3.8803    1.2516 N.2       1 ATP        -0.5797
     31 C4         -1.7946   -2.9457    0.9448 C.ar      1 ATP         0.0328
     32 HOG3       -4.1413    4.0724   -4.2144 H         1 ATP         0.4197
     33 HOA2        1.2711    2.6593   -1.6693 H         1 ATP         0.4550
     34 H5'1       -1.7775    2.7843    2.1389 H         1 ATP         0.0431
     35 H5'2       -1.1658    2.0534    0.6322 H         1 ATP         0.0431
     36 H4'         0.0402    1.7079    3.4342 H         1 ATP         0.1325
     37 H3'         1.5907    1.4859    1.1353 H         1 ATP         0.0782
     38 HO3'        2.6839   -0.1150    2.2479 H         1 ATP         0.4062
     39 H2'        -0.0017    0.0018    0.0005 H         1 ATP         0.0689
     40 HO2'        2.0953   -0.9375    0.0709 H         1 ATP         0.4089
     41 H1'        -0.1998   -1.6319    2.6178 H         1 ATP         0.1098
     42 H8         -3.0558    0.0252    0.8256 H         1 ATP         0.0929
     43 HN62       -4.7047   -5.5592   -0.9421 H         1 ATP         0.3678
     44 H2         -0.6372   -5.9505    1.0077 H         1 ATP         0.0383
     45 H45        -2.6338   -6.3155   -0.0469 H         1 ATP         0.4286
@<TRIPOS>BOND
     1    1    2 2
     2    1    3 1
     3    1    4 1
     4    1    8 1
     5    4   32 1
     6    5    6 2
     7    5    7 1
     8    5    8 1
     9    5   12 1
    10    9   10 2
    11    9   11 1
    12    9   12 1
    13    9   13 1
    14   11   33 1
    15   13   14 1
    16   14   15 1
    17   14   34 1
    18   14   35 1
    19   15   16 1
    20   15   17 1
    21   15   36 1
    22   16   21 1
    23   17   18 1
    24   17   19 1
    25   17   37 1
    26   18   38 1
    27   19   20 1
    28   19   21 1
    29   19   39 1
    30   20   40 1
    31   21   22 1
    32   21   41 1
    33   22   23 ar
    34   22   31 ar
    35   23   24 ar
    36   23   42 1
    37   24   25 ar
    38   25   26 ar
    39   25   31 ar
    40   26   27 2
    41   26   28 ar
    42   27   43 1
    43   28   29 ar
    44   28   45 1
    45   29   30 ar
    46   29   44 1
    47   30   31 ar
@<TRIPOS>SUBSTRUCTURE
     1 ATP         1 GROUP 0 A     ****
@<TRIPOS>MOLECULE
[[[3,4-dihydroxy-5-(6-imino-1~{H}-purin-9-yl)tetrahydrofuran-2-yl]methoxy-hydroxy-phosphoryl]oxy-oxido-phosphoryl] hydrogen phosphate
   45    47     1     0     0
SMALL
USER_CHARGES

@<TRIPOS>ATOM
      1 PG          9.1847    4.9679    0.2173 P.3       1 ATP         1.5414
      2 O1G         9.2913    3.7240   -0.6364 O.co2     1 ATP        -0.8562
      3 O2G        10.1545    5.2186    1.3506 O.co2     1 ATP        -0.8562
      4 O3G         9.1855    6.2724   -0.7647 O.3       1 ATP        -0.7907
      5 PB          6.8510    4.1504    1.8445 P.3       1 ATP         1.6574
      6 O1B         7.6787    4.0163    3.1033 O.co2     1 ATP        -0.8530
      7 O2B         5.4122    4.6132    1.9027 O.co2     1 ATP        -0.8530
      8 O3B         7.6614    5.0905    0.7856 O.3       1 ATP        -0.8003
      9 PA          6.3383    1.2702    1.3945 P.3       1 ATP         1.7415
     10 O1A         6.8885    0.6904    2.6653 O.2       1 ATP        -0.8661
     11 O2A         6.6702    0.4038    0.0690 O.3       1 ATP        -0.8077
     12 O3A         6.9154    2.7370    1.0311 O.3       1 ATP        -0.7685
     13 O5'         4.7296    1.4429    1.3689 O.3       1 ATP        -0.5590
     14 C5'         4.0922    1.9801    0.2227 C.3       1 ATP         0.1960
     15 C4'         2.5944    2.0310    0.4653 C.3       1 ATP         0.0976
     16 O4'         1.9327    2.5740   -0.6889 O.3       1 ATP        -0.3865
     17 C3'         1.9685    0.6634    0.6767 C.3       1 ATP         0.0901
     18 O3'         2.1425    0.1975    1.9977 O.3       1 ATP        -0.5889
     19 C2'         0.5176    0.9128    0.3099 C.3       1 ATP         0.0574
     20 O2'        -0.2103    1.4454    1.4152 O.3       1 ATP        -0.5923
     21 C1'         0.6219    1.9765   -0.7844 C.3       1 ATP         0.2452
     22 N9          0.4237    1.4496   -2.1357 N.pl3     1 ATP        -0.1834
     23 C8          1.4069    0.9710   -2.9662 C.ar      1 ATP         0.4338
     24 N7          0.9316    0.5623   -4.1260 N.2       1 ATP        -0.6101
     25 C5         -0.4120    0.7884   -4.0344 C.ar      1 ATP         0.2154
     26 C6         -1.4353    0.5283   -5.0204 C.ar      1 ATP         0.6130
     27 N6         -1.1199    0.0176   -6.1586 N.2       1 ATP        -0.8165
     28 N1         -2.6704    0.9095   -4.5147 N.pl3     1 ATP        -0.8617
     29 C2         -2.8863    1.4571   -3.2520 C.ar      1 ATP         0.6151
     30 N3         -1.9805    1.7017   -2.3442 N.2       1 ATP        -0.5797
     31 C4         -0.7561    1.3381   -2.8112 C.ar      1 ATP         0.0328
     32 HOG3        9.1215    7.1628   -0.3580 H         1 ATP         0.4197
     33 HOA2        7.6079    0.2509   -0.1750 H         1 ATP         0.4550
     34 H5'1        4.4838    2.9857    0.0375 H         1 ATP         0.0431
     35 H5'2        4.3186    1.3449   -0.6398 H         1 ATP         0.0431
     36 H4'         2.3752    2.7029    1.3156 H         1 ATP         0.1325
     37 H3'         2.4336   -0.1217   -0.0016 H         1 ATP         0.0782
     38 HO3'        1.7160   -0.6716    2.0397 H         1 ATP         0.4062
     39 H2'         0.0316    0.0155   -0.0339 H         1 ATP         0.0689
     40 HO2'       -0.1608    0.7921    2.1351 H         1 ATP         0.4089
     41 H1'        -0.1474    2.7798   -0.6651 H         1 ATP         0.1098
     42 H8          2.4466    0.9468   -2.6694 H         1 ATP         0.0929
     43 HN62       -1.9661   -0.0965   -6.7275 H         1 ATP         0.3678
     44 H2         -3.9481    1.6825   -3.0660 H         1 ATP         0.0383
     45 H45        -3.4814    0.7753   -5.1133 H         1 ATP         0.4286
@<TRIPOS>BOND
     1    1    2 2
     2    1    3 1
     3    1    4 1
     4    1    8 1
     5    4   32 1
     6    5    6 2
     7    5    7 1
     8    5    8 1
     9    5   12 1
    10    9   10 2
    11    9   11 1
    12    9   12 1
    13    9   13 1
    14   11   33 1
    15   13   14 1
    16   14   15 1
    17   14   34 1
    18   14   35 1
    19   15   16 1
    20   15   17 1
    21   15   36 1
    22   16   21 1
    23   17   18 1
    24   17   19 1
    25   17   37 1
    26   18   38 1
    27   19   20 1
    28   19   21 1
    29   19   39 1
    30   20   40 1
    31   21   22 1
    32   21   41 1
    33   22   23 ar
    34   22   31 ar
    35   23   24 ar
    36   23   42 1
    37   24   25 ar
    38   25   26 ar
    39   25   31 ar
    40   26   27 2
    41   26   28 ar
    42   27   43 1
    43   28   29 ar
    44   28   45 1
    45   29   30 ar
    46   29   44 1
    47   30   31 ar
@<TRIPOS>SUBSTRUCTURE
     1 ATP         1 GROUP 0 A     ****
@<TRIPOS>MOLECULE
[[[3,4-dihydroxy-5-(6-imino-1~{H}-purin-9-yl)tetrahydrofuran-2-yl]methoxy-hydroxy-phosphoryl]oxy-oxido-phosphoryl] hydrogen phosphate
   45    47     1     0     0
SMALL
USER_CHARGES

@<TRIPOS>ATOM
      1 PG          9.8073   -1.8998   -1.3609 P.3       1 ATP         1.5414
      2 O1G        10.1744   -2.8133   -0.2127 O.co2     1 ATP        -0.8562
      3 O2G        10.8235   -0.9495   -1.9539 O.co2     1 ATP        -0.8562
      4 O3G         9.1803   -2.8070   -2.5651 O.3       1 ATP        -0.7907
      5 PB          8.2369    0.0825    0.1774 P.3       1 ATP         1.6574
      6 O1B         8.3822   -0.5570    1.5403 O.co2     1 ATP        -0.8530
      7 O2B         9.0378    1.3095   -0.1979 O.co2     1 ATP        -0.8530
      8 O3B         8.4665   -1.0619   -0.9624 O.3       1 ATP        -0.8003
      9 PA          5.8742    0.9198   -1.3967 P.3       1 ATP         1.7415
     10 O1A         6.0134    0.0298   -2.5976 O.2       1 ATP        -0.8661
     11 O2A         6.4679    2.4111   -1.6008 O.3       1 ATP        -0.8077
     12 O3A         6.6551    0.3880   -0.0837 O.3       1 ATP        -0.7685
     13 O5'         4.3520    1.1579   -0.9021 O.3       1 ATP        -0.5590
     14 C5'         4.0922    1.9801    0.2227 C.3       1 ATP         0.1960
     15 C4'         2.5944    2.0310    0.4653 C.3       1 ATP         0.0976
     16 O4'         1.9327    2.5740   -0.6889 O.3       1 ATP        -0.3865
     17 C3'         1.9685    0.6634    0.6767 C.3       1 ATP         0.0901
     18 O3'         2.1425    0.1975    1.9977 O.3       1 ATP        -0.5889
     19 C2'         0.5176    0.9128    0.3099 C.3       1 ATP         0.0574
     20 O2'        -0.2103    1.4454    1.4152 O.3       1 ATP        -0.5923
     21 C1'         0.6219    1.9765   -0.7844 C.3       1 ATP         0.2452
     22 N9          0.4237    1.4496   -2.1357 N.pl3     1 ATP        -0.1834
     23 C8          1.4069    0.9710   -2.9662 C.ar      1 ATP         0.4338
     24 N7          0.9316    0.5623   -4.1260 N.2       1 ATP        -0.6101
     25 C5         -0.4120    0.7884   -4.0344 C.ar      1 ATP         0.2154
     26 C6         -1.4353    0.5283   -5.0204 C.ar      1 ATP         0.6130
     27 N6         -1.1199    0.0176   -6.1586 N.2       1 ATP        -0.8165
     28 N1         -2.6704    0.9095   -4.5147 N.pl3     1 ATP        -0.8617
     29 C2         -2.8863    1.4571   -3.2520 C.ar      1 ATP         0.6151
     30 N3         -1.9805    1.7017   -2.3442 N.2       1 ATP        -0.5797
     31 C4         -0.7561    1.3381   -2.8112 C.ar      1 ATP         0.0328
     32 HOG3        8.8912   -2.3561   -3.3870 H         1 ATP         0.4197
     33 HOA2        6.0941    2.9774   -2.3091 H         1 ATP         0.4550
     34 H5'1        4.6066    1.5622    1.0942 H         1 ATP         0.0431
     35 H5'2        4.4821    2.9841    0.0260 H         1 ATP         0.0431
     36 H4'         2.3752    2.7029    1.3156 H         1 ATP         0.1325
     37 H3'         2.4336   -0.1217   -0.0016 H         1 ATP         0.0782
     38 HO3'        1.7160   -0.6716    2.0397 H         1 ATP         0.4062
     39 H2'         0.0316    0.0155   -0.0339 H         1 ATP         0.0689
     40 HO2'       -1.1270    1.5823    1.1180 H         1 ATP         0.4089
     41 H1'        -0.1474    2.7798   -0.6651 H         1 ATP         0.1098
     42 H8          2.4466    0.9468   -2.6694 H         1 ATP         0.0929
     43 HN62       -1.9661   -0.0965   -6.7275 H         1 ATP         0.3678
     44 H2         -3.9481    1.6825   -3.0660 H         1 ATP         0.0383
     45 H45        -3.4814    0.7753   -5.1133 H         1 ATP         0.4286
@<TRIPOS>BOND
     1    1    2 2
     2    1    3 1
     3    1    4 1
     4    1    8 1
     5    4   32 1
     6    5    6 2
     7    5    7 1
     8    5    8 1
     9    5   12 1
    10    9   10 2
    11    9   11 1
    12    9   12 1
    13    9   13 1
    14   11   33 1
    15   13   14 1
    16   14   15 1
    17   14   34 1
    18   14   35 1
    19   15   16 1
    20   15   17 1
    21   15   36 1
    22   16   21 1
    23   17   18 1
    24   17   19 1
    25   17   37 1
    26   18   38 1
    27   19   20 1
    28   19   21 1
    29   19   39 1
    30   20   40 1
    31   21   22 1
    32   21   41 1
    33   22   23 ar
    34   22   31 ar
    35   23   24 ar
    36   23   42 1
    37   24   25 ar
    38   25   26 ar
    39   25   31 ar
    40   26   27 2
    41   26   28 ar
    42   27   43 1
    43   28   29 ar
    44   28   45 1
    45   29   30 ar
    46   29   44 1
    47   30   31 ar
@<TRIPOS>SUBSTRUCTURE
     1 ATP         1 GROUP 0 A     ****
@<TRIPOS>MOLECULE
[[[3,4-dihydroxy-5-(6-imino-1~{H}-purin-9-yl)tetrahydrofuran-2-yl]methoxy-hydroxy-phosphoryl]oxy-oxido-phosphoryl] hydrogen phosphate
   45    47     1     0     0
SMALL
USER_CHARGES

@<TRIPOS>ATOM
      1 PG         10.6368    3.0555    2.7200 P.3       1 ATP         1.5414
      2 O1G        10.9226    4.5336    2.8656 O.co2     1 ATP        -0.8562
      3 O2G        11.5567    2.1608    1.9196 O.co2     1 ATP        -0.8562
      4 O3G        10.4553    2.4133    4.2103 O.3       1 ATP        -0.7907
      5 PB          8.4373    3.2548    0.7491 P.3       1 ATP         1.6574
      6 O1B         8.4141    4.7619    0.6225 O.co2     1 ATP        -0.8530
      7 O2B         9.0533    2.3909   -0.3288 O.co2     1 ATP        -0.8530
      8 O3B         9.1093    2.8625    2.1830 O.3       1 ATP        -0.8003
      9 PA          6.3383    1.2702    1.3945 P.3       1 ATP         1.7415
     10 O1A         6.8885    0.6904    2.6653 O.2       1 ATP        -0.8661
     11 O2A         6.6702    0.4038    0.0690 O.3       1 ATP        -0.8077
     12 O3A         6.9154    2.7370    1.0311 O.3       1 ATP        -0.7685
     13 O5'         4.7296    1.4429    1.3689 O.3       1 ATP        -0.5590
     14 C5'         4.0922    1.9801    0.2227 C.3       1 ATP         0.1960
     15 C4'         2.5944    2.0310    0.4653 C.3       1 ATP         0.0976
     16 O4'         1.9327    2.5740   -0.6889 O.3       1 ATP        -0.3865
     17 C3'         1.9685    0.6634    0.6767 C.3       1 ATP         0.0901
     18 O3'         2.1425    0.1975    1.9977 O.3       1 ATP        -0.5889
     19 C2'         0.5176    0.9128    0.3099 C.3       1 ATP         0.0574
     20 O2'        -0.2103    1.4454    1.4152 O.3       1 ATP        -0.5923
     21 C1'         0.6219    1.9765   -0.7844 C.3       1 ATP         0.2452
     22 N9          0.4237    1.4496   -2.1357 N.pl3     1 ATP        -0.1834
     23 C8          1.4069    0.9710   -2.9662 C.ar      1 ATP         0.4338
     24 N7          0.9316    0.5623   -4.1260 N.2       1 ATP        -0.6101
     25 C5         -0.4120    0.7884   -4.0344 C.ar      1 ATP         0.2154
     26 C6         -1.4353    0.5283   -5.0204 C.ar      1 ATP         0.6130
     27 N6         -1.1199    0.0176   -6.1586 N.2       1 ATP        -0.8165
     28 N1         -2.6704    0.9095   -4.5147 N.pl3     1 ATP        -0.8617
     29 C2         -2.8863    1.4571   -3.2520 C.ar      1 ATP         0.6151
     30 N3         -1.9805    1.7017   -2.3442 N.2       1 ATP        -0.5797
     31 C4         -0.7561    1.3381   -2.8112 C.ar      1 ATP         0.0328
     32 HOG3       10.2636    1.4541    4.2849 H         1 ATP         0.4197
     33 HOA2        6.3519   -0.5225    0.0159 H         1 ATP         0.4550
     34 H5'1        4.4838    2.9857    0.0375 H         1 ATP         0.0431
     35 H5'2        4.3186    1.3449   -0.6398 H         1 ATP         0.0431
     36 H4'         2.3752    2.7029    1.3156 H         1 ATP         0.1325
     37 H3'         2.4336   -0.1217   -0.0016 H         1 ATP         0.0782
     38 HO3'        3.0987    0.1465    2.1461 H         1 ATP         0.4062
     39 H2'         0.0316    0.0155   -0.0339 H         1 ATP         0.0689
     40 HO2'       -1.1270    1.5823    1.1180 H         1 ATP         0.4089
     41 H1'        -0.1474    2.7798   -0.6651 H         1 ATP         0.1098
     42 H8          2.4466    0.9468   -2.6694 H         1 ATP         0.0929
     43 HN62       -1.9661   -0.0965   -6.7275 H         1 ATP         0.3678
     44 H2         -3.9481    1.6825   -3.0660 H         1 ATP         0.0383
     45 H45        -3.4814    0.7753   -5.1133 H         1 ATP         0.4286
@<TRIPOS>BOND
     1    1    2 2
     2    1    3 1
     3    1    4 1
     4    1    8 1
     5    4   32 1
     6    5    6 2
     7    5    7 1
     8    5    8 1
     9    5   12 1
    10    9   10 2
    11    9   11 1
    12    9   12 1
    13    9   13 1
    14   11   33 1
    15   13   14 1
    16   14   15 1
    17   14   34 1
    18   14   35 1
    19   15   16 1
    20   15   17 1
    21   15   36 1
    22   16   21 1
    23   17   18 1
    24   17   19 1
    25   17   37 1
    26   18   38 1
    27   19   20 1
    28   19   21 1
    29   19   39 1
    30   20   40 1
    31   21   22 1
    32   21   41 1
    33   22   23 ar
    34   22   31 ar
    35   23   24 ar
    36   23   42 1
    37   24   25 ar
    38   25   26 ar
    39   25   31 ar
    40   26   27 2
    41   26   28 ar
    42   27   43 1
    43   28   29 ar
    44   28   45 1
    45   29   30 ar
    46   29   44 1
    47   30   31 ar
@<TRIPOS>SUBSTRUCTURE
     1 ATP         1 GROUP 0 A     ****
@<TRIPOS>MOLECULE
[[[3,4-dihydroxy-5-(6-imino-1~{H}-purin-9-yl)tetrahydrofuran-2-yl]methoxy-hydroxy-phosphoryl]oxy-oxido-phosphoryl] hydrogen phosphate
   45    47     1     0     0
SMALL
USER_CHARGES

@<TRIPOS>ATOM
      1 PG          4.5661   -2.8191    1.3837 P.3       1 ATP         1.5414
      2 O1G         4.9425   -2.9519    2.8425 O.co2     1 ATP        -0.8562
      3 O2G         4.7856   -3.9613    0.4170 O.co2     1 ATP        -0.8562
      4 O3G         3.0036   -2.3540    1.2916 O.3       1 ATP        -0.7907
      5 PB          6.8302   -1.1144    0.5291 P.3       1 ATP         1.6574
      6 O1B         7.5207   -1.0067    1.8705 O.co2     1 ATP        -0.8530
      7 O2B         7.3684   -2.0222   -0.5545 O.co2     1 ATP        -0.8530
      8 O3B         5.2582   -1.4720    0.7794 O.3       1 ATP        -0.8003
      9 PA          5.8742    0.9198   -1.3967 P.3       1 ATP         1.7415
     10 O1A         6.0134    0.0298   -2.5976 O.2       1 ATP        -0.8661
     11 O2A         6.4679    2.4111   -1.6008 O.3       1 ATP        -0.8077
     12 O3A         6.6551    0.3880   -0.0837 O.3       1 ATP        -0.7685
     13 O5'         4.3520    1.1579   -0.9021 O.3       1 ATP        -0.5590
     14 C5'         4.0922    1.9801    0.2227 C.3       1 ATP         0.1960
     15 C4'         2.5944    2.0310    0.4653 C.3       1 ATP         0.0976
     16 O4'         1.9327    2.5740   -0.6889 O.3       1 ATP        -0.3865
     17 C3'         1.9685    0.6634    0.6767 C.3       1 ATP         0.0901
     18 O3'         2.1425    0.1975    1.9977 O.3       1 ATP        -0.5889
     19 C2'         0.5176    0.9128    0.3099 C.3       1 ATP         0.0574
     20 O2'        -0.2103    1.4454    1.4152 O.3       1 ATP        -0.5923
     21 C1'         0.6219    1.9765   -0.7844 C.3       1 ATP         0.2452
     22 N9          0.4237    1.4496   -2.1357 N.pl3     1 ATP        -0.1834
     23 C8          1.4069    0.9710   -2.9662 C.ar      1 ATP         0.4338
     24 N7          0.9316    0.5623   -4.1260 N.2       1 ATP        -0.6101
     25 C5         -0.4120    0.7884   -4.0344 C.ar      1 ATP         0.2154
     26 C6         -1.4353    0.5283   -5.0204 C.ar      1 ATP         0.6130
     27 N6         -1.1199    0.0176   -6.1586 N.2       1 ATP        -0.8165
     28 N1         -2.6704    0.9095   -4.5147 N.pl3     1 ATP        -0.8617
     29 C2         -2.8863    1.4571   -3.2520 C.ar      1 ATP         0.6151
     30 N3         -1.9805    1.7017   -2.3442 N.2       1 ATP        -0.5797
     31 C4         -0.7561    1.3381   -2.8112 C.ar      1 ATP         0.0328
     32 HOG3        2.6071   -2.2234    0.4039 H         1 ATP         0.4197
     33 HOA2        6.0941    2.9774   -2.3091 H         1 ATP         0.4550
     34 H5'1        4.6066    1.5622    1.0942 H         1 ATP         0.0431
     35 H5'2        4.4821    2.9841    0.0260 H         1 ATP         0.0431
     36 H4'         2.3752    2.7029    1.3156 H         1 ATP         0.1325
     37 H3'         2.4336   -0.1217   -0.0016 H         1 ATP         0.0782
     38 HO3'        3.0987    0.1465    2.1461 H         1 ATP         0.4062
     39 H2'         0.0316    0.0155   -0.0339 H         1 ATP         0.0689
     40 HO2'       -0.1608    0.7921    2.1351 H         1 ATP         0.4089
     41 H1'        -0.1474    2.7798   -0.6651 H         1 ATP         0.1098
     42 H8          2.4466    0.9468   -2.6694 H         1 ATP         0.0929
     43 HN62       -1.9661   -0.0965   -6.7275 H         1 ATP         0.3678
     44 H2         -3.9481    1.6825   -3.0660 H         1 ATP         0.0383
     45 H45        -3.4814    0.7753   -5.1133 H         1 ATP         0.4286
@<TRIPOS>BOND
     1    1    2 2
     2    1    3 1
     3    1    4 1
     4    1    8 1
     5    4   32 1
     6    5    6 2
     7    5    7 1
     8    5    8 1
     9    5   12 1
    10    9   10 2
    11    9   11 1
    12    9   12 1
    13    9   13 1
    14   11   33 1
    15   13   14 1
    16   14   15 1
    17   14   34 1
    18   14   35 1
    19   15   16 1
    20   15   17 1
    21   15   36 1
    22   16   21 1
    23   17   18 1
    24   17   19 1
    25   17   37 1
    26   18   38 1
    27   19   20 1
    28   19   21 1
    29   19   39 1
    30   20   40 1
    31   21   22 1
    32   21   41 1
    33   22   23 ar
    34   22   31 ar
    35   23   24 ar
    36   23   42 1
    37   24   25 ar
    38   25   26 ar
    39   25   31 ar
    40   26   27 2
    41   26   28 ar
    42   27   43 1
    43   28   29 ar
    44   28   45 1
    45   29   30 ar
    46   29   44 1
    47   30   31 ar
@<TRIPOS>SUBSTRUCTURE
     1 ATP         1 GROUP 0 A     ****
@<TRIPOS>MOLECULE
[[[3,4-dihydroxy-5-(6-imino-1~{H}-purin-9-yl)tetrahydrofuran-2-yl]methoxy-hydroxy-phosphoryl]oxy-oxido-phosphoryl] hydrogen phosphate
   45    47     1     0     0
SMALL
USER_CHARGES

@<TRIPOS>ATOM
      1 PG         10.3702    2.1199   -0.0677 P.3       1 ATP         1.5414
      2 O1G        11.1599    1.4643   -1.1786 O.co2     1 ATP        -0.8562
      3 O2G        10.8620    2.0833    1.3621 O.co2     1 ATP        -0.8562
      4 O3G        10.0880    3.6745   -0.4799 O.3       1 ATP        -0.7907
      5 PB          8.2369    0.0825    0.1774 P.3       1 ATP         1.6574
      6 O1B         8.7276   -0.8560   -0.9025 O.co2     1 ATP        -0.8530
      7 O2B         8.4347   -0.2417    1.6415 O.co2     1 ATP        -0.8530
      8 O3B         8.8353    1.5719   -0.1151 O.3       1 ATP        -0.8003
      9 PA          5.8742    0.9198   -1.3967 P.3       1 ATP         1.7415
     10 O1A         6.0134    0.0298   -2.5976 O.2       1 ATP        -0.8661
     11 O2A         6.4679    2.4111   -1.6008 O.3       1 ATP        -0.8077
     12 O3A         6.6551    0.3880   -0.0837 O.3       1 ATP        -0.7685
     13 O5'         4.3520    1.1579   -0.9021 O.3       1 ATP        -0.5590
     14 C5'         4.0922    1.9801    0.2227 C.3       1 ATP         0.1960
     15 C4'         2.5944    2.0310    0.4653 C.3       1 ATP         0.0976
     16 O4'         1.9327    2.5740   -0.6889 O.3       1 ATP        -0.3865
     17 C3'         1.9685    0.6634    0.6767 C.3       1 ATP         0.0901
     18 O3'         2.1425    0.1975    1.9977 O.3       1 ATP        -0.5889
     19 C2'         0.5176    0.9128    0.3099 C.3       1 ATP         0.0574
     20 O2'        -0.2103    1.4454    1.4152 O.3       1 ATP        -0.5923
     21 C1'         0.6219    1.9765   -0.7844 C.3       1 ATP         0.2452
     22 N9          0.4237    1.4496   -2.1357 N.pl3     1 ATP        -0.1834
     23 C8          1.4069    0.9710   -2.9662 C.ar      1 ATP         0.4338
     24 N7          0.9316    0.5623   -4.1260 N.2       1 ATP        -0.6101
     25 C5         -0.4120    0.7884   -4.0344 C.ar      1 ATP         0.2154
     26 C6         -1.4353    0.5283   -5.0204 C.ar      1 ATP         0.6130
     27 N6         -1.1199    0.0176   -6.1586 N.2       1 ATP        -0.8165
     28 N1         -2.6704    0.9095   -4.5147 N.pl3     1 ATP        -0.8617
     29 C2         -2.8863    1.4571   -3.2520 C.ar      1 ATP         0.6151
     30 N3         -1.9805    1.7017   -2.3442 N.2       1 ATP        -0.5797
     31 C4         -0.7561    1.3381   -2.8112 C.ar      1 ATP         0.0328
     32 HOG3        9.5822    4.2382    0.1436 H         1 ATP         0.4197
     33 HOA2        7.4193    2.5175   -1.8146 H         1 ATP         0.4550
     34 H5'1        4.6066    1.5622    1.0942 H         1 ATP         0.0431
     35 H5'2        4.4821    2.9841    0.0260 H         1 ATP         0.0431
     36 H4'         2.3752    2.7029    1.3156 H         1 ATP         0.1325
     37 H3'         2.4336   -0.1217   -0.0016 H         1 ATP         0.0782
     38 HO3'        3.0987    0.1465    2.1461 H         1 ATP         0.4062
     39 H2'         0.0316    0.0155   -0.0339 H         1 ATP         0.0689
     40 HO2'       -0.1608    0.7921    2.1351 H         1 ATP         0.4089
     41 H1'        -0.1474    2.7798   -0.6651 H         1 ATP         0.1098
     42 H8          2.4466    0.9468   -2.6694 H         1 ATP         0.0929
     43 HN62       -1.9661   -0.0965   -6.7275 H         1 ATP         0.3678
     44 H2         -3.9481    1.6825   -3.0660 H         1 ATP         0.0383
     45 H45        -3.4814    0.7753   -5.1133 H         1 ATP         0.4286
@<TRIPOS>BOND
     1    1    2 2
     2    1    3 1
     3    1    4 1
     4    1    8 1
     5    4   32 1
     6    5    6 2
     7    5    7 1
     8    5    8 1
     9    5   12 1
    10    9   10 2
    11    9   11 1
    12    9   12 1
    13    9   13 1
    14   11   33 1
    15   13   14 1
    16   14   15 1
    17   14   34 1
    18   14   35 1
    19   15   16 1
    20   15   17 1
    21   15   36 1
    22   16   21 1
    23   17   18 1
    24   17   19 1
    25   17   37 1
    26   18   38 1
    27   19   20 1
    28   19   21 1
    29   19   39 1
    30   20   40 1
    31   21   22 1
    32   21   41 1
    33   22   23 ar
    34   22   31 ar
    35   23   24 ar
    36   23   42 1
    37   24   25 ar
    38   25   26 ar
    39   25   31 ar
    40   26   27 2
    41   26   28 ar
    42   27   43 1
    43   28   29 ar
    44   28   45 1
    45   29   30 ar
    46   29   44 1
    47   30   31 ar
@<TRIPOS>SUBSTRUCTURE
     1 ATP         1 GROUP 0 A     ****
@<TRIPOS>MOLECULE
[[[3,4-dihydroxy-5-(6-imino-1~{H}-purin-9-yl)tetrahydrofuran-2-yl]methoxy-hydroxy-phosphoryl]oxy-oxido-phosphoryl] hydrogen phosphate
   45    47     1     0     0
SMALL
USER_CHARGES

@<TRIPOS>ATOM
      1 PG         -5.7086    3.0033   -2.6680 P.3       1 ATP         1.5414
      2 O1G        -7.0465    3.6528   -2.3926 O.co2     1 ATP        -0.8562
      3 O2G        -5.6241    1.5785   -3.1683 O.co2     1 ATP        -0.8562
      4 O3G        -4.8669    3.9621   -3.6871 O.3       1 ATP        -0.7907
      5 PB         -4.3552    4.4878   -0.4938 P.3       1 ATP         1.6574
      6 O1B        -3.4889    5.3735   -1.3615 O.co2     1 ATP        -0.8530
      7 O2B        -5.5948    5.0303    0.1821 O.co2     1 ATP        -0.8530
      8 O3B        -4.7633    3.1594   -1.3486 O.3       1 ATP        -0.8003
      9 PA         -2.5925    4.4094    1.8827 P.3       1 ATP         1.7415
     10 O1A        -3.4550    5.1144    2.8891 O.2       1 ATP        -0.8661
     11 O2A        -1.4926    5.3570    1.1685 O.3       1 ATP        -0.8077
     12 O3A        -3.4080    3.7839    0.6336 O.3       1 ATP        -0.7685
     13 O5'        -1.7334    3.1724    2.4743 O.3       1 ATP        -0.5590
     14 C5'        -0.8811    2.4285    1.6206 C.3       1 ATP         0.1960
     15 C4'        -0.1994    1.3333    2.4288 C.3       1 ATP         0.0976
     16 O4'        -1.1285    0.2356    2.5840 O.3       1 ATP        -0.3865
     17 C3'         1.0324    0.7610    1.7344 C.3       1 ATP         0.0901
     18 O3'         1.9175    0.2377    2.7247 O.3       1 ATP        -0.5889
     19 C2'         0.4468   -0.3802    0.9263 C.3       1 ATP         0.0574
     20 O2'         1.3993   -1.3703    0.5961 O.3       1 ATP        -0.5923
     21 C1'        -0.6159   -0.9100    1.8769 C.3       1 ATP         0.2452
     22 N9         -1.7127   -1.6108    1.2130 N.pl3     1 ATP        -0.1834
     23 C8         -1.7690   -2.9583    0.9549 C.ar      1 ATP         0.4338
     24 N7         -2.8827   -3.3076    0.3418 N.2       1 ATP        -0.6101
     25 C5         -3.5683   -2.1351    0.2017 C.ar      1 ATP         0.2154
     26 C6         -4.8617   -1.9185   -0.4044 C.ar      1 ATP         0.6130
     27 N6         -5.5166   -2.9094   -0.8993 N.2       1 ATP        -0.8165
     28 N1         -5.1837   -0.5701   -0.3344 N.pl3     1 ATP        -0.8617
     29 C2         -4.3821    0.4180    0.2330 C.ar      1 ATP         0.6151
     30 N3         -3.2117    0.2488    0.7860 N.2       1 ATP        -0.5797
     31 C4         -2.8672   -1.0657    0.7327 C.ar      1 ATP         0.0328
     32 HOG3       -4.6589    4.8774   -3.4020 H         1 ATP         0.4197
     33 HOA2       -1.7986    6.1343    0.6543 H         1 ATP         0.4550
     34 H5'1       -1.4795    1.9922    0.8142 H         1 ATP         0.0431
     35 H5'2       -0.1362    3.1035    1.1868 H         1 ATP         0.0431
     36 H4'         0.0402    1.7079    3.4342 H         1 ATP         0.1325
     37 H3'         1.5907    1.4859    1.1353 H         1 ATP         0.0782
     38 HO3'        2.6839   -0.1150    2.2479 H         1 ATP         0.4062
     39 H2'        -0.0017    0.0018    0.0005 H         1 ATP         0.0689
     40 HO2'        2.0953   -0.9375    0.0709 H         1 ATP         0.4089
     41 H1'        -0.1998   -1.6319    2.6178 H         1 ATP         0.1098
     42 H8         -0.9697   -3.6300    1.2371 H         1 ATP         0.0929
     43 HN62       -6.4060   -2.5723   -1.2840 H         1 ATP         0.3678
     44 H2         -4.8409    1.4176    0.1757 H         1 ATP         0.0383
     45 H45        -6.0768   -0.2826   -0.7263 H         1 ATP         0.4286
@<TRIPOS>BOND
     1    1    2 2
     2    1    3 1
     3    1    4 1
     4    1    8 1
     5    4   32 1
     6    5    6 2
     7    5    7 1
     8    5    8 1
     9    5   12 1
    10    9   10 2
    11    9   11 1
    12    9   12 1
    13    9   13 1
    14   11   33 1
    15   13   14 1
    16   14   15 1
    17   14   34 1
    18   14   35 1
    19   15   16 1
    20   15   17 1
    21   15   36 1
    22   16   21 1
    23   17   18 1
    24   17   19 1
    25   17   37 1
    26   18   38 1
    27   19   20 1
    28   19   21 1
    29   19   39 1
    30   20   40 1
    31   21   22 1
    32   21   41 1
    33   22   23 ar
    34   22   31 ar
    35   23   24 ar
    36   23   42 1
    37   24   25 ar
    38   25   26 ar
    39   25   31 ar
    40   26   27 2
    41   26   28 ar
    42   27   43 1
    43   28   29 ar
    44   28   45 1
    45   29   30 ar
    46   29   44 1
    47   30   31 ar
@<TRIPOS>SUBSTRUCTURE
     1 ATP         1 GROUP 0 A     ****
@<TRIPOS>MOLECULE
[[[3,4-dihydroxy-5-(6-imino-1~{H}-purin-9-yl)tetrahydrofuran-2-yl]methoxy-hydroxy-phosphoryl]oxy-oxido-phosphoryl] hydrogen phosphate
   45    47     1     0     0
SMALL
USER_CHARGES

@<TRIPOS>ATOM
      1 PG          8.2049    3.2790   -2.1961 P.3       1 ATP         1.5414
      2 O1G         6.7140    3.4536   -2.0116 O.co2     1 ATP        -0.8562
      3 O2G         8.7538    2.3626   -3.2668 O.co2     1 ATP        -0.8562
      4 O3G         8.8810    4.7540   -2.3788 O.3       1 ATP        -0.7907
      5 PB          8.7059    1.5312    0.1397 P.3       1 ATP         1.6574
      6 O1B         9.0075    0.3292   -0.7275 O.co2     1 ATP        -0.8530
      7 O2B         9.4158    1.7389    1.4591 O.co2     1 ATP        -0.8530
      8 O3B         8.8722    2.8800   -0.7629 O.3       1 ATP        -0.8003
      9 PA          6.1066    0.6075    1.2128 P.3       1 ATP         1.7415
     10 O1A         6.6795    0.0927    2.5014 O.2       1 ATP        -0.8661
     11 O2A         5.7566   -0.5449    0.1323 O.3       1 ATP        -0.8077
     12 O3A         7.0951    1.5926    0.3949 O.3       1 ATP        -0.7685
     13 O5'         4.7296    1.4429    1.3689 O.3       1 ATP        -0.5590
     14 C5'         4.0922    1.9801    0.2227 C.3       1 ATP         0.1960
     15 C4'         2.5944    2.0310    0.4653 C.3       1 ATP         0.0976
     16 O4'         1.9327    2.5740   -0.6889 O.3       1 ATP        -0.3865
     17 C3'         1.9685    0.6634    0.6767 C.3       1 ATP         0.0901
     18 O3'         2.1425    0.1975    1.9977 O.3       1 ATP        -0.5889
     19 C2'         0.5176    0.9128    0.3099 C.3       1 ATP         0.0574
     20 O2'        -0.2103    1.4454    1.4152 O.3       1 ATP        -0.5923
     21 C1'         0.6219    1.9765   -0.7844 C.3       1 ATP         0.2452
     22 N9          0.4237    1.4496   -2.1357 N.pl3     1 ATP        -0.1834
     23 C8          1.4069    0.9710   -2.9662 C.ar      1 ATP         0.4338
     24 N7          0.9316    0.5623   -4.1260 N.2       1 ATP        -0.6101
     25 C5         -0.4120    0.7884   -4.0344 C.ar      1 ATP         0.2154
     26 C6         -1.4353    0.5283   -5.0204 C.ar      1 ATP         0.6130
     27 N6         -1.1199    0.0176   -6.1586 N.2       1 ATP        -0.8165
     28 N1         -2.6704    0.9095   -4.5147 N.pl3     1 ATP        -0.8617
     29 C2         -2.8863    1.4571   -3.2520 C.ar      1 ATP         0.6151
     30 N3         -1.9805    1.7017   -2.3442 N.2       1 ATP        -0.5797
     31 C4         -0.7561    1.3381   -2.8112 C.ar      1 ATP         0.0328
     32 HOG3        9.8516    4.8096   -2.5097 H         1 ATP         0.4197
     33 HOA2        5.1063   -1.2387    0.3729 H         1 ATP         0.4550
     34 H5'1        4.4838    2.9857    0.0375 H         1 ATP         0.0431
     35 H5'2        4.3186    1.3449   -0.6398 H         1 ATP         0.0431
     36 H4'         2.3752    2.7029    1.3156 H         1 ATP         0.1325
     37 H3'         2.4336   -0.1217   -0.0016 H         1 ATP         0.0782
     38 HO3'        3.0987    0.1465    2.1461 H         1 ATP         0.4062
     39 H2'         0.0316    0.0155   -0.0339 H         1 ATP         0.0689
     40 HO2'       -0.1608    0.7921    2.1351 H         1 ATP         0.4089
     41 H1'        -0.1474    2.7798   -0.6651 H         1 ATP         0.1098
     42 H8          2.4466    0.9468   -2.6694 H         1 ATP         0.0929
     43 HN62       -1.9661   -0.0965   -6.7275 H         1 ATP         0.3678
     44 H2         -3.9481    1.6825   -3.0660 H         1 ATP         0.0383
     45 H45        -3.4814    0.7753   -5.1133 H         1 ATP         0.4286
@<TRIPOS>BOND
     1    1    2 2
     2    1    3 1
     3    1    4 1
     4    1    8 1
     5    4   32 1
     6    5    6 2
     7    5    7 1
     8    5    8 1
     9    5   12 1
    10    9   10 2
    11    9   11 1
    12    9   12 1
    13    9   13 1
    14   11   33 1
    15   13   14 1
    16   14   15 1
    17   14   34 1
    18   14   35 1
    19   15   16 1
    20   15   17 1
    21   15   36 1
    22   16   21 1
    23   17   18 1
    24   17   19 1
    25   17   37 1
    26   18   38 1
    27   19   20 1
    28   19   21 1
    29   19   39 1
    30   20   40 1
    31   21   22 1
    32   21   41 1
    33   22   23 ar
    34   22   31 ar
    35   23   24 ar
    36   23   42 1
    37   24   25 ar
    38   25   26 ar
    39   25   31 ar
    40   26   27 2
    41   26   28 ar
    42   27   43 1
    43   28   29 ar
    44   28   45 1
    45   29   30 ar
    46   29   44 1
    47   30   31 ar
@<TRIPOS>SUBSTRUCTURE
     1 ATP         1 GROUP 0 A     ****
@<TRIPOS>MOLECULE
[[[3,4-dihydroxy-5-(6-imino-1~{H}-purin-9-yl)tetrahydrofuran-2-yl]methoxy-hydroxy-phosphoryl]oxy-oxido-phosphoryl] hydrogen phosphate
   45    47     1     0     0
SMALL
USER_CHARGES

@<TRIPOS>ATOM
      1 PG          0.4869    8.7527    1.2208 P.3       1 ATP         1.5414
      2 O1G         0.6445    8.8358   -0.2811 O.co2     1 ATP        -0.8562
      3 O2G         1.6623    8.9971    2.1407 O.co2     1 ATP        -0.8562
      4 O3G        -0.7364    9.7370    1.6690 O.3       1 ATP        -0.7907
      5 PB         -0.7353    6.7594    3.0360 P.3       1 ATP         1.6574
      6 O1B         0.4502    6.5687    3.9558 O.co2     1 ATP        -0.8530
      7 O2B        -1.9302    7.5821    3.4640 O.co2     1 ATP        -0.8530
      8 O3B        -0.1974    7.3228    1.6025 O.3       1 ATP        -0.8003
      9 PA         -1.9403    4.0773    3.3760 P.3       1 ATP         1.7415
     10 O1A        -3.2371    4.4398    4.0398 O.2       1 ATP        -0.8661
     11 O2A        -0.7734    3.6204    4.3995 O.3       1 ATP        -0.8077
     12 O3A        -1.2556    5.2898    2.5529 O.3       1 ATP        -0.7685
     13 O5'        -2.0397    2.8622    2.3122 O.3       1 ATP        -0.5590
     14 C5'        -0.8811    2.4285    1.6206 C.3       1 ATP         0.1960
     15 C4'        -0.1994    1.3333    2.4288 C.3       1 ATP         0.0976
     16 O4'        -1.1285    0.2356    2.5840 O.3       1 ATP        -0.3865
     17 C3'         1.0324    0.7610    1.7344 C.3       1 ATP         0.0901
     18 O3'         1.9175    0.2377    2.7247 O.3       1 ATP        -0.5889
     19 C2'         0.4468   -0.3802    0.9263 C.3       1 ATP         0.0574
     20 O2'         1.3993   -1.3703    0.5961 O.3       1 ATP        -0.5923
     21 C1'        -0.6159   -0.9100    1.8769 C.3       1 ATP         0.2452
     22 N9         -1.7127   -1.6108    1.2130 N.pl3     1 ATP        -0.1834
     23 C8         -2.8662   -1.0361    0.7388 C.ar      1 ATP         0.4338
     24 N7         -3.6774   -1.9166    0.1867 N.2       1 ATP        -0.6101
     25 C5         -3.0159   -3.1045    0.3122 C.ar      1 ATP         0.2154
     26 C6         -3.4377   -4.4169   -0.1199 C.ar      1 ATP         0.6130
     27 N6         -4.5720   -4.5691   -0.7080 N.2       1 ATP        -0.8165
     28 N1         -2.4600   -5.3463    0.2071 N.pl3     1 ATP        -0.8617
     29 C2         -1.2595   -5.0554    0.8515 C.ar      1 ATP         0.6151
     30 N3         -0.8555   -3.8803    1.2516 N.2       1 ATP        -0.5797
     31 C4         -1.7946   -2.9457    0.9448 C.ar      1 ATP         0.0328
     32 HOG3       -0.9645    9.7942    2.6214 H         1 ATP         0.4197
     33 HOA2       -0.4720    4.2516    5.0872 H         1 ATP         0.4550
     34 H5'1       -1.1761    2.0499    0.6365 H         1 ATP         0.0431
     35 H5'2       -0.2073    3.2811    1.4874 H         1 ATP         0.0431
     36 H4'         0.0402    1.7079    3.4342 H         1 ATP         0.1325
     37 H3'         1.5907    1.4859    1.1353 H         1 ATP         0.0782
     38 HO3'        2.6839   -0.1150    2.2479 H         1 ATP         0.4062
     39 H2'        -0.0017    0.0018    0.0005 H         1 ATP         0.0689
     40 HO2'        2.0953   -0.9375    0.0709 H         1 ATP         0.4089
     41 H1'        -0.1998   -1.6319    2.6178 H         1 ATP         0.1098
     42 H8         -3.0558    0.0252    0.8256 H         1 ATP         0.0929
     43 HN62       -4.7047   -5.5592   -0.9421 H         1 ATP         0.3678
     44 H2         -0.6372   -5.9505    1.0077 H         1 ATP         0.0383
     45 H45        -2.6338   -6.3155   -0.0469 H         1 ATP         0.4286
@<TRIPOS>BOND
     1    1    2 2
     2    1    3 1
     3    1    4 1
     4    1    8 1
     5    4   32 1
     6    5    6 2
     7    5    7 1
     8    5    8 1
     9    5   12 1
    10    9   10 2
    11    9   11 1
    12    9   12 1
    13    9   13 1
    14   11   33 1
    15   13   14 1
    16   14   15 1
    17   14   34 1
    18   14   35 1
    19   15   16 1
    20   15   17 1
    21   15   36 1
    22   16   21 1
    23   17   18 1
    24   17   19 1
    25   17   37 1
    26   18   38 1
    27   19   20 1
    28   19   21 1
    29   19   39 1
    30   20   40 1
    31   21   22 1
    32   21   41 1
    33   22   23 ar
    34   22   31 ar
    35   23   24 ar
    36   23   42 1
    37   24   25 ar
    38   25   26 ar
    39   25   31 ar
    40   26   27 2
    41   26   28 ar
    42   27   43 1
    43   28   29 ar
    44   28   45 1
    45   29   30 ar
    46   29   44 1
    47   30   31 ar
@<TRIPOS>SUBSTRUCTURE
     1 ATP         1 GROUP 0 A     ****
@<TRIPOS>MOLECULE
[[[3,4-dihydroxy-5-(6-imino-1~{H}-purin-9-yl)tetrahydrofuran-2-yl]methoxy-hydroxy-phosphoryl]oxy-oxido-phosphoryl] hydrogen phosphate
   45    47     1     0     0
SMALL
USER_CHARGES

@<TRIPOS>ATOM
      1 PG          9.7864    4.3961   -0.9087 P.3       1 ATP         1.5414
      2 O1G        11.1363    3.9903   -0.3604 O.co2     1 ATP        -0.8562
      3 O2G         9.1933    5.7506   -0.5908 O.co2     1 ATP        -0.8562
      4 O3G         9.8071    4.2062   -2.5304 O.3       1 ATP        -0.7907
      5 PB          8.1017    2.7721    0.9041 P.3       1 ATP         1.6574
      6 O1B         9.2176    2.1367    1.7033 O.co2     1 ATP        -0.8530
      7 O2B         7.2762    3.9018    1.4786 O.co2     1 ATP        -0.8530
      8 O3B         8.6968    3.2401   -0.5410 O.3       1 ATP        -0.8003
      9 PA          6.1066    0.6075    1.2128 P.3       1 ATP         1.7415
     10 O1A         6.6795    0.0927    2.5014 O.2       1 ATP        -0.8661
     11 O2A         5.7566   -0.5449    0.1323 O.3       1 ATP        -0.8077
     12 O3A         7.0951    1.5926    0.3949 O.3       1 ATP        -0.7685
     13 O5'         4.7296    1.4429    1.3689 O.3       1 ATP        -0.5590
     14 C5'         4.0922    1.9801    0.2227 C.3       1 ATP         0.1960
     15 C4'         2.5944    2.0310    0.4653 C.3       1 ATP         0.0976
     16 O4'         1.9327    2.5740   -0.6889 O.3       1 ATP        -0.3865
     17 C3'         1.9685    0.6634    0.6767 C.3       1 ATP         0.0901
     18 O3'         2.1425    0.1975    1.9977 O.3       1 ATP        -0.5889
     19 C2'         0.5176    0.9128    0.3099 C.3       1 ATP         0.0574
     20 O2'        -0.2103    1.4454    1.4152 O.3       1 ATP        -0.5923
     21 C1'         0.6219    1.9765   -0.7844 C.3       1 ATP         0.2452
     22 N9          0.4237    1.4496   -2.1357 N.pl3     1 ATP        -0.1834
     23 C8          1.4069    0.9710   -2.9662 C.ar      1 ATP         0.4338
     24 N7          0.9316    0.5623   -4.1260 N.2       1 ATP        -0.6101
     25 C5         -0.4120    0.7884   -4.0344 C.ar      1 ATP         0.2154
     26 C6         -1.4353    0.5283   -5.0204 C.ar      1 ATP         0.6130
     27 N6         -1.1199    0.0176   -6.1586 N.2       1 ATP        -0.8165
     28 N1         -2.6704    0.9095   -4.5147 N.pl3     1 ATP        -0.8617
     29 C2         -2.8863    1.4571   -3.2520 C.ar      1 ATP         0.6151
     30 N3         -1.9805    1.7017   -2.3442 N.2       1 ATP        -0.5797
     31 C4         -0.7561    1.3381   -2.8112 C.ar      1 ATP         0.0328
     32 HOG3        8.9972    4.4296   -3.0368 H         1 ATP         0.4197
     33 HOA2        5.1063   -1.2387    0.3729 H         1 ATP         0.4550
     34 H5'1        4.4838    2.9857    0.0375 H         1 ATP         0.0431
     35 H5'2        4.3186    1.3449   -0.6398 H         1 ATP         0.0431
     36 H4'         2.3752    2.7029    1.3156 H         1 ATP         0.1325
     37 H3'         2.4336   -0.1217   -0.0016 H         1 ATP         0.0782
     38 HO3'        3.0987    0.1465    2.1461 H         1 ATP         0.4062
     39 H2'         0.0316    0.0155   -0.0339 H         1 ATP         0.0689
     40 HO2'       -0.1608    0.7921    2.1351 H         1 ATP         0.4089
     41 H1'        -0.1474    2.7798   -0.6651 H         1 ATP         0.1098
     42 H8          2.4466    0.9468   -2.6694 H         1 ATP         0.0929
     43 HN62       -1.9661   -0.0965   -6.7275 H         1 ATP         0.3678
     44 H2         -3.9481    1.6825   -3.0660 H         1 ATP         0.0383
     45 H45        -3.4814    0.7753   -5.1133 H         1 ATP         0.4286
@<TRIPOS>BOND
     1    1    2 2
     2    1    3 1
     3    1    4 1
     4    1    8 1
     5    4   32 1
     6    5    6 2
     7    5    7 1
     8    5    8 1
     9    5   12 1
    10    9   10 2
    11    9   11 1
    12    9   12 1
    13    9   13 1
    14   11   33 1
    15   13   14 1
    16   14   15 1
    17   14   34 1
    18   14   35 1
    19   15   16 1
    20   15   17 1
    21   15   36 1
    22   16   21 1
    23   17   18 1
    24   17   19 1
    25   17   37 1
    26   18   38 1
    27   19   20 1
    28   19   21 1
    29   19   39 1
    30   20   40 1
    31   21   22 1
    32   21   41 1
    33   22   23 ar
    34   22   31 ar
    35   23   24 ar
    36   23   42 1
    37   24   25 ar
    38   25   26 ar
    39   25   31 ar
    40   26   27 2
    41   26   28 ar
    42   27   43 1
    43   28   29 ar
    44   28   45 1
    45   29   30 ar
    46   29   44 1
    47   30   31 ar
@<TRIPOS>SUBSTRUCTURE
     1 ATP         1 GROUP 0 A     ****
@<TRIPOS>MOLECULE
[[[3,4-dihydroxy-5-(6-imino-1~{H}-purin-9-yl)tetrahydrofuran-2-yl]methoxy-hydroxy-phosphoryl]oxy-oxido-phosphoryl] hydrogen phosphate
   45    47     1     0     0
SMALL
USER_CHARGES

@<TRIPOS>ATOM
      1 PG          9.7783    0.9439   -0.9837 P.3       1 ATP         1.5414
      2 O1G         9.5673    1.1119    0.5045 O.co2     1 ATP        -0.8562
      3 O2G        10.7757    1.8021   -1.7294 O.co2     1 ATP        -0.8562
      4 O3G        10.1153   -0.6250   -1.2857 O.3       1 ATP        -0.7907
      5 PB          7.3072    2.2894   -1.9033 P.3       1 ATP         1.6574
      6 O1B         8.0686    3.4628   -2.4785 O.co2     1 ATP        -0.8530
      7 O2B         6.0337    1.7928   -2.5509 O.co2     1 ATP        -0.8530
      8 O3B         8.3344    1.0330   -1.7360 O.3       1 ATP        -0.8003
      9 PA          6.0786    3.6970    0.3924 P.3       1 ATP         1.7415
     10 O1A         6.4580    5.1157    0.0811 O.2       1 ATP        -0.8661
     11 O2A         6.1835    3.3084    1.9596 O.3       1 ATP        -0.8077
     12 O3A         7.0121    2.5885   -0.3262 O.3       1 ATP        -0.7685
     13 O5'         4.5673    3.2930   -0.0211 O.3       1 ATP        -0.5590
     14 C5'         4.0922    1.9801    0.2227 C.3       1 ATP         0.1960
     15 C4'         2.5944    2.0310    0.4653 C.3       1 ATP         0.0976
     16 O4'         1.9327    2.5740   -0.6889 O.3       1 ATP        -0.3865
     17 C3'         1.9685    0.6634    0.6767 C.3       1 ATP         0.0901
     18 O3'         2.1425    0.1975    1.9977 O.3       1 ATP        -0.5889
     19 C2'         0.5176    0.9128    0.3099 C.3       1 ATP         0.0574
     20 O2'        -0.2103    1.4454    1.4152 O.3       1 ATP        -0.5923
     21 C1'         0.6219    1.9765   -0.7844 C.3       1 ATP         0.2452
     22 N9          0.4237    1.4496   -2.1357 N.pl3     1 ATP        -0.1834
     23 C8          1.4069    0.9710   -2.9662 C.ar      1 ATP         0.4338
     24 N7          0.9316    0.5623   -4.1260 N.2       1 ATP        -0.6101
     25 C5         -0.4120    0.7884   -4.0344 C.ar      1 ATP         0.2154
     26 C6         -1.4353    0.5283   -5.0204 C.ar      1 ATP         0.6130
     27 N6         -1.1199    0.0176   -6.1586 N.2       1 ATP        -0.8165
     28 N1         -2.6704    0.9095   -4.5147 N.pl3     1 ATP        -0.8617
     29 C2         -2.8863    1.4571   -3.2520 C.ar      1 ATP         0.6151
     30 N3         -1.9805    1.7017   -2.3442 N.2       1 ATP        -0.5797
     31 C4         -0.7561    1.3381   -2.8112 C.ar      1 ATP         0.0328
     32 HOG3       10.2790   -0.8969   -2.2139 H         1 ATP         0.4197
     33 HOA2        5.6397    3.8038    2.6084 H         1 ATP         0.4550
     34 H5'1        4.3175    1.3541   -0.6468 H         1 ATP         0.0431
     35 H5'2        4.6079    1.5730    1.0985 H         1 ATP         0.0431
     36 H4'         2.3752    2.7029    1.3156 H         1 ATP         0.1325
     37 H3'         2.4336   -0.1217   -0.0016 H         1 ATP         0.0782
     38 HO3'        3.0987    0.1465    2.1461 H         1 ATP         0.4062
     39 H2'         0.0316    0.0155   -0.0339 H         1 ATP         0.0689
     40 HO2'       -1.1270    1.5823    1.1180 H         1 ATP         0.4089
     41 H1'        -0.1474    2.7798   -0.6651 H         1 ATP         0.1098
     42 H8          2.4466    0.9468   -2.6694 H         1 ATP         0.0929
     43 HN62       -1.9661   -0.0965   -6.7275 H         1 ATP         0.3678
     44 H2         -3.9481    1.6825   -3.0660 H         1 ATP         0.0383
     45 H45        -3.4814    0.7753   -5.1133 H         1 ATP         0.4286
@<TRIPOS>BOND
     1    1    2 2
     2    1    3 1
     3    1    4 1
     4    1    8 1
     5    4   32 1
     6    5    6 2
     7    5    7 1
     8    5    8 1
     9    5   12 1
    10    9   10 2
    11    9   11 1
    12    9   12 1
    13    9   13 1
    14   11   33 1
    15   13   14 1
    16   14   15 1
    17   14   34 1
    18   14   35 1
    19   15   16 1
    20   15   17 1
    21   15   36 1
    22   16   21 1
    23   17   18 1
    24   17   19 1
    25   17   37 1
    26   18   38 1
    27   19   20 1
    28   19   21 1
    29   19   39 1
    30   20   40 1
    31   21   22 1
    32   21   41 1
    33   22   23 ar
    34   22   31 ar
    35   23   24 ar
    36   23   42 1
    37   24   25 ar
    38   25   26 ar
    39   25   31 ar
    40   26   27 2
    41   26   28 ar
    42   27   43 1
    43   28   29 ar
    44   28   45 1
    45   29   30 ar
    46   29   44 1
    47   30   31 ar
@<TRIPOS>SUBSTRUCTURE
     1 ATP         1 GROUP 0 A     ****
@<TRIPOS>MOLECULE
[[[3,4-dihydroxy-5-(6-imino-1~{H}-purin-9-yl)tetrahydrofuran-2-yl]methoxy-hydroxy-phosphoryl]oxy-oxido-phosphoryl] hydrogen phosphate
   45    47     1     0     0
SMALL
USER_CHARGES

@<TRIPOS>ATOM
      1 PG         10.0194    1.6222    2.2862 P.3       1 ATP         1.5414
      2 O1G        10.9481    2.8147    2.3396 O.co2     1 ATP        -0.8562
      3 O2G        10.5287    0.2575    1.8789 O.co2     1 ATP        -0.8562
      4 O3G         9.2668    1.4860    3.7288 O.3       1 ATP        -0.7907
      5 PB          8.6167    2.3066   -0.2290 P.3       1 ATP         1.6574
      6 O1B         9.3480    3.5972   -0.5245 O.co2     1 ATP        -0.8530
      7 O2B         8.9348    1.0383   -0.9891 O.co2     1 ATP        -0.8530
      8 O3B         8.7249    2.0006    1.3698 O.3       1 ATP        -0.8003
      9 PA          6.0786    3.6970    0.3924 P.3       1 ATP         1.7415
     10 O1A         6.4580    5.1157    0.0811 O.2       1 ATP        -0.8661
     11 O2A         6.1835    3.3084    1.9596 O.3       1 ATP        -0.8077
     12 O3A         7.0121    2.5885   -0.3262 O.3       1 ATP        -0.7685
     13 O5'         4.5673    3.2930   -0.0211 O.3       1 ATP        -0.5590
     14 C5'         4.0922    1.9801    0.2227 C.3       1 ATP         0.1960
     15 C4'         2.5944    2.0310    0.4653 C.3       1 ATP         0.0976
     16 O4'         1.9327    2.5740   -0.6889 O.3       1 ATP        -0.3865
     17 C3'         1.9685    0.6634    0.6767 C.3       1 ATP         0.0901
     18 O3'         2.1425    0.1975    1.9977 O.3       1 ATP        -0.5889
     19 C2'         0.5176    0.9128    0.3099 C.3       1 ATP         0.0574
     20 O2'        -0.2103    1.4454    1.4152 O.3       1 ATP        -0.5923
     21 C1'         0.6219    1.9765   -0.7844 C.3       1 ATP         0.2452
     22 N9          0.4237    1.4496   -2.1357 N.pl3     1 ATP        -0.1834
     23 C8          1.4069    0.9710   -2.9662 C.ar      1 ATP         0.4338
     24 N7          0.9316    0.5623   -4.1260 N.2       1 ATP        -0.6101
     25 C5         -0.4120    0.7884   -4.0344 C.ar      1 ATP         0.2154
     26 C6         -1.4353    0.5283   -5.0204 C.ar      1 ATP         0.6130
     27 N6         -1.1199    0.0176   -6.1586 N.2       1 ATP        -0.8165
     28 N1         -2.6704    0.9095   -4.5147 N.pl3     1 ATP        -0.8617
     29 C2         -2.8863    1.4571   -3.2520 C.ar      1 ATP         0.6151
     30 N3         -1.9805    1.7017   -2.3442 N.2       1 ATP        -0.5797
     31 C4         -0.7561    1.3381   -2.8112 C.ar      1 ATP         0.0328
     32 HOG3        8.6261    0.7538    3.8537 H         1 ATP         0.4197
     33 HOA2        7.0521    3.3824    2.4093 H         1 ATP         0.4550
     34 H5'1        4.3175    1.3541   -0.6468 H         1 ATP         0.0431
     35 H5'2        4.6079    1.5730    1.0985 H         1 ATP         0.0431
     36 H4'         2.3752    2.7029    1.3156 H         1 ATP         0.1325
     37 H3'         2.4336   -0.1217   -0.0016 H         1 ATP         0.0782
     38 HO3'        3.0987    0.1465    2.1461 H         1 ATP         0.4062
     39 H2'         0.0316    0.0155   -0.0339 H         1 ATP         0.0689
     40 HO2'       -0.1608    0.7921    2.1351 H         1 ATP         0.4089
     41 H1'        -0.1474    2.7798   -0.6651 H         1 ATP         0.1098
     42 H8          2.4466    0.9468   -2.6694 H         1 ATP         0.0929
     43 HN62       -1.9661   -0.0965   -6.7275 H         1 ATP         0.3678
     44 H2         -3.9481    1.6825   -3.0660 H         1 ATP         0.0383
     45 H45        -3.4814    0.7753   -5.1133 H         1 ATP         0.4286
@<TRIPOS>BOND
     1    1    2 2
     2    1    3 1
     3    1    4 1
     4    1    8 1
     5    4   32 1
     6    5    6 2
     7    5    7 1
     8    5    8 1
     9    5   12 1
    10    9   10 2
    11    9   11 1
    12    9   12 1
    13    9   13 1
    14   11   33 1
    15   13   14 1
    16   14   15 1
    17   14   34 1
    18   14   35 1
    19   15   16 1
    20   15   17 1
    21   15   36 1
    22   16   21 1
    23   17   18 1
    24   17   19 1
    25   17   37 1
    26   18   38 1
    27   19   20 1
    28   19   21 1
    29   19   39 1
    30   20   40 1
    31   21   22 1
    32   21   41 1
    33   22   23 ar
    34   22   31 ar
    35   23   24 ar
    36   23   42 1
    37   24   25 ar
    38   25   26 ar
    39   25   31 ar
    40   26   27 2
    41   26   28 ar
    42   27   43 1
    43   28   29 ar
    44   28   45 1
    45   29   30 ar
    46   29   44 1
    47   30   31 ar
@<TRIPOS>SUBSTRUCTURE
     1 ATP         1 GROUP 0 A     ****
@<TRIPOS>MOLECULE
[[[3,4-dihydroxy-5-(6-imino-1~{H}-purin-9-yl)tetrahydrofuran-2-yl]methoxy-hydroxy-phosphoryl]oxy-oxido-phosphoryl] hydrogen phosphate
   45    47     1     0     0
SMALL
USER_CHARGES

@<TRIPOS>ATOM
      1 PG         -2.2425    5.2671    6.4511 P.3       1 ATP         1.5414
      2 O1G        -3.2178    5.2639    5.2951 O.co2     1 ATP        -0.8562
      3 O2G        -1.7950    6.5642    7.0873 O.co2     1 ATP        -0.8562
      4 O3G        -2.8228    4.2878    7.6218 O.3       1 ATP        -0.7907
      5 PB          0.2198    4.6910    4.9124 P.3       1 ATP         1.6574
      6 O1B         0.7807    6.0764    5.1444 O.co2     1 ATP        -0.8530
      7 O2B         1.1297    3.4863    4.8215 O.co2     1 ATP        -0.8530
      8 O3B        -0.9268    4.3982    6.0355 O.3       1 ATP        -0.8003
      9 PA         -0.3718    4.9776    2.0264 P.3       1 ATP         1.7415
     10 O1A         0.6640    6.0385    1.7915 O.2       1 ATP        -0.8661
     11 O2A        -1.8128    5.2955    1.3627 O.3       1 ATP        -0.8077
     12 O3A        -0.7290    4.7337    3.5851 O.3       1 ATP        -0.7685
     13 O5'         0.0171    3.5129    1.4593 O.3       1 ATP        -0.5590
     14 C5'        -0.8811    2.4285    1.6206 C.3       1 ATP         0.1960
     15 C4'        -0.1994    1.3333    2.4288 C.3       1 ATP         0.0976
     16 O4'        -1.1285    0.2356    2.5840 O.3       1 ATP        -0.3865
     17 C3'         1.0324    0.7610    1.7344 C.3       1 ATP         0.0901
     18 O3'         1.9175    0.2377    2.7247 O.3       1 ATP        -0.5889
     19 C2'         0.4468   -0.3802    0.9263 C.3       1 ATP         0.0574
     20 O2'         1.3993   -1.3703    0.5961 O.3       1 ATP        -0.5923
     21 C1'        -0.6159   -0.9100    1.8769 C.3       1 ATP         0.2452
     22 N9         -1.7127   -1.6108    1.2130 N.pl3     1 ATP        -0.1834
     23 C8         -1.7690   -2.9583    0.9549 C.ar      1 ATP         0.4338
     24 N7         -2.8827   -3.3076    0.3418 N.2       1 ATP        -0.6101
     25 C5         -3.5683   -2.1351    0.2017 C.ar      1 ATP         0.2154
     26 C6         -4.8617   -1.9185   -0.4044 C.ar      1 ATP         0.6130
     27 N6         -5.5166   -2.9094   -0.8993 N.2       1 ATP        -0.8165
     28 N1         -5.1837   -0.5701   -0.3344 N.pl3     1 ATP        -0.8617
     29 C2         -4.3821    0.4180    0.2330 C.ar      1 ATP         0.6151
     30 N3         -3.2117    0.2488    0.7860 N.2       1 ATP        -0.5797
     31 C4         -2.8672   -1.0657    0.7327 C.ar      1 ATP         0.0328
     32 HOG3       -2.2992    4.1831    8.4447 H         1 ATP         0.4197
     33 HOA2       -2.2941    6.1043    1.6391 H         1 ATP         0.4550
     34 H5'1       -1.7775    2.7843    2.1389 H         1 ATP         0.0431
     35 H5'2       -1.1658    2.0534    0.6322 H         1 ATP         0.0431
     36 H4'         0.0402    1.7079    3.4342 H         1 ATP         0.1325
     37 H3'         1.5907    1.4859    1.1353 H         1 ATP         0.0782
     38 HO3'        2.1521    0.9800    3.3017 H         1 ATP         0.4062
     39 H2'        -0.0017    0.0018    0.0005 H         1 ATP         0.0689
     40 HO2'        1.7495   -1.7243    1.4324 H         1 ATP         0.4089
     41 H1'        -0.1998   -1.6319    2.6178 H         1 ATP         0.1098
     42 H8         -0.9697   -3.6300    1.2371 H         1 ATP         0.0929
     43 HN62       -6.4060   -2.5723   -1.2840 H         1 ATP         0.3678
     44 H2         -4.8409    1.4176    0.1757 H         1 ATP         0.0383
     45 H45        -6.0768   -0.2826   -0.7263 H         1 ATP         0.4286
@<TRIPOS>BOND
     1    1    2 2
     2    1    3 1
     3    1    4 1
     4    1    8 1
     5    4   32 1
     6    5    6 2
     7    5    7 1
     8    5    8 1
     9    5   12 1
    10    9   10 2
    11    9   11 1
    12    9   12 1
    13    9   13 1
    14   11   33 1
    15   13   14 1
    16   14   15 1
    17   14   34 1
    18   14   35 1
    19   15   16 1
    20   15   17 1
    21   15   36 1
    22   16   21 1
    23   17   18 1
    24   17   19 1
    25   17   37 1
    26   18   38 1
    27   19   20 1
    28   19   21 1
    29   19   39 1
    30   20   40 1
    31   21   22 1
    32   21   41 1
    33   22   23 ar
    34   22   31 ar
    35   23   24 ar
    36   23   42 1
    37   24   25 ar
    38   25   26 ar
    39   25   31 ar
    40   26   27 2
    41   26   28 ar
    42   27   43 1
    43   28   29 ar
    44   28   45 1
    45   29   30 ar
    46   29   44 1
    47   30   31 ar
@<TRIPOS>SUBSTRUCTURE
     1 ATP         1 GROUP 0 A     ****
@<TRIPOS>MOLECULE
[[[3,4-dihydroxy-5-(6-imino-1~{H}-purin-9-yl)tetrahydrofuran-2-yl]methoxy-hydroxy-phosphoryl]oxy-oxido-phosphoryl] hydrogen phosphate
   45    47     1     0     0
SMALL
USER_CHARGES

@<TRIPOS>ATOM
      1 PG         -0.2415    8.3480    0.0189 P.3       1 ATP         1.5414
      2 O1G        -1.2010    9.4825    0.3014 O.co2     1 ATP        -0.8562
      3 O2G        -0.1318    7.7488   -1.3655 O.co2     1 ATP        -0.8562
      4 O3G         1.2499    8.7960    0.5102 O.3       1 ATP        -0.7907
      5 PB         -1.7939    6.1712    1.2891 P.3       1 ATP         1.6574
      6 O1B        -2.9690    7.0034    1.7520 O.co2     1 ATP        -0.8530
      7 O2B        -1.9047    5.2700    0.0794 O.co2     1 ATP        -0.8530
      8 O3B        -0.5047    7.1521    1.0955 O.3       1 ATP        -0.8003
      9 PA         -1.9403    4.0773    3.3760 P.3       1 ATP         1.7415
     10 O1A        -3.2371    4.4398    4.0398 O.2       1 ATP        -0.8661
     11 O2A        -0.7734    3.6204    4.3995 O.3       1 ATP        -0.8077
     12 O3A        -1.2556    5.2898    2.5529 O.3       1 ATP        -0.7685
     13 O5'        -2.0397    2.8622    2.3122 O.3       1 ATP        -0.5590
     14 C5'        -0.8811    2.4285    1.6206 C.3       1 ATP         0.1960
     15 C4'        -0.1994    1.3333    2.4288 C.3       1 ATP         0.0976
     16 O4'        -1.1285    0.2356    2.5840 O.3       1 ATP        -0.3865
     17 C3'         1.0324    0.7610    1.7344 C.3       1 ATP         0.0901
     18 O3'         1.9175    0.2377    2.7247 O.3       1 ATP        -0.5889
     19 C2'         0.4468   -0.3802    0.9263 C.3       1 ATP         0.0574
     20 O2'         1.3993   -1.3703    0.5961 O.3       1 ATP        -0.5923
     21 C1'        -0.6159   -0.9100    1.8769 C.3       1 ATP         0.2452
     22 N9         -1.7127   -1.6108    1.2130 N.pl3     1 ATP        -0.1834
     23 C8         -2.5485   -1.0808    0.2609 C.ar      1 ATP         0.4338
     24 N7         -3.4476   -1.9486   -0.1593 N.2       1 ATP        -0.6101
     25 C5         -3.1762   -3.0816    0.5530 C.ar      1 ATP         0.2154
     26 C6         -3.8510   -4.3579    0.5006 C.ar      1 ATP         0.6130
     27 N6         -4.8468   -4.5293   -0.2961 N.2       1 ATP        -0.8165
     28 N1         -3.2499   -5.2342    1.3937 N.pl3     1 ATP        -0.8617
     29 C2         -2.1646   -4.9275    2.2116 C.ar      1 ATP         0.6151
     30 N3         -1.5382   -3.7840    2.2778 N.2       1 ATP        -0.5797
     31 C4         -2.1054   -2.9018    1.4120 C.ar      1 ATP         0.0328
     32 HOG3        1.9896    8.1622    0.3938 H         1 ATP         0.4197
     33 HOA2       -0.4720    4.2516    5.0872 H         1 ATP         0.4550
     34 H5'1       -1.1761    2.0499    0.6365 H         1 ATP         0.0431
     35 H5'2       -0.2073    3.2811    1.4874 H         1 ATP         0.0431
     36 H4'         0.0402    1.7079    3.4342 H         1 ATP         0.1325
     37 H3'         1.5907    1.4859    1.1353 H         1 ATP         0.0782
     38 HO3'        2.1521    0.9800    3.3017 H         1 ATP         0.4062
     39 H2'        -0.0017    0.0018    0.0005 H         1 ATP         0.0689
     40 HO2'        2.0953   -0.9375    0.0709 H         1 ATP         0.4089
     41 H1'        -0.1998   -1.6319    2.6178 H         1 ATP         0.1098
     42 H8         -2.4515   -0.0599   -0.0829 H         1 ATP         0.0929
     43 HN62       -5.1990   -5.4882   -0.2005 H         1 ATP         0.3678
     44 H2         -1.8555   -5.7783    2.8388 H         1 ATP         0.0383
     45 H45        -3.6312   -6.1750    1.4526 H         1 ATP         0.4286
@<TRIPOS>BOND
     1    1    2 2
     2    1    3 1
     3    1    4 1
     4    1    8 1
     5    4   32 1
     6    5    6 2
     7    5    7 1
     8    5    8 1
     9    5   12 1
    10    9   10 2
    11    9   11 1
    12    9   12 1
    13    9   13 1
    14   11   33 1
    15   13   14 1
    16   14   15 1
    17   14   34 1
    18   14   35 1
    19   15   16 1
    20   15   17 1
    21   15   36 1
    22   16   21 1
    23   17   18 1
    24   17   19 1
    25   17   37 1
    26   18   38 1
    27   19   20 1
    28   19   21 1
    29   19   39 1
    30   20   40 1
    31   21   22 1
    32   21   41 1
    33   22   23 ar
    34   22   31 ar
    35   23   24 ar
    36   23   42 1
    37   24   25 ar
    38   25   26 ar
    39   25   31 ar
    40   26   27 2
    41   26   28 ar
    42   27   43 1
    43   28   29 ar
    44   28   45 1
    45   29   30 ar
    46   29   44 1
    47   30   31 ar
@<TRIPOS>SUBSTRUCTURE
     1 ATP         1 GROUP 0 A     ****
@<TRIPOS>MOLECULE
[[[3,4-dihydroxy-5-(6-imino-1~{H}-purin-9-yl)tetrahydrofuran-2-yl]methoxy-hydroxy-phosphoryl]oxy-oxido-phosphoryl] hydrogen phosphate
   45    47     1     0     0
SMALL
USER_CHARGES

@<TRIPOS>ATOM
      1 PG          8.1861    0.2909   -4.5116 P.3       1 ATP         1.5414
      2 O1G         7.1906   -0.4172   -5.4033 O.co2     1 ATP        -0.8562
      3 O2G         9.3163   -0.4675   -3.8521 O.co2     1 ATP        -0.8562
      4 O3G         8.8182    1.5496   -5.3376 O.3       1 ATP        -0.7907
      5 PB          7.9146    2.1849   -2.2530 P.3       1 ATP         1.6574
      6 O1B         8.7702    1.4357   -1.2559 O.co2     1 ATP        -0.8530
      7 O2B         8.4366    3.4166   -2.9587 O.co2     1 ATP        -0.8530
      8 O3B         7.3738    1.1289   -3.3730 O.3       1 ATP        -0.8003
      9 PA          6.1388    3.5441   -0.3139 P.3       1 ATP         1.7415
     10 O1A         6.5122    4.9778   -0.5559 O.2       1 ATP        -0.8661
     11 O2A         6.8954    2.8621    0.9433 O.3       1 ATP        -0.8077
     12 O3A         6.4925    2.5510   -1.5408 O.3       1 ATP        -0.7685
     13 O5'         4.5673    3.2930   -0.0211 O.3       1 ATP        -0.5590
     14 C5'         4.0922    1.9801    0.2227 C.3       1 ATP         0.1960
     15 C4'         2.5944    2.0310    0.4653 C.3       1 ATP         0.0976
     16 O4'         1.9327    2.5740   -0.6889 O.3       1 ATP        -0.3865
     17 C3'         1.9685    0.6634    0.6767 C.3       1 ATP         0.0901
     18 O3'         2.1425    0.1975    1.9977 O.3       1 ATP        -0.5889
     19 C2'         0.5176    0.9128    0.3099 C.3       1 ATP         0.0574
     20 O2'        -0.2103    1.4454    1.4152 O.3       1 ATP        -0.5923
     21 C1'         0.6219    1.9765   -0.7844 C.3       1 ATP         0.2452
     22 N9          0.4237    1.4496   -2.1357 N.pl3     1 ATP        -0.1834
     23 C8          1.1891    0.4862   -2.7452 C.ar      1 ATP         0.4338
     24 N7          0.7743    0.2113   -3.9661 N.2       1 ATP        -0.6101
     25 C5         -0.3017    1.0326   -4.1458 C.ar      1 ATP         0.2154
     26 C6         -1.1512    1.1578   -5.3076 C.ar      1 ATP         0.6130
     27 N6         -0.9306    0.4354   -6.3493 N.2       1 ATP        -0.8165
     28 N1         -2.1281    2.1133   -5.0636 N.pl3     1 ATP        -0.8617
     29 C2         -2.2653    2.8370   -3.8811 C.ar      1 ATP         0.6151
     30 N3         -1.5123    2.7429   -2.8189 N.2       1 ATP        -0.5797
     31 C4         -0.5429    1.8121   -3.0273 C.ar      1 ATP         0.0328
     32 HOG3        9.4860    2.1127   -4.8911 H         1 ATP         0.4197
     33 HOA2        6.7749    3.2497    1.8363 H         1 ATP         0.4550
     34 H5'1        4.3175    1.3541   -0.6468 H         1 ATP         0.0431
     35 H5'2        4.6079    1.5730    1.0985 H         1 ATP         0.0431
     36 H4'         2.3752    2.7029    1.3156 H         1 ATP         0.1325
     37 H3'         2.4336   -0.1217   -0.0016 H         1 ATP         0.0782
     38 HO3'        1.7160   -0.6716    2.0397 H         1 ATP         0.4062
     39 H2'         0.0316    0.0155   -0.0339 H         1 ATP         0.0689
     40 HO2'       -0.1608    0.7921    2.1351 H         1 ATP         0.4089
     41 H1'        -0.1474    2.7798   -0.6651 H         1 ATP         0.1098
     42 H8          2.0323    0.0251   -2.2492 H         1 ATP         0.0929
     43 HN62       -1.6261    0.6558   -7.0707 H         1 ATP         0.3678
     44 H2         -3.1123    3.5402   -3.9130 H         1 ATP         0.0383
     45 H45        -2.7975    2.2966   -5.8068 H         1 ATP         0.4286
@<TRIPOS>BOND
     1    1    2 2
     2    1    3 1
     3    1    4 1
     4    1    8 1
     5    4   32 1
     6    5    6 2
     7    5    7 1
     8    5    8 1
     9    5   12 1
    10    9   10 2
    11    9   11 1
    12    9   12 1
    13    9   13 1
    14   11   33 1
    15   13   14 1
    16   14   15 1
    17   14   34 1
    18   14   35 1
    19   15   16 1
    20   15   17 1
    21   15   36 1
    22   16   21 1
    23   17   18 1
    24   17   19 1
    25   17   37 1
    26   18   38 1
    27   19   20 1
    28   19   21 1
    29   19   39 1
    30   20   40 1
    31   21   22 1
    32   21   41 1
    33   22   23 ar
    34   22   31 ar
    35   23   24 ar
    36   23   42 1
    37   24   25 ar
    38   25   26 ar
    39   25   31 ar
    40   26   27 2
    41   26   28 ar
    42   27   43 1
    43   28   29 ar
    44   28   45 1
    45   29   30 ar
    46   29   44 1
    47   30   31 ar
@<TRIPOS>SUBSTRUCTURE
     1 ATP         1 GROUP 0 A     ****
@<TRIPOS>MOLECULE
[[[3,4-dihydroxy-5-(6-imino-1~{H}-purin-9-yl)tetrahydrofuran-2-yl]methoxy-hydroxy-phosphoryl]oxy-oxido-phosphoryl] hydrogen phosphate
   45    47     1     0     0
SMALL
USER_CHARGES

@<TRIPOS>ATOM
      1 PG         10.0036    0.1530   -1.7124 P.3       1 ATP         1.5414
      2 O1G         9.5777   -0.7991   -2.8078 O.co2     1 ATP        -0.8562
      3 O2G        10.7224   -0.3503   -0.4806 O.co2     1 ATP        -0.8562
      4 O3G        10.8936    1.3477   -2.3810 O.3       1 ATP        -0.7907
      5 PB          8.6167    2.3066   -0.2290 P.3       1 ATP         1.6574
      6 O1B         8.9343    1.8267    1.1697 O.co2     1 ATP        -0.8530
      7 O2B         9.3543    3.4784   -0.8379 O.co2     1 ATP        -0.8530
      8 O3B         8.7145    1.0380   -1.2501 O.3       1 ATP        -0.8003
      9 PA          6.0786    3.6970    0.3924 P.3       1 ATP         1.7415
     10 O1A         6.4580    5.1157    0.0811 O.2       1 ATP        -0.8661
     11 O2A         6.1835    3.3084    1.9596 O.3       1 ATP        -0.8077
     12 O3A         7.0121    2.5885   -0.3262 O.3       1 ATP        -0.7685
     13 O5'         4.5673    3.2930   -0.0211 O.3       1 ATP        -0.5590
     14 C5'         4.0922    1.9801    0.2227 C.3       1 ATP         0.1960
     15 C4'         2.5944    2.0310    0.4653 C.3       1 ATP         0.0976
     16 O4'         1.9327    2.5740   -0.6889 O.3       1 ATP        -0.3865
     17 C3'         1.9685    0.6634    0.6767 C.3       1 ATP         0.0901
     18 O3'         2.1425    0.1975    1.9977 O.3       1 ATP        -0.5889
     19 C2'         0.5176    0.9128    0.3099 C.3       1 ATP         0.0574
     20 O2'        -0.2103    1.4454    1.4152 O.3       1 ATP        -0.5923
     21 C1'         0.6219    1.9765   -0.7844 C.3       1 ATP         0.2452
     22 N9          0.4237    1.4496   -2.1357 N.pl3     1 ATP        -0.1834
     23 C8          1.4069    0.9710   -2.9662 C.ar      1 ATP         0.4338
     24 N7          0.9316    0.5623   -4.1260 N.2       1 ATP        -0.6101
     25 C5         -0.4120    0.7884   -4.0344 C.ar      1 ATP         0.2154
     26 C6         -1.4353    0.5283   -5.0204 C.ar      1 ATP         0.6130
     27 N6         -1.1199    0.0176   -6.1586 N.2       1 ATP        -0.8165
     28 N1         -2.6704    0.9095   -4.5147 N.pl3     1 ATP        -0.8617
     29 C2         -2.8863    1.4571   -3.2520 C.ar      1 ATP         0.6151
     30 N3         -1.9805    1.7017   -2.3442 N.2       1 ATP        -0.5797
     31 C4         -0.7561    1.3381   -2.8112 C.ar      1 ATP         0.0328
     32 HOG3       11.2467    2.0505   -1.7948 H         1 ATP         0.4197
     33 HOA2        5.6397    3.8038    2.6084 H         1 ATP         0.4550
     34 H5'1        4.3175    1.3541   -0.6468 H         1 ATP         0.0431
     35 H5'2        4.6079    1.5730    1.0985 H         1 ATP         0.0431
     36 H4'         2.3752    2.7029    1.3156 H         1 ATP         0.1325
     37 H3'         2.4336   -0.1217   -0.0016 H         1 ATP         0.0782
     38 HO3'        3.0987    0.1465    2.1461 H         1 ATP         0.4062
     39 H2'         0.0316    0.0155   -0.0339 H         1 ATP         0.0689
     40 HO2'       -0.1608    0.7921    2.1351 H         1 ATP         0.4089
     41 H1'        -0.1474    2.7798   -0.6651 H         1 ATP         0.1098
     42 H8          2.4466    0.9468   -2.6694 H         1 ATP         0.0929
     43 HN62       -1.9661   -0.0965   -6.7275 H         1 ATP         0.3678
     44 H2         -3.9481    1.6825   -3.0660 H         1 ATP         0.0383
     45 H45        -3.4814    0.7753   -5.1133 H         1 ATP         0.4286
@<TRIPOS>BOND
     1    1    2 2
     2    1    3 1
     3    1    4 1
     4    1    8 1
     5    4   32 1
     6    5    6 2
     7    5    7 1
     8    5    8 1
     9    5   12 1
    10    9   10 2
    11    9   11 1
    12    9   12 1
    13    9   13 1
    14   11   33 1
    15   13   14 1
    16   14   15 1
    17   14   34 1
    18   14   35 1
    19   15   16 1
    20   15   17 1
    21   15   36 1
    22   16   21 1
    23   17   18 1
    24   17   19 1
    25   17   37 1
    26   18   38 1
    27   19   20 1
    28   19   21 1
    29   19   39 1
    30   20   40 1
    31   21   22 1
    32   21   41 1
    33   22   23 ar
    34   22   31 ar
    35   23   24 ar
    36   23   42 1
    37   24   25 ar
    38   25   26 ar
    39   25   31 ar
    40   26   27 2
    41   26   28 ar
    42   27   43 1
    43   28   29 ar
    44   28   45 1
    45   29   30 ar
    46   29   44 1
    47   30   31 ar
@<TRIPOS>SUBSTRUCTURE
     1 ATP         1 GROUP 0 A     ****
@<TRIPOS>MOLECULE
[[[3,4-dihydroxy-5-(6-imino-1~{H}-purin-9-yl)tetrahydrofuran-2-yl]methoxy-hydroxy-phosphoryl]oxy-oxido-phosphoryl] hydrogen phosphate
   45    47     1     0     0
SMALL
USER_CHARGES

@<TRIPOS>ATOM
      1 PG         -0.4796    2.8642   -4.6377 P.3       1 ATP         1.5414
      2 O1G         0.4524    3.8264   -5.3399 O.co2     1 ATP        -0.8562
      3 O2G        -1.8695    2.5985   -5.1715 O.co2     1 ATP        -0.8562
      4 O3G         0.2896    1.4350   -4.4586 O.3       1 ATP        -0.7907
      5 PB         -1.2354    4.6074   -2.3679 P.3       1 ATP         1.6574
      6 O1B        -0.4055    5.8121   -2.7521 O.co2     1 ATP        -0.8530
      7 O2B        -2.7316    4.5885   -2.5884 O.co2     1 ATP        -0.8530
      8 O3B        -0.5860    3.2833   -3.0655 O.3       1 ATP        -0.8003
      9 PA          0.4610    3.9828   -0.0241 P.3       1 ATP         1.7415
     10 O1A         1.4152    5.1413   -0.0577 O.2       1 ATP        -0.8661
     11 O2A         1.0250    2.6353   -0.7201 O.3       1 ATP        -0.8077
     12 O3A        -0.9304    4.2474   -0.8055 O.3       1 ATP        -0.7685
     13 O5'         0.0171    3.5129    1.4593 O.3       1 ATP        -0.5590
     14 C5'        -0.8811    2.4285    1.6206 C.3       1 ATP         0.1960
     15 C4'        -0.1994    1.3333    2.4288 C.3       1 ATP         0.0976
     16 O4'        -1.1285    0.2356    2.5840 O.3       1 ATP        -0.3865
     17 C3'         1.0324    0.7610    1.7344 C.3       1 ATP         0.0901
     18 O3'         1.9175    0.2377    2.7247 O.3       1 ATP        -0.5889
     19 C2'         0.4468   -0.3802    0.9263 C.3       1 ATP         0.0574
     20 O2'         1.3993   -1.3703    0.5961 O.3       1 ATP        -0.5923
     21 C1'        -0.6159   -0.9100    1.8769 C.3       1 ATP         0.2452
     22 N9         -1.7127   -1.6108    1.2130 N.pl3     1 ATP        -0.1834
     23 C8         -2.8662   -1.0361    0.7388 C.ar      1 ATP         0.4338
     24 N7         -3.6774   -1.9166    0.1867 N.2       1 ATP        -0.6101
     25 C5         -3.0159   -3.1045    0.3122 C.ar      1 ATP         0.2154
     26 C6         -3.4377   -4.4169   -0.1199 C.ar      1 ATP         0.6130
     27 N6         -4.5720   -4.5691   -0.7080 N.2       1 ATP        -0.8165
     28 N1         -2.4600   -5.3463    0.2071 N.pl3     1 ATP        -0.8617
     29 C2         -1.2595   -5.0554    0.8515 C.ar      1 ATP         0.6151
     30 N3         -0.8555   -3.8803    1.2516 N.2       1 ATP        -0.5797
     31 C4         -1.7946   -2.9457    0.9448 C.ar      1 ATP         0.0328
     32 HOG3       -0.1874    0.7005   -4.0165 H         1 ATP         0.4197
     33 HOA2        1.2711    2.6593   -1.6693 H         1 ATP         0.4550
     34 H5'1       -1.7775    2.7843    2.1389 H         1 ATP         0.0431
     35 H5'2       -1.1658    2.0534    0.6322 H         1 ATP         0.0431
     36 H4'         0.0402    1.7079    3.4342 H         1 ATP         0.1325
     37 H3'         1.5907    1.4859    1.1353 H         1 ATP         0.0782
     38 HO3'        2.6839   -0.1150    2.2479 H         1 ATP         0.4062
     39 H2'        -0.0017    0.0018    0.0005 H         1 ATP         0.0689
     40 HO2'        2.0953   -0.9375    0.0709 H         1 ATP         0.4089
     41 H1'        -0.1998   -1.6319    2.6178 H         1 ATP         0.1098
     42 H8         -3.0558    0.0252    0.8256 H         1 ATP         0.0929
     43 HN62       -4.7047   -5.5592   -0.9421 H         1 ATP         0.3678
     44 H2         -0.6372   -5.9505    1.0077 H         1 ATP         0.0383
     45 H45        -2.6338   -6.3155   -0.0469 H         1 ATP         0.4286
@<TRIPOS>BOND
     1    1    2 2
     2    1    3 1
     3    1    4 1
     4    1    8 1
     5    4   32 1
     6    5    6 2
     7    5    7 1
     8    5    8 1
     9    5   12 1
    10    9   10 2
    11    9   11 1
    12    9   12 1
    13    9   13 1
    14   11   33 1
    15   13   14 1
    16   14   15 1
    17   14   34 1
    18   14   35 1
    19   15   16 1
    20   15   17 1
    21   15   36 1
    22   16   21 1
    23   17   18 1
    24   17   19 1
    25   17   37 1
    26   18   38 1
    27   19   20 1
    28   19   21 1
    29   19   39 1
    30   20   40 1
    31   21   22 1
    32   21   41 1
    33   22   23 ar
    34   22   31 ar
    35   23   24 ar
    36   23   42 1
    37   24   25 ar
    38   25   26 ar
    39   25   31 ar
    40   26   27 2
    41   26   28 ar
    42   27   43 1
    43   28   29 ar
    44   28   45 1
    45   29   30 ar
    46   29   44 1
    47   30   31 ar
@<TRIPOS>SUBSTRUCTURE
     1 ATP         1 GROUP 0 A     ****
@<TRIPOS>MOLECULE
[[[3,4-dihydroxy-5-(6-imino-1~{H}-purin-9-yl)tetrahydrofuran-2-yl]methoxy-hydroxy-phosphoryl]oxy-oxido-phosphoryl] hydrogen phosphate
   45    47     1     0     0
SMALL
USER_CHARGES

@<TRIPOS>ATOM
      1 PG         -7.4065    4.2224    1.4222 P.3       1 ATP         1.5414
      2 O1G        -7.7414    3.2439    2.5259 O.co2     1 ATP        -0.8562
      3 O2G        -8.1219    4.1675    0.0908 O.co2     1 ATP        -0.8562
      4 O3G        -7.5324    5.7378    2.0171 O.3       1 ATP        -0.7907
      5 PB         -4.8447    3.0127    0.5644 P.3       1 ATP         1.6574
      6 O1B        -4.8207    1.8668    1.5514 O.co2     1 ATP        -0.8530
      7 O2B        -5.2051    2.7847   -0.8868 O.co2     1 ATP        -0.8530
      8 O3B        -5.7972    4.1950    1.1614 O.3       1 ATP        -0.8003
      9 PA         -2.5925    4.4094    1.8827 P.3       1 ATP         1.7415
     10 O1A        -3.4550    5.1144    2.8891 O.2       1 ATP        -0.8661
     11 O2A        -1.4926    5.3570    1.1685 O.3       1 ATP        -0.8077
     12 O3A        -3.4080    3.7839    0.6336 O.3       1 ATP        -0.7685
     13 O5'        -1.7334    3.1724    2.4743 O.3       1 ATP        -0.5590
     14 C5'        -0.8811    2.4285    1.6206 C.3       1 ATP         0.1960
     15 C4'        -0.1994    1.3333    2.4288 C.3       1 ATP         0.0976
     16 O4'        -1.1285    0.2356    2.5840 O.3       1 ATP        -0.3865
     17 C3'         1.0324    0.7610    1.7344 C.3       1 ATP         0.0901
     18 O3'         1.9175    0.2377    2.7247 O.3       1 ATP        -0.5889
     19 C2'         0.4468   -0.3802    0.9263 C.3       1 ATP         0.0574
     20 O2'         1.3993   -1.3703    0.5961 O.3       1 ATP        -0.5923
     21 C1'        -0.6159   -0.9100    1.8769 C.3       1 ATP         0.2452
     22 N9         -1.7127   -1.6108    1.2130 N.pl3     1 ATP        -0.1834
     23 C8         -2.0868   -2.9137    1.4327 C.ar      1 ATP         0.4338
     24 N7         -3.1125   -3.2756    0.6878 N.2       1 ATP        -0.6101
     25 C5         -3.4079   -2.1580   -0.0391 C.ar      1 ATP         0.2154
     26 C6         -4.4483   -1.9775   -1.0249 C.ar      1 ATP         0.6130
     27 N6         -5.2418   -2.9492   -1.3113 N.2       1 ATP        -0.8165
     28 N1         -4.3937   -0.6823   -1.5211 N.pl3     1 ATP        -0.8617
     29 C2         -3.4770    0.2901   -1.1271 C.ar      1 ATP         0.6151
     30 N3         -2.5289    0.1525   -0.2402 N.2       1 ATP        -0.5797
     31 C4         -2.5564   -1.1096    0.2655 C.ar      1 ATP         0.0328
     32 HOG3       -7.3446    6.4915    1.4179 H         1 ATP         0.4197
     33 HOA2       -0.8196    5.8045    1.7244 H         1 ATP         0.4550
     34 H5'1       -1.4795    1.9922    0.8142 H         1 ATP         0.0431
     35 H5'2       -0.1362    3.1035    1.1868 H         1 ATP         0.0431
     36 H4'         0.0402    1.7079    3.4342 H         1 ATP         0.1325
     37 H3'         1.5907    1.4859    1.1353 H         1 ATP         0.0782
     38 HO3'        2.6839   -0.1150    2.2479 H         1 ATP         0.4062
     39 H2'        -0.0017    0.0018    0.0005 H         1 ATP         0.0689
     40 HO2'        2.0953   -0.9375    0.0709 H         1 ATP         0.4089
     41 H1'        -0.1998   -1.6319    2.6178 H         1 ATP         0.1098
     42 H8         -1.5740   -3.5449    2.1457 H         1 ATP         0.0929
     43 HN62       -5.9117   -2.6433   -2.0256 H         1 ATP         0.3678
     44 H2         -3.6225    1.2454   -1.6553 H         1 ATP         0.0383
     45 H45        -5.0794   -0.4231   -2.2258 H         1 ATP         0.4286
@<TRIPOS>BOND
     1    1    2 2
     2    1    3 1
     3    1    4 1
     4    1    8 1
     5    4   32 1
     6    5    6 2
     7    5    7 1
     8    5    8 1
     9    5   12 1
    10    9   10 2
    11    9   11 1
    12    9   12 1
    13    9   13 1
    14   11   33 1
    15   13   14 1
    16   14   15 1
    17   14   34 1
    18   14   35 1
    19   15   16 1
    20   15   17 1
    21   15   36 1
    22   16   21 1
    23   17   18 1
    24   17   19 1
    25   17   37 1
    26   18   38 1
    27   19   20 1
    28   19   21 1
    29   19   39 1
    30   20   40 1
    31   21   22 1
    32   21   41 1
    33   22   23 ar
    34   22   31 ar
    35   23   24 ar
    36   23   42 1
    37   24   25 ar
    38   25   26 ar
    39   25   31 ar
    40   26   27 2
    41   26   28 ar
    42   27   43 1
    43   28   29 ar
    44   28   45 1
    45   29   30 ar
    46   29   44 1
    47   30   31 ar
@<TRIPOS>SUBSTRUCTURE
     1 ATP         1 GROUP 0 A     ****
@<TRIPOS>MOLECULE
[[[3,4-dihydroxy-5-(6-imino-1~{H}-purin-9-yl)tetrahydrofuran-2-yl]methoxy-hydroxy-phosphoryl]oxy-oxido-phosphoryl] hydrogen phosphate
   45    47     1     0     0
SMALL
USER_CHARGES

@<TRIPOS>ATOM
      1 PG          9.3062    1.1328   -3.1886 P.3       1 ATP         1.5414
      2 O1G        10.6101    1.8990   -3.1700 O.co2     1 ATP        -0.8562
      3 O2G         8.4175    1.1399   -4.4124 O.co2     1 ATP        -0.8562
      4 O3G         9.6101   -0.4178   -2.7768 O.3       1 ATP        -0.7907
      5 PB          7.7172    2.9855   -1.5140 P.3       1 ATP         1.6574
      6 O1B         8.8013    4.0089   -1.2588 O.co2     1 ATP        -0.8530
      7 O2B         6.6086    3.2547   -2.5071 O.co2     1 ATP        -0.8530
      8 O3B         8.4216    1.5623   -1.8880 O.3       1 ATP        -0.8003
      9 PA          6.1623    3.4238    0.9662 P.3       1 ATP         1.7415
     10 O1A         6.6223    4.8406    1.1531 O.2       1 ATP        -0.8661
     11 O2A         6.2137    2.5243    2.3102 O.3       1 ATP        -0.8077
     12 O3A         7.0509    2.5714   -0.0828 O.3       1 ATP        -0.7685
     13 O5'         4.6408    3.2692    0.4376 O.3       1 ATP        -0.5590
     14 C5'         4.0922    1.9801    0.2227 C.3       1 ATP         0.1960
     15 C4'         2.5944    2.0310    0.4653 C.3       1 ATP         0.0976
     16 O4'         1.9327    2.5740   -0.6889 O.3       1 ATP        -0.3865
     17 C3'         1.9685    0.6634    0.6767 C.3       1 ATP         0.0901
     18 O3'         2.1425    0.1975    1.9977 O.3       1 ATP        -0.5889
     19 C2'         0.5176    0.9128    0.3099 C.3       1 ATP         0.0574
     20 O2'        -0.2103    1.4454    1.4152 O.3       1 ATP        -0.5923
     21 C1'         0.6219    1.9765   -0.7844 C.3       1 ATP         0.2452
     22 N9          0.4237    1.4496   -2.1357 N.pl3     1 ATP        -0.1834
     23 C8          1.4069    0.9710   -2.9662 C.ar      1 ATP         0.4338
     24 N7          0.9316    0.5623   -4.1260 N.2       1 ATP        -0.6101
     25 C5         -0.4120    0.7884   -4.0344 C.ar      1 ATP         0.2154
     26 C6         -1.4353    0.5283   -5.0204 C.ar      1 ATP         0.6130
     27 N6         -1.1199    0.0176   -6.1586 N.2       1 ATP        -0.8165
     28 N1         -2.6704    0.9095   -4.5147 N.pl3     1 ATP        -0.8617
     29 C2         -2.8863    1.4571   -3.2520 C.ar      1 ATP         0.6151
     30 N3         -1.9805    1.7017   -2.3442 N.2       1 ATP        -0.5797
     31 C4         -0.7561    1.3381   -2.8112 C.ar      1 ATP         0.0328
     32 HOG3        8.8588   -1.0476   -2.7432 H         1 ATP         0.4197
     33 HOA2        5.6832    2.8020    3.0872 H         1 ATP         0.4550
     34 H5'1        4.3024    1.6722   -0.8067 H         1 ATP         0.0431
     35 H5'2        4.5673    1.2731    0.9105 H         1 ATP         0.0431
     36 H4'         2.3752    2.7029    1.3156 H         1 ATP         0.1325
     37 H3'         2.4336   -0.1217   -0.0016 H         1 ATP         0.0782
     38 HO3'        1.7160   -0.6716    2.0397 H         1 ATP         0.4062
     39 H2'         0.0316    0.0155   -0.0339 H         1 ATP         0.0689
     40 HO2'       -1.1270    1.5823    1.1180 H         1 ATP         0.4089
     41 H1'        -0.1474    2.7798   -0.6651 H         1 ATP         0.1098
     42 H8          2.4466    0.9468   -2.6694 H         1 ATP         0.0929
     43 HN62       -1.9661   -0.0965   -6.7275 H         1 ATP         0.3678
     44 H2         -3.9481    1.6825   -3.0660 H         1 ATP         0.0383
     45 H45        -3.4814    0.7753   -5.1133 H         1 ATP         0.4286
@<TRIPOS>BOND
     1    1    2 2
     2    1    3 1
     3    1    4 1
     4    1    8 1
     5    4   32 1
     6    5    6 2
     7    5    7 1
     8    5    8 1
     9    5   12 1
    10    9   10 2
    11    9   11 1
    12    9   12 1
    13    9   13 1
    14   11   33 1
    15   13   14 1
    16   14   15 1
    17   14   34 1
    18   14   35 1
    19   15   16 1
    20   15   17 1
    21   15   36 1
    22   16   21 1
    23   17   18 1
    24   17   19 1
    25   17   37 1
    26   18   38 1
    27   19   20 1
    28   19   21 1
    29   19   39 1
    30   20   40 1
    31   21   22 1
    32   21   41 1
    33   22   23 ar
    34   22   31 ar
    35   23   24 ar
    36   23   42 1
    37   24   25 ar
    38   25   26 ar
    39   25   31 ar
    40   26   27 2
    41   26   28 ar
    42   27   43 1
    43   28   29 ar
    44   28   45 1
    45   29   30 ar
    46   29   44 1
    47   30   31 ar
@<TRIPOS>SUBSTRUCTURE
     1 ATP         1 GROUP 0 A     ****
@<TRIPOS>MOLECULE
[[[3,4-dihydroxy-5-(6-imino-1~{H}-purin-9-yl)tetrahydrofuran-2-yl]methoxy-hydroxy-phosphoryl]oxy-oxido-phosphoryl] hydrogen phosphate
   45    47     1     0     0
SMALL
USER_CHARGES

@<TRIPOS>ATOM
      1 PG          0.4869    8.7527    1.2208 P.3       1 ATP         1.5414
      2 O1G         1.8408    8.8426    1.8890 O.co2     1 ATP        -0.8562
      3 O2G        -0.5391    9.8507    1.3919 O.co2     1 ATP        -0.8562
      4 O3G         0.7128    8.4975   -0.3761 O.3       1 ATP        -0.7907
      5 PB         -0.7353    6.7594    3.0360 P.3       1 ATP         1.6574
      6 O1B         0.4502    6.5687    3.9558 O.co2     1 ATP        -0.8530
      7 O2B        -1.9302    7.5821    3.4640 O.co2     1 ATP        -0.8530
      8 O3B        -0.1974    7.3228    1.6025 O.3       1 ATP        -0.8003
      9 PA         -1.9403    4.0773    3.3760 P.3       1 ATP         1.7415
     10 O1A        -3.2371    4.4398    4.0398 O.2       1 ATP        -0.8661
     11 O2A        -0.7734    3.6204    4.3995 O.3       1 ATP        -0.8077
     12 O3A        -1.2556    5.2898    2.5529 O.3       1 ATP        -0.7685
     13 O5'        -2.0397    2.8622    2.3122 O.3       1 ATP        -0.5590
     14 C5'        -0.8811    2.4285    1.6206 C.3       1 ATP         0.1960
     15 C4'        -0.1994    1.3333    2.4288 C.3       1 ATP         0.0976
     16 O4'        -1.1285    0.2356    2.5840 O.3       1 ATP        -0.3865
     17 C3'         1.0324    0.7610    1.7344 C.3       1 ATP         0.0901
     18 O3'         1.9175    0.2377    2.7247 O.3       1 ATP        -0.5889
     19 C2'         0.4468   -0.3802    0.9263 C.3       1 ATP         0.0574
     20 O2'         1.3993   -1.3703    0.5961 O.3       1 ATP        -0.5923
     21 C1'        -0.6159   -0.9100    1.8769 C.3       1 ATP         0.2452
     22 N9         -1.7127   -1.6108    1.2130 N.pl3     1 ATP        -0.1834
     23 C8         -1.7690   -2.9583    0.9549 C.ar      1 ATP         0.4338
     24 N7         -2.8827   -3.3076    0.3418 N.2       1 ATP        -0.6101
     25 C5         -3.5683   -2.1351    0.2017 C.ar      1 ATP         0.2154
     26 C6         -4.8617   -1.9185   -0.4044 C.ar      1 ATP         0.6130
     27 N6         -5.5166   -2.9094   -0.8993 N.2       1 ATP        -0.8165
     28 N1         -5.1837   -0.5701   -0.3344 N.pl3     1 ATP        -0.8617
     29 C2         -4.3821    0.4180    0.2330 C.ar      1 ATP         0.6151
     30 N3         -3.2117    0.2488    0.7860 N.2       1 ATP        -0.5797
     31 C4         -2.8672   -1.0657    0.7327 C.ar      1 ATP         0.0328
     32 HOG3       -0.0772    8.4157   -0.9520 H         1 ATP         0.4197
     33 HOA2       -0.4720    4.2516    5.0872 H         1 ATP         0.4550
     34 H5'1       -1.1761    2.0499    0.6365 H         1 ATP         0.0431
     35 H5'2       -0.2073    3.2811    1.4874 H         1 ATP         0.0431
     36 H4'         0.0402    1.7079    3.4342 H         1 ATP         0.1325
     37 H3'         1.5907    1.4859    1.1353 H         1 ATP         0.0782
     38 HO3'        2.6839   -0.1150    2.2479 H         1 ATP         0.4062
     39 H2'        -0.0017    0.0018    0.0005 H         1 ATP         0.0689
     40 HO2'        2.0953   -0.9375    0.0709 H         1 ATP         0.4089
     41 H1'        -0.1998   -1.6319    2.6178 H         1 ATP         0.1098
     42 H8         -0.9697   -3.6300    1.2371 H         1 ATP         0.0929
     43 HN62       -6.4060   -2.5723   -1.2840 H         1 ATP         0.3678
     44 H2         -4.8409    1.4176    0.1757 H         1 ATP         0.0383
     45 H45        -6.0768   -0.2826   -0.7263 H         1 ATP         0.4286
@<TRIPOS>BOND
     1    1    2 2
     2    1    3 1
     3    1    4 1
     4    1    8 1
     5    4   32 1
     6    5    6 2
     7    5    7 1
     8    5    8 1
     9    5   12 1
    10    9   10 2
    11    9   11 1
    12    9   12 1
    13    9   13 1
    14   11   33 1
    15   13   14 1
    16   14   15 1
    17   14   34 1
    18   14   35 1
    19   15   16 1
    20   15   17 1
    21   15   36 1
    22   16   21 1
    23   17   18 1
    24   17   19 1
    25   17   37 1
    26   18   38 1
    27   19   20 1
    28   19   21 1
    29   19   39 1
    30   20   40 1
    31   21   22 1
    32   21   41 1
    33   22   23 ar
    34   22   31 ar
    35   23   24 ar
    36   23   42 1
    37   24   25 ar
    38   25   26 ar
    39   25   31 ar
    40   26   27 2
    41   26   28 ar
    42   27   43 1
    43   28   29 ar
    44   28   45 1
    45   29   30 ar
    46   29   44 1
    47   30   31 ar
@<TRIPOS>SUBSTRUCTURE
     1 ATP         1 GROUP 0 A     ****
@<TRIPOS>MOLECULE
[[[3,4-dihydroxy-5-(6-imino-1~{H}-purin-9-yl)tetrahydrofuran-2-yl]methoxy-hydroxy-phosphoryl]oxy-oxido-phosphoryl] hydrogen phosphate
   45    47     1     0     0
SMALL
USER_CHARGES

@<TRIPOS>ATOM
      1 PG         -0.1961    7.0179   -3.7358 P.3       1 ATP         1.5414
      2 O1G        -1.5248    7.6582   -4.0710 O.co2     1 ATP        -0.8562
      3 O2G         0.6214    6.3205   -4.8001 O.co2     1 ATP        -0.8562
      4 O3G         0.7466    8.1326   -3.0044 O.3       1 ATP        -0.7907
      5 PB         -1.2354    4.6074   -2.3679 P.3       1 ATP         1.6574
      6 O1B        -2.7098    4.9136   -2.5094 O.co2     1 ATP        -0.8530
      7 O2B        -0.5658    3.5731   -3.2452 O.co2     1 ATP        -0.8530
      8 O3B        -0.4003    6.0049   -2.4746 O.3       1 ATP        -0.8003
      9 PA          0.4610    3.9828   -0.0241 P.3       1 ATP         1.7415
     10 O1A         1.4152    5.1413   -0.0577 O.2       1 ATP        -0.8661
     11 O2A         1.0250    2.6353   -0.7201 O.3       1 ATP        -0.8077
     12 O3A        -0.9304    4.2474   -0.8055 O.3       1 ATP        -0.7685
     13 O5'         0.0171    3.5129    1.4593 O.3       1 ATP        -0.5590
     14 C5'        -0.8811    2.4285    1.6206 C.3       1 ATP         0.1960
     15 C4'        -0.1994    1.3333    2.4288 C.3       1 ATP         0.0976
     16 O4'        -1.1285    0.2356    2.5840 O.3       1 ATP        -0.3865
     17 C3'         1.0324    0.7610    1.7344 C.3       1 ATP         0.0901
     18 O3'         1.9175    0.2377    2.7247 O.3       1 ATP        -0.5889
     19 C2'         0.4468   -0.3802    0.9263 C.3       1 ATP         0.0574
     20 O2'         1.3993   -1.3703    0.5961 O.3       1 ATP        -0.5923
     21 C1'        -0.6159   -0.9100    1.8769 C.3       1 ATP         0.2452
     22 N9         -1.7127   -1.6108    1.2130 N.pl3     1 ATP        -0.1834
     23 C8         -2.8662   -1.0361    0.7388 C.ar      1 ATP         0.4338
     24 N7         -3.6774   -1.9166    0.1867 N.2       1 ATP        -0.6101
     25 C5         -3.0159   -3.1045    0.3122 C.ar      1 ATP         0.2154
     26 C6         -3.4377   -4.4169   -0.1199 C.ar      1 ATP         0.6130
     27 N6         -4.5720   -4.5691   -0.7080 N.2       1 ATP        -0.8165
     28 N1         -2.4600   -5.3463    0.2071 N.pl3     1 ATP        -0.8617
     29 C2         -1.2595   -5.0554    0.8515 C.ar      1 ATP         0.6151
     30 N3         -0.8555   -3.8803    1.2516 N.2       1 ATP        -0.5797
     31 C4         -1.7946   -2.9457    0.9448 C.ar      1 ATP         0.0328
     32 HOG3        1.6486    7.8688   -2.7231 H         1 ATP         0.4197
     33 HOA2        1.2711    2.6593   -1.6693 H         1 ATP         0.4550
     34 H5'1       -1.7775    2.7843    2.1389 H         1 ATP         0.0431
     35 H5'2       -1.1658    2.0534    0.6322 H         1 ATP         0.0431
     36 H4'         0.0402    1.7079    3.4342 H         1 ATP         0.1325
     37 H3'         1.5907    1.4859    1.1353 H         1 ATP         0.0782
     38 HO3'        2.6839   -0.1150    2.2479 H         1 ATP         0.4062
     39 H2'        -0.0017    0.0018    0.0005 H         1 ATP         0.0689
     40 HO2'        2.0953   -0.9375    0.0709 H         1 ATP         0.4089
     41 H1'        -0.1998   -1.6319    2.6178 H         1 ATP         0.1098
     42 H8         -3.0558    0.0252    0.8256 H         1 ATP         0.0929
     43 HN62       -4.7047   -5.5592   -0.9421 H         1 ATP         0.3678
     44 H2         -0.6372   -5.9505    1.0077 H         1 ATP         0.0383
     45 H45        -2.6338   -6.3155   -0.0469 H         1 ATP         0.4286
@<TRIPOS>BOND
     1    1    2 2
     2    1    3 1
     3    1    4 1
     4    1    8 1
     5    4   32 1
     6    5    6 2
     7    5    7 1
     8    5    8 1
     9    5   12 1
    10    9   10 2
    11    9   11 1
    12    9   12 1
    13    9   13 1
    14   11   33 1
    15   13   14 1
    16   14   15 1
    17   14   34 1
    18   14   35 1
    19   15   16 1
    20   15   17 1
    21   15   36 1
    22   16   21 1
    23   17   18 1
    24   17   19 1
    25   17   37 1
    26   18   38 1
    27   19   20 1
    28   19   21 1
    29   19   39 1
    30   20   40 1
    31   21   22 1
    32   21   41 1
    33   22   23 ar
    34   22   31 ar
    35   23   24 ar
    36   23   42 1
    37   24   25 ar
    38   25   26 ar
    39   25   31 ar
    40   26   27 2
    41   26   28 ar
    42   27   43 1
    43   28   29 ar
    44   28   45 1
    45   29   30 ar
    46   29   44 1
    47   30   31 ar
@<TRIPOS>SUBSTRUCTURE
     1 ATP         1 GROUP 0 A     ****
@<TRIPOS>MOLECULE
[[[3,4-dihydroxy-5-(6-imino-1~{H}-purin-9-yl)tetrahydrofuran-2-yl]methoxy-hydroxy-phosphoryl]oxy-oxido-phosphoryl] hydrogen phosphate
   45    47     1     0     0
SMALL
USER_CHARGES

@<TRIPOS>ATOM
      1 PG         -7.4065    3.1470   -0.0350 P.3       1 ATP         1.5414
      2 O1G        -7.7843    1.9482    0.8063 O.co2     1 ATP        -0.8562
      3 O2G        -7.7679    3.2122   -1.5021 O.co2     1 ATP        -0.8562
      4 O3G        -7.9688    4.4930    0.6985 O.3       1 ATP        -0.7907
      5 PB         -4.5262    2.5391   -0.3460 P.3       1 ATP         1.6574
      6 O1B        -4.5018    1.2565    0.4554 O.co2     1 ATP        -0.8530
      7 O2B        -4.4872    2.5149   -1.8578 O.co2     1 ATP        -0.8530
      8 O3B        -5.8088    3.4273    0.1310 O.3       1 ATP        -0.8003
      9 PA         -2.9690    4.0281    1.6835 P.3       1 ATP         1.7415
     10 O1A        -4.1648    4.3954    2.5134 O.2       1 ATP        -0.8661
     11 O2A        -1.9470    5.2523    1.4099 O.3       1 ATP        -0.8077
     12 O3A        -3.3299    3.5086    0.1947 O.3       1 ATP        -0.7685
     13 O5'        -2.0397    2.8622    2.3122 O.3       1 ATP        -0.5590
     14 C5'        -0.8811    2.4285    1.6206 C.3       1 ATP         0.1960
     15 C4'        -0.1994    1.3333    2.4288 C.3       1 ATP         0.0976
     16 O4'        -1.1285    0.2356    2.5840 O.3       1 ATP        -0.3865
     17 C3'         1.0324    0.7610    1.7344 C.3       1 ATP         0.0901
     18 O3'         1.9175    0.2377    2.7247 O.3       1 ATP        -0.5889
     19 C2'         0.4468   -0.3802    0.9263 C.3       1 ATP         0.0574
     20 O2'         1.3993   -1.3703    0.5961 O.3       1 ATP        -0.5923
     21 C1'        -0.6159   -0.9100    1.8769 C.3       1 ATP         0.2452
     22 N9         -1.7127   -1.6108    1.2130 N.pl3     1 ATP        -0.1834
     23 C8         -3.0370   -1.2489    1.2455 C.ar      1 ATP         0.4338
     24 N7         -3.8008   -2.0709    0.5534 N.2       1 ATP        -0.6101
     25 C5         -2.9295   -2.9976    0.0567 C.ar      1 ATP         0.2154
     26 C6         -3.2152   -4.1411   -0.7786 C.ar      1 ATP         0.6130
     27 N6         -4.4238   -4.3865   -1.1456 N.2       1 ATP        -0.8165
     28 N1         -2.0349   -4.8186   -1.0521 N.pl3     1 ATP        -0.8617
     29 C2         -0.7728   -4.4501   -0.5916 C.ar      1 ATP         0.6151
     30 N3         -0.4885   -3.4234    0.1630 N.2       1 ATP        -0.5797
     31 C4         -1.6274   -2.7377    0.4492 C.ar      1 ATP         0.0328
     32 HOG3       -7.8028    5.3608    0.2722 H         1 ATP         0.4197
     33 HOA2       -1.5253    5.6979    2.1752 H         1 ATP         0.4550
     34 H5'1       -1.1761    2.0499    0.6365 H         1 ATP         0.0431
     35 H5'2       -0.2073    3.2811    1.4874 H         1 ATP         0.0431
     36 H4'         0.0402    1.7079    3.4342 H         1 ATP         0.1325
     37 H3'         1.5907    1.4859    1.1353 H         1 ATP         0.0782
     38 HO3'        2.6839   -0.1150    2.2479 H         1 ATP         0.4062
     39 H2'        -0.0017    0.0018    0.0005 H         1 ATP         0.0689
     40 HO2'        2.0953   -0.9375    0.0709 H         1 ATP         0.4089
     41 H1'        -0.1998   -1.6319    2.6178 H         1 ATP         0.1098
     42 H8         -3.3806   -0.3795    1.7893 H         1 ATP         0.0929
     43 HN62       -4.4384   -5.2300   -1.7295 H         1 ATP         0.3678
     44 H2          0.0180   -5.1355   -0.9348 H         1 ATP         0.0383
     45 H45        -2.0977   -5.6477   -1.6374 H         1 ATP         0.4286
@<TRIPOS>BOND
     1    1    2 2
     2    1    3 1
     3    1    4 1
     4    1    8 1
     5    4   32 1
     6    5    6 2
     7    5    7 1
     8    5    8 1
     9    5   12 1
    10    9   10 2
    11    9   11 1
    12    9   12 1
    13    9   13 1
    14   11   33 1
    15   13   14 1
    16   14   15 1
    17   14   34 1
    18   14   35 1
    19   15   16 1
    20   15   17 1
    21   15   36 1
    22   16   21 1
    23   17   18 1
    24   17   19 1
    25   17   37 1
    26   18   38 1
    27   19   20 1
    28   19   21 1
    29   19   39 1
    30   20   40 1
    31   21   22 1
    32   21   41 1
    33   22   23 ar
    34   22   31 ar
    35   23   24 ar
    36   23   42 1
    37   24   25 ar
    38   25   26 ar
    39   25   31 ar
    40   26   27 2
    41   26   28 ar
    42   27   43 1
    43   28   29 ar
    44   28   45 1
    45   29   30 ar
    46   29   44 1
    47   30   31 ar
@<TRIPOS>SUBSTRUCTURE
     1 ATP         1 GROUP 0 A     ****
@<TRIPOS>MOLECULE
[[[3,4-dihydroxy-5-(6-imino-1~{H}-purin-9-yl)tetrahydrofuran-2-yl]methoxy-hydroxy-phosphoryl]oxy-oxido-phosphoryl] hydrogen phosphate
   45    47     1     0     0
SMALL
USER_CHARGES

@<TRIPOS>ATOM
      1 PG         -5.1059   -0.1532   -2.5642 P.3       1 ATP         1.5414
      2 O1G        -4.5924   -1.5753   -2.5260 O.co2     1 ATP        -0.8562
      3 O2G        -5.0169    0.6719   -3.8286 O.co2     1 ATP        -0.8562
      4 O3G        -6.6552   -0.1474   -2.0485 O.3       1 ATP        -0.7907
      5 PB         -4.7347    2.1972   -0.8036 P.3       1 ATP         1.6574
      6 O1B        -4.2936    3.1791   -1.8662 O.co2     1 ATP        -0.8530
      7 O2B        -6.1341    2.2437   -0.2314 O.co2     1 ATP        -0.8530
      8 O3B        -4.4362    0.6842   -1.3359 O.3       1 ATP        -0.8003
      9 PA         -3.3138    3.4214    1.4862 P.3       1 ATP         1.7415
     10 O1A        -4.4758    3.8483    2.3355 O.2       1 ATP        -0.8661
     11 O2A        -2.7042    4.5947    0.5537 O.3       1 ATP        -0.8077
     12 O3A        -3.6627    2.2507    0.4259 O.3       1 ATP        -0.7685
     13 O5'        -2.0397    2.8622    2.3122 O.3       1 ATP        -0.5590
     14 C5'        -0.8811    2.4285    1.6206 C.3       1 ATP         0.1960
     15 C4'        -0.1994    1.3333    2.4288 C.3       1 ATP         0.0976
     16 O4'        -1.1285    0.2356    2.5840 O.3       1 ATP        -0.3865
     17 C3'         1.0324    0.7610    1.7344 C.3       1 ATP         0.0901
     18 O3'         1.9175    0.2377    2.7247 O.3       1 ATP        -0.5889
     19 C2'         0.4468   -0.3802    0.9263 C.3       1 ATP         0.0574
     20 O2'         1.3993   -1.3703    0.5961 O.3       1 ATP        -0.5923
     21 C1'        -0.6159   -0.9100    1.8769 C.3       1 ATP         0.2452
     22 N9         -1.7127   -1.6108    1.2130 N.pl3     1 ATP        -0.1834
     23 C8         -1.5982   -2.7455    0.4481 C.ar      1 ATP         0.4338
     24 N7         -2.7593   -3.1533   -0.0249 N.2       1 ATP        -0.6101
     25 C5         -3.6547   -2.2420    0.4573 C.ar      1 ATP         0.2154
     26 C6         -5.0842   -2.1942    0.2543 C.ar      1 ATP         0.6130
     27 N6         -5.6648   -3.0919   -0.4618 N.2       1 ATP        -0.8165
     28 N1         -5.6087   -1.0978    0.9248 N.pl3     1 ATP        -0.8617
     29 C2         -4.8689   -0.1873    1.6760 C.ar      1 ATP         0.6151
     30 N3         -3.5787   -0.2081    1.8745 N.2       1 ATP        -0.5797
     31 C4         -3.0344   -1.2737    1.2284 C.ar      1 ATP         0.0328
     32 HOG3       -7.1328    0.7088   -2.0154 H         1 ATP         0.4197
     33 HOA2       -3.2856    5.0230   -0.1102 H         1 ATP         0.4550
     34 H5'1       -1.1761    2.0499    0.6365 H         1 ATP         0.0431
     35 H5'2       -0.2073    3.2811    1.4874 H         1 ATP         0.0431
     36 H4'         0.0402    1.7079    3.4342 H         1 ATP         0.1325
     37 H3'         1.5907    1.4859    1.1353 H         1 ATP         0.0782
     38 HO3'        2.6839   -0.1150    2.2479 H         1 ATP         0.4062
     39 H2'        -0.0017    0.0018    0.0005 H         1 ATP         0.0689
     40 HO2'        2.0953   -0.9375    0.0709 H         1 ATP         0.4089
     41 H1'        -0.1998   -1.6319    2.6178 H         1 ATP         0.1098
     42 H8         -0.6448   -3.2254    0.2735 H         1 ATP         0.0929
     43 HN62       -6.6723   -2.9015   -0.4966 H         1 ATP         0.3678
     44 H2         -5.4961    0.6026    2.1183 H         1 ATP         0.0383
     45 H45        -6.6130   -0.9504    0.8642 H         1 ATP         0.4286
@<TRIPOS>BOND
     1    1    2 2
     2    1    3 1
     3    1    4 1
     4    1    8 1
     5    4   32 1
     6    5    6 2
     7    5    7 1
     8    5    8 1
     9    5   12 1
    10    9   10 2
    11    9   11 1
    12    9   12 1
    13    9   13 1
    14   11   33 1
    15   13   14 1
    16   14   15 1
    17   14   34 1
    18   14   35 1
    19   15   16 1
    20   15   17 1
    21   15   36 1
    22   16   21 1
    23   17   18 1
    24   17   19 1
    25   17   37 1
    26   18   38 1
    27   19   20 1
    28   19   21 1
    29   19   39 1
    30   20   40 1
    31   21   22 1
    32   21   41 1
    33   22   23 ar
    34   22   31 ar
    35   23   24 ar
    36   23   42 1
    37   24   25 ar
    38   25   26 ar
    39   25   31 ar
    40   26   27 2
    41   26   28 ar
    42   27   43 1
    43   28   29 ar
    44   28   45 1
    45   29   30 ar
    46   29   44 1
    47   30   31 ar
@<TRIPOS>SUBSTRUCTURE
     1 ATP         1 GROUP 0 A     ****
@<TRIPOS>MOLECULE
[[[3,4-dihydroxy-5-(6-imino-1~{H}-purin-9-yl)tetrahydrofuran-2-yl]methoxy-hydroxy-phosphoryl]oxy-oxido-phosphoryl] hydrogen phosphate
   45    47     1     0     0
SMALL
USER_CHARGES

@<TRIPOS>ATOM
      1 PG          0.7195    2.8480    7.8887 P.3       1 ATP         1.5414
      2 O1G        -0.6180    3.0710    8.5589 O.co2     1 ATP        -0.8562
      3 O2G         1.9679    3.5340    8.3970 O.co2     1 ATP        -0.8562
      4 O3G         1.0023    1.2414    7.8177 O.3       1 ATP        -0.7907
      5 PB          0.2668    4.5335    5.4978 P.3       1 ATP         1.6574
      6 O1B        -1.1360    4.9889    5.8332 O.co2     1 ATP        -0.8530
      7 O2B         1.4505    5.4581    5.6757 O.co2     1 ATP        -0.8530
      8 O3B         0.5662    3.1401    6.2919 O.3       1 ATP        -0.8003
      9 PA          0.0493    4.7068    2.5510 P.3       1 ATP         1.7415
     10 O1A         1.0439    5.7943    2.2646 O.2       1 ATP        -0.8661
     11 O2A        -1.4849    5.2135    2.6372 O.3       1 ATP        -0.8077
     12 O3A         0.2724    3.9615    3.9692 O.3       1 ATP        -0.7685
     13 O5'         0.0171    3.5129    1.4593 O.3       1 ATP        -0.5590
     14 C5'        -0.8811    2.4285    1.6206 C.3       1 ATP         0.1960
     15 C4'        -0.1994    1.3333    2.4288 C.3       1 ATP         0.0976
     16 O4'        -1.1285    0.2356    2.5840 O.3       1 ATP        -0.3865
     17 C3'         1.0324    0.7610    1.7344 C.3       1 ATP         0.0901
     18 O3'         1.9175    0.2377    2.7247 O.3       1 ATP        -0.5889
     19 C2'         0.4468   -0.3802    0.9263 C.3       1 ATP         0.0574
     20 O2'         1.3993   -1.3703    0.5961 O.3       1 ATP        -0.5923
     21 C1'        -0.6159   -0.9100    1.8769 C.3       1 ATP         0.2452
     22 N9         -1.7127   -1.6108    1.2130 N.pl3     1 ATP        -0.1834
     23 C8         -1.7690   -2.9583    0.9549 C.ar      1 ATP         0.4338
     24 N7         -2.8827   -3.3076    0.3418 N.2       1 ATP        -0.6101
     25 C5         -3.5683   -2.1351    0.2017 C.ar      1 ATP         0.2154
     26 C6         -4.8617   -1.9185   -0.4044 C.ar      1 ATP         0.6130
     27 N6         -5.5166   -2.9094   -0.8993 N.2       1 ATP        -0.8165
     28 N1         -5.1837   -0.5701   -0.3344 N.pl3     1 ATP        -0.8617
     29 C2         -4.3821    0.4180    0.2330 C.ar      1 ATP         0.6151
     30 N3         -3.2117    0.2488    0.7860 N.2       1 ATP        -0.5797
     31 C4         -2.8672   -1.0657    0.7327 C.ar      1 ATP         0.0328
     32 HOG3        1.8378    0.9324    7.4068 H         1 ATP         0.4197
     33 HOA2       -1.7259    5.8827    3.3127 H         1 ATP         0.4550
     34 H5'1       -1.7775    2.7843    2.1389 H         1 ATP         0.0431
     35 H5'2       -1.1658    2.0534    0.6322 H         1 ATP         0.0431
     36 H4'         0.0402    1.7079    3.4342 H         1 ATP         0.1325
     37 H3'         1.5907    1.4859    1.1353 H         1 ATP         0.0782
     38 HO3'        2.6839   -0.1150    2.2479 H         1 ATP         0.4062
     39 H2'        -0.0017    0.0018    0.0005 H         1 ATP         0.0689
     40 HO2'        1.7495   -1.7243    1.4324 H         1 ATP         0.4089
     41 H1'        -0.1998   -1.6319    2.6178 H         1 ATP         0.1098
     42 H8         -0.9697   -3.6300    1.2371 H         1 ATP         0.0929
     43 HN62       -6.4060   -2.5723   -1.2840 H         1 ATP         0.3678
     44 H2         -4.8409    1.4176    0.1757 H         1 ATP         0.0383
     45 H45        -6.0768   -0.2826   -0.7263 H         1 ATP         0.4286
@<TRIPOS>BOND
     1    1    2 2
     2    1    3 1
     3    1    4 1
     4    1    8 1
     5    4   32 1
     6    5    6 2
     7    5    7 1
     8    5    8 1
     9    5   12 1
    10    9   10 2
    11    9   11 1
    12    9   12 1
    13    9   13 1
    14   11   33 1
    15   13   14 1
    16   14   15 1
    17   14   34 1
    18   14   35 1
    19   15   16 1
    20   15   17 1
    21   15   36 1
    22   16   21 1
    23   17   18 1
    24   17   19 1
    25   17   37 1
    26   18   38 1
    27   19   20 1
    28   19   21 1
    29   19   39 1
    30   20   40 1
    31   21   22 1
    32   21   41 1
    33   22   23 ar
    34   22   31 ar
    35   23   24 ar
    36   23   42 1
    37   24   25 ar
    38   25   26 ar
    39   25   31 ar
    40   26   27 2
    41   26   28 ar
    42   27   43 1
    43   28   29 ar
    44   28   45 1
    45   29   30 ar
    46   29   44 1
    47   30   31 ar
@<TRIPOS>SUBSTRUCTURE
     1 ATP         1 GROUP 0 A     ****
@<TRIPOS>MOLECULE
[[[3,4-dihydroxy-5-(6-imino-1~{H}-purin-9-yl)tetrahydrofuran-2-yl]methoxy-hydroxy-phosphoryl]oxy-oxido-phosphoryl] hydrogen phosphate
   45    47     1     0     0
SMALL
USER_CHARGES

@<TRIPOS>ATOM
      1 PG          0.7195    2.8480    7.8887 P.3       1 ATP         1.5414
      2 O1G         1.1643    1.4159    8.0851 O.co2     1 ATP        -0.8562
      3 O2G        -0.4960    3.3902    8.6072 O.co2     1 ATP        -0.8562
      4 O3G         1.9862    3.8312    8.1970 O.3       1 ATP        -0.7907
      5 PB          0.2668    4.5335    5.4978 P.3       1 ATP         1.6574
      6 O1B        -1.1360    4.9889    5.8332 O.co2     1 ATP        -0.8530
      7 O2B         1.4505    5.4581    5.6757 O.co2     1 ATP        -0.8530
      8 O3B         0.5662    3.1401    6.2919 O.3       1 ATP        -0.8003
      9 PA          0.0493    4.7068    2.5510 P.3       1 ATP         1.7415
     10 O1A         1.0439    5.7943    2.2646 O.2       1 ATP        -0.8661
     11 O2A        -1.4849    5.2135    2.6372 O.3       1 ATP        -0.8077
     12 O3A         0.2724    3.9615    3.9692 O.3       1 ATP        -0.7685
     13 O5'         0.0171    3.5129    1.4593 O.3       1 ATP        -0.5590
     14 C5'        -0.8811    2.4285    1.6206 C.3       1 ATP         0.1960
     15 C4'        -0.1994    1.3333    2.4288 C.3       1 ATP         0.0976
     16 O4'        -1.1285    0.2356    2.5840 O.3       1 ATP        -0.3865
     17 C3'         1.0324    0.7610    1.7344 C.3       1 ATP         0.0901
     18 O3'         1.9175    0.2377    2.7247 O.3       1 ATP        -0.5889
     19 C2'         0.4468   -0.3802    0.9263 C.3       1 ATP         0.0574
     20 O2'         1.3993   -1.3703    0.5961 O.3       1 ATP        -0.5923
     21 C1'        -0.6159   -0.9100    1.8769 C.3       1 ATP         0.2452
     22 N9         -1.7127   -1.6108    1.2130 N.pl3     1 ATP        -0.1834
     23 C8         -2.5485   -1.0808    0.2609 C.ar      1 ATP         0.4338
     24 N7         -3.4476   -1.9486   -0.1593 N.2       1 ATP        -0.6101
     25 C5         -3.1762   -3.0816    0.5530 C.ar      1 ATP         0.2154
     26 C6         -3.8510   -4.3579    0.5006 C.ar      1 ATP         0.6130
     27 N6         -4.8468   -4.5293   -0.2961 N.2       1 ATP        -0.8165
     28 N1         -3.2499   -5.2342    1.3937 N.pl3     1 ATP        -0.8617
     29 C2         -2.1646   -4.9275    2.2116 C.ar      1 ATP         0.6151
     30 N3         -1.5382   -3.7840    2.2778 N.2       1 ATP        -0.5797
     31 C4         -2.1054   -2.9018    1.4120 C.ar      1 ATP         0.0328
     32 HOG3        1.8565    4.7999    8.1125 H         1 ATP         0.4197
     33 HOA2       -1.7259    5.8827    3.3127 H         1 ATP         0.4550
     34 H5'1       -1.7775    2.7843    2.1389 H         1 ATP         0.0431
     35 H5'2       -1.1658    2.0534    0.6322 H         1 ATP         0.0431
     36 H4'         0.0402    1.7079    3.4342 H         1 ATP         0.1325
     37 H3'         1.5907    1.4859    1.1353 H         1 ATP         0.0782
     38 HO3'        2.1521    0.9800    3.3017 H         1 ATP         0.4062
     39 H2'        -0.0017    0.0018    0.0005 H         1 ATP         0.0689
     40 HO2'        1.7495   -1.7243    1.4324 H         1 ATP         0.4089
     41 H1'        -0.1998   -1.6319    2.6178 H         1 ATP         0.1098
     42 H8         -2.4515   -0.0599   -0.0829 H         1 ATP         0.0929
     43 HN62       -5.1990   -5.4882   -0.2005 H         1 ATP         0.3678
     44 H2         -1.8555   -5.7783    2.8388 H         1 ATP         0.0383
     45 H45        -3.6312   -6.1750    1.4526 H         1 ATP         0.4286
@<TRIPOS>BOND
     1    1    2 2
     2    1    3 1
     3    1    4 1
     4    1    8 1
     5    4   32 1
     6    5    6 2
     7    5    7 1
     8    5    8 1
     9    5   12 1
    10    9   10 2
    11    9   11 1
    12    9   12 1
    13    9   13 1
    14   11   33 1
    15   13   14 1
    16   14   15 1
    17   14   34 1
    18   14   35 1
    19   15   16 1
    20   15   17 1
    21   15   36 1
    22   16   21 1
    23   17   18 1
    24   17   19 1
    25   17   37 1
    26   18   38 1
    27   19   20 1
    28   19   21 1
    29   19   39 1
    30   20   40 1
    31   21   22 1
    32   21   41 1
    33   22   23 ar
    34   22   31 ar
    35   23   24 ar
    36   23   42 1
    37   24   25 ar
    38   25   26 ar
    39   25   31 ar
    40   26   27 2
    41   26   28 ar
    42   27   43 1
    43   28   29 ar
    44   28   45 1
    45   29   30 ar
    46   29   44 1
    47   30   31 ar
@<TRIPOS>SUBSTRUCTURE
     1 ATP         1 GROUP 0 A     ****
@<TRIPOS>MOLECULE
[[[3,4-dihydroxy-5-(6-imino-1~{H}-purin-9-yl)tetrahydrofuran-2-yl]methoxy-hydroxy-phosphoryl]oxy-oxido-phosphoryl] hydrogen phosphate
   45    47     1     0     0
SMALL
USER_CHARGES

@<TRIPOS>ATOM
      1 PG         -0.9001    6.5490    6.9243 P.3       1 ATP         1.5414
      2 O1G         0.1450    7.6406    6.9856 O.co2     1 ATP        -0.8562
      3 O2G        -1.2176    5.7072    8.1400 O.co2     1 ATP        -0.8562
      4 O3G        -2.2909    7.1939    6.3619 O.3       1 ATP        -0.7907
      5 PB          0.6884    4.5428    5.4364 P.3       1 ATP         1.6574
      6 O1B         1.9546    5.3566    5.2872 O.co2     1 ATP        -0.8530
      7 O2B         0.5962    3.4220    6.4479 O.co2     1 ATP        -0.8530
      8 O3B        -0.5627    5.5636    5.6698 O.3       1 ATP        -0.8003
      9 PA          0.0493    4.7068    2.5510 P.3       1 ATP         1.7415
     10 O1A         1.0439    5.7943    2.2646 O.2       1 ATP        -0.8661
     11 O2A        -1.4849    5.2135    2.6372 O.3       1 ATP        -0.8077
     12 O3A         0.2724    3.9615    3.9692 O.3       1 ATP        -0.7685
     13 O5'         0.0171    3.5129    1.4593 O.3       1 ATP        -0.5590
     14 C5'        -0.8811    2.4285    1.6206 C.3       1 ATP         0.1960
     15 C4'        -0.1994    1.3333    2.4288 C.3       1 ATP         0.0976
     16 O4'        -1.1285    0.2356    2.5840 O.3       1 ATP        -0.3865
     17 C3'         1.0324    0.7610    1.7344 C.3       1 ATP         0.0901
     18 O3'         1.9175    0.2377    2.7247 O.3       1 ATP        -0.5889
     19 C2'         0.4468   -0.3802    0.9263 C.3       1 ATP         0.0574
     20 O2'         1.3993   -1.3703    0.5961 O.3       1 ATP        -0.5923
     21 C1'        -0.6159   -0.9100    1.8769 C.3       1 ATP         0.2452
     22 N9         -1.7127   -1.6108    1.2130 N.pl3     1 ATP        -0.1834
     23 C8         -2.5485   -1.0808    0.2609 C.ar      1 ATP         0.4338
     24 N7         -3.4476   -1.9486   -0.1593 N.2       1 ATP        -0.6101
     25 C5         -3.1762   -3.0816    0.5530 C.ar      1 ATP         0.2154
     26 C6         -3.8510   -4.3579    0.5006 C.ar      1 ATP         0.6130
     27 N6         -4.8468   -4.5293   -0.2961 N.2       1 ATP        -0.8165
     28 N1         -3.2499   -5.2342    1.3937 N.pl3     1 ATP        -0.8617
     29 C2         -2.1646   -4.9275    2.2116 C.ar      1 ATP         0.6151
     30 N3         -1.5382   -3.7840    2.2778 N.2       1 ATP        -0.5797
     31 C4         -2.1054   -2.9018    1.4120 C.ar      1 ATP         0.0328
     32 HOG3       -3.0711    6.6073    6.2637 H         1 ATP         0.4197
     33 HOA2       -1.7259    5.8827    3.3127 H         1 ATP         0.4550
     34 H5'1       -1.7775    2.7843    2.1389 H         1 ATP         0.0431
     35 H5'2       -1.1658    2.0534    0.6322 H         1 ATP         0.0431
     36 H4'         0.0402    1.7079    3.4342 H         1 ATP         0.1325
     37 H3'         1.5907    1.4859    1.1353 H         1 ATP         0.0782
     38 HO3'        2.1521    0.9800    3.3017 H         1 ATP         0.4062
     39 H2'        -0.0017    0.0018    0.0005 H         1 ATP         0.0689
     40 HO2'        2.0953   -0.9375    0.0709 H         1 ATP         0.4089
     41 H1'        -0.1998   -1.6319    2.6178 H         1 ATP         0.1098
     42 H8         -2.4515   -0.0599   -0.0829 H         1 ATP         0.0929
     43 HN62       -5.1990   -5.4882   -0.2005 H         1 ATP         0.3678
     44 H2         -1.8555   -5.7783    2.8388 H         1 ATP         0.0383
     45 H45        -3.6312   -6.1750    1.4526 H         1 ATP         0.4286
@<TRIPOS>BOND
     1    1    2 2
     2    1    3 1
     3    1    4 1
     4    1    8 1
     5    4   32 1
     6    5    6 2
     7    5    7 1
     8    5    8 1
     9    5   12 1
    10    9   10 2
    11    9   11 1
    12    9   12 1
    13    9   13 1
    14   11   33 1
    15   13   14 1
    16   14   15 1
    17   14   34 1
    18   14   35 1
    19   15   16 1
    20   15   17 1
    21   15   36 1
    22   16   21 1
    23   17   18 1
    24   17   19 1
    25   17   37 1
    26   18   38 1
    27   19   20 1
    28   19   21 1
    29   19   39 1
    30   20   40 1
    31   21   22 1
    32   21   41 1
    33   22   23 ar
    34   22   31 ar
    35   23   24 ar
    36   23   42 1
    37   24   25 ar
    38   25   26 ar
    39   25   31 ar
    40   26   27 2
    41   26   28 ar
    42   27   43 1
    43   28   29 ar
    44   28   45 1
    45   29   30 ar
    46   29   44 1
    47   30   31 ar
@<TRIPOS>SUBSTRUCTURE
     1 ATP         1 GROUP 0 A     ****
@<TRIPOS>MOLECULE
[[[3,4-dihydroxy-5-(6-imino-1~{H}-purin-9-yl)tetrahydrofuran-2-yl]methoxy-hydroxy-phosphoryl]oxy-oxido-phosphoryl] hydrogen phosphate
   45    47     1     0     0
SMALL
USER_CHARGES

@<TRIPOS>ATOM
      1 PG         -2.5579    3.1104    7.6425 P.3       1 ATP         1.5414
      2 O1G        -2.5634    4.3484    8.5114 O.co2     1 ATP        -0.8562
      3 O2G        -1.6421    1.9473    7.9521 O.co2     1 ATP        -0.8562
      4 O3G        -4.0875    2.5506    7.5281 O.3       1 ATP        -0.7907
      5 PB         -1.0509    4.2238    5.3509 P.3       1 ATP         1.6574
      6 O1B        -0.8493    5.6189    5.8992 O.co2     1 ATP        -0.8530
      7 O2B         0.0784    3.2176    5.3441 O.co2     1 ATP        -0.8530
      8 O3B        -2.3436    3.5557    6.0887 O.3       1 ATP        -0.8003
      9 PA         -1.0028    4.9145    2.4731 P.3       1 ATP         1.7415
     10 O1A        -0.1757    6.1539    2.6562 O.2       1 ATP        -0.8661
     11 O2A        -2.2844    5.1064    1.5043 O.3       1 ATP        -0.8077
     12 O3A        -1.6550    4.3452    3.8396 O.3       1 ATP        -0.7685
     13 O5'        -0.2068    3.6554    1.8412 O.3       1 ATP        -0.5590
     14 C5'        -0.8811    2.4285    1.6206 C.3       1 ATP         0.1960
     15 C4'        -0.1994    1.3333    2.4288 C.3       1 ATP         0.0976
     16 O4'        -1.1285    0.2356    2.5840 O.3       1 ATP        -0.3865
     17 C3'         1.0324    0.7610    1.7344 C.3       1 ATP         0.0901
     18 O3'         1.9175    0.2377    2.7247 O.3       1 ATP        -0.5889
     19 C2'         0.4468   -0.3802    0.9263 C.3       1 ATP         0.0574
     20 O2'         1.3993   -1.3703    0.5961 O.3       1 ATP        -0.5923
     21 C1'        -0.6159   -0.9100    1.8769 C.3       1 ATP         0.2452
     22 N9         -1.7127   -1.6108    1.2130 N.pl3     1 ATP        -0.1834
     23 C8         -2.5485   -1.0808    0.2609 C.ar      1 ATP         0.4338
     24 N7         -3.4476   -1.9486   -0.1593 N.2       1 ATP        -0.6101
     25 C5         -3.1762   -3.0816    0.5530 C.ar      1 ATP         0.2154
     26 C6         -3.8510   -4.3579    0.5006 C.ar      1 ATP         0.6130
     27 N6         -4.8468   -4.5293   -0.2961 N.2       1 ATP        -0.8165
     28 N1         -3.2499   -5.2342    1.3937 N.pl3     1 ATP        -0.8617
     29 C2         -2.1646   -4.9275    2.2116 C.ar      1 ATP         0.6151
     30 N3         -1.5382   -3.7840    2.2778 N.2       1 ATP        -0.5797
     31 C4         -2.1054   -2.9018    1.4120 C.ar      1 ATP         0.0328
     32 HOG3       -4.2508    1.7448    6.9929 H         1 ATP         0.4197
     33 HOA2       -2.1388    5.3842    0.5749 H         1 ATP         0.4550
     34 H5'1       -1.9259    2.5372    1.9293 H         1 ATP         0.0431
     35 H5'2       -0.8477    2.1923    0.5521 H         1 ATP         0.0431
     36 H4'         0.0402    1.7079    3.4342 H         1 ATP         0.1325
     37 H3'         1.5907    1.4859    1.1353 H         1 ATP         0.0782
     38 HO3'        2.1521    0.9800    3.3017 H         1 ATP         0.4062
     39 H2'        -0.0017    0.0018    0.0005 H         1 ATP         0.0689
     40 HO2'        0.9369   -2.0558    0.0825 H         1 ATP         0.4089
     41 H1'        -0.1998   -1.6319    2.6178 H         1 ATP         0.1098
     42 H8         -2.4515   -0.0599   -0.0829 H         1 ATP         0.0929
     43 HN62       -5.1990   -5.4882   -0.2005 H         1 ATP         0.3678
     44 H2         -1.8555   -5.7783    2.8388 H         1 ATP         0.0383
     45 H45        -3.6312   -6.1750    1.4526 H         1 ATP         0.4286
@<TRIPOS>BOND
     1    1    2 2
     2    1    3 1
     3    1    4 1
     4    1    8 1
     5    4   32 1
     6    5    6 2
     7    5    7 1
     8    5    8 1
     9    5   12 1
    10    9   10 2
    11    9   11 1
    12    9   12 1
    13    9   13 1
    14   11   33 1
    15   13   14 1
    16   14   15 1
    17   14   34 1
    18   14   35 1
    19   15   16 1
    20   15   17 1
    21   15   36 1
    22   16   21 1
    23   17   18 1
    24   17   19 1
    25   17   37 1
    26   18   38 1
    27   19   20 1
    28   19   21 1
    29   19   39 1
    30   20   40 1
    31   21   22 1
    32   21   41 1
    33   22   23 ar
    34   22   31 ar
    35   23   24 ar
    36   23   42 1
    37   24   25 ar
    38   25   26 ar
    39   25   31 ar
    40   26   27 2
    41   26   28 ar
    42   27   43 1
    43   28   29 ar
    44   28   45 1
    45   29   30 ar
    46   29   44 1
    47   30   31 ar
@<TRIPOS>SUBSTRUCTURE
     1 ATP         1 GROUP 0 A     ****
@<TRIPOS>MOLECULE
[[[3,4-dihydroxy-5-(6-imino-1~{H}-purin-9-yl)tetrahydrofuran-2-yl]methoxy-hydroxy-phosphoryl]oxy-oxido-phosphoryl] hydrogen phosphate
   45    47     1     0     0
SMALL
USER_CHARGES

@<TRIPOS>ATOM
      1 PG         -3.1156    3.6359   -2.5134 P.3       1 ATP         1.5414
      2 O1G        -4.3037    3.0821   -1.7589 O.co2     1 ATP        -0.8562
      3 O2G        -1.8571    2.8164   -2.6919 O.co2     1 ATP        -0.8562
      4 O3G        -3.6221    4.1363   -3.9828 O.3       1 ATP        -0.7907
      5 PB         -2.1180    5.4727   -0.4174 P.3       1 ATP         1.6574
      6 O1B        -1.7694    6.9445   -0.4099 O.co2     1 ATP        -0.8530
      7 O2B        -3.0138    4.8780    0.6464 O.co2     1 ATP        -0.8530
      8 O3B        -2.7191    5.0870   -1.8842 O.3       1 ATP        -0.8003
      9 PA          0.4650    4.4450    0.5988 P.3       1 ATP         1.7415
     10 O1A         1.1480    5.7304    0.9659 O.2       1 ATP        -0.8661
     11 O2A         1.4339    3.3508   -0.0954 O.3       1 ATP        -0.8077
     12 O3A        -0.7315    4.6139   -0.4766 O.3       1 ATP        -0.7685
     13 O5'        -0.2068    3.6554    1.8412 O.3       1 ATP        -0.5590
     14 C5'        -0.8811    2.4285    1.6206 C.3       1 ATP         0.1960
     15 C4'        -0.1994    1.3333    2.4288 C.3       1 ATP         0.0976
     16 O4'        -1.1285    0.2356    2.5840 O.3       1 ATP        -0.3865
     17 C3'         1.0324    0.7610    1.7344 C.3       1 ATP         0.0901
     18 O3'         1.9175    0.2377    2.7247 O.3       1 ATP        -0.5889
     19 C2'         0.4468   -0.3802    0.9263 C.3       1 ATP         0.0574
     20 O2'         1.3993   -1.3703    0.5961 O.3       1 ATP        -0.5923
     21 C1'        -0.6159   -0.9100    1.8769 C.3       1 ATP         0.2452
     22 N9         -1.7127   -1.6108    1.2130 N.pl3     1 ATP        -0.1834
     23 C8         -1.7690   -2.9583    0.9549 C.ar      1 ATP         0.4338
     24 N7         -2.8827   -3.3076    0.3418 N.2       1 ATP        -0.6101
     25 C5         -3.5683   -2.1351    0.2017 C.ar      1 ATP         0.2154
     26 C6         -4.8617   -1.9185   -0.4044 C.ar      1 ATP         0.6130
     27 N6         -5.5166   -2.9094   -0.8993 N.2       1 ATP        -0.8165
     28 N1         -5.1837   -0.5701   -0.3344 N.pl3     1 ATP        -0.8617
     29 C2         -4.3821    0.4180    0.2330 C.ar      1 ATP         0.6151
     30 N3         -3.2117    0.2488    0.7860 N.2       1 ATP        -0.5797
     31 C4         -2.8672   -1.0657    0.7327 C.ar      1 ATP         0.0328
     32 HOG3       -2.9624    4.5240   -4.5968 H         1 ATP         0.4197
     33 HOA2        1.8833    3.5812   -0.9363 H         1 ATP         0.4550
     34 H5'1       -1.9259    2.5372    1.9293 H         1 ATP         0.0431
     35 H5'2       -0.8477    2.1923    0.5521 H         1 ATP         0.0431
     36 H4'         0.0402    1.7079    3.4342 H         1 ATP         0.1325
     37 H3'         1.5907    1.4859    1.1353 H         1 ATP         0.0782
     38 HO3'        2.6839   -0.1150    2.2479 H         1 ATP         0.4062
     39 H2'        -0.0017    0.0018    0.0005 H         1 ATP         0.0689
     40 HO2'        2.0953   -0.9375    0.0709 H         1 ATP         0.4089
     41 H1'        -0.1998   -1.6319    2.6178 H         1 ATP         0.1098
     42 H8         -0.9697   -3.6300    1.2371 H         1 ATP         0.0929
     43 HN62       -6.4060   -2.5723   -1.2840 H         1 ATP         0.3678
     44 H2         -4.8409    1.4176    0.1757 H         1 ATP         0.0383
     45 H45        -6.0768   -0.2826   -0.7263 H         1 ATP         0.4286
@<TRIPOS>BOND
     1    1    2 2
     2    1    3 1
     3    1    4 1
     4    1    8 1
     5    4   32 1
     6    5    6 2
     7    5    7 1
     8    5    8 1
     9    5   12 1
    10    9   10 2
    11    9   11 1
    12    9   12 1
    13    9   13 1
    14   11   33 1
    15   13   14 1
    16   14   15 1
    17   14   34 1
    18   14   35 1
    19   15   16 1
    20   15   17 1
    21   15   36 1
    22   16   21 1
    23   17   18 1
    24   17   19 1
    25   17   37 1
    26   18   38 1
    27   19   20 1
    28   19   21 1
    29   19   39 1
    30   20   40 1
    31   21   22 1
    32   21   41 1
    33   22   23 ar
    34   22   31 ar
    35   23   24 ar
    36   23   42 1
    37   24   25 ar
    38   25   26 ar
    39   25   31 ar
    40   26   27 2
    41   26   28 ar
    42   27   43 1
    43   28   29 ar
    44   28   45 1
    45   29   30 ar
    46   29   44 1
    47   30   31 ar
@<TRIPOS>SUBSTRUCTURE
     1 ATP         1 GROUP 0 A     ****
@<TRIPOS>MOLECULE
[[[3,4-dihydroxy-5-(6-imino-1~{H}-purin-9-yl)tetrahydrofuran-2-yl]methoxy-hydroxy-phosphoryl]oxy-oxido-phosphoryl] hydrogen phosphate
   45    47     1     0     0
SMALL
USER_CHARGES

@<TRIPOS>ATOM
      1 PG         -0.4796    2.8642   -4.6377 P.3       1 ATP         1.5414
      2 O1G         0.4524    3.8264   -5.3399 O.co2     1 ATP        -0.8562
      3 O2G        -1.8695    2.5985   -5.1715 O.co2     1 ATP        -0.8562
      4 O3G         0.2896    1.4350   -4.4586 O.3       1 ATP        -0.7907
      5 PB         -1.2354    4.6074   -2.3679 P.3       1 ATP         1.6574
      6 O1B        -0.4055    5.8121   -2.7521 O.co2     1 ATP        -0.8530
      7 O2B        -2.7316    4.5885   -2.5884 O.co2     1 ATP        -0.8530
      8 O3B        -0.5860    3.2833   -3.0655 O.3       1 ATP        -0.8003
      9 PA          0.4610    3.9828   -0.0241 P.3       1 ATP         1.7415
     10 O1A         1.4152    5.1413   -0.0577 O.2       1 ATP        -0.8661
     11 O2A         1.0250    2.6353   -0.7201 O.3       1 ATP        -0.8077
     12 O3A        -0.9304    4.2474   -0.8055 O.3       1 ATP        -0.7685
     13 O5'         0.0171    3.5129    1.4593 O.3       1 ATP        -0.5590
     14 C5'        -0.8811    2.4285    1.6206 C.3       1 ATP         0.1960
     15 C4'        -0.1994    1.3333    2.4288 C.3       1 ATP         0.0976
     16 O4'        -1.1285    0.2356    2.5840 O.3       1 ATP        -0.3865
     17 C3'         1.0324    0.7610    1.7344 C.3       1 ATP         0.0901
     18 O3'         1.9175    0.2377    2.7247 O.3       1 ATP        -0.5889
     19 C2'         0.4468   -0.3802    0.9263 C.3       1 ATP         0.0574
     20 O2'         1.3993   -1.3703    0.5961 O.3       1 ATP        -0.5923
     21 C1'        -0.6159   -0.9100    1.8769 C.3       1 ATP         0.2452
     22 N9         -1.7127   -1.6108    1.2130 N.pl3     1 ATP        -0.1834
     23 C8         -1.7690   -2.9583    0.9549 C.ar      1 ATP         0.4338
     24 N7         -2.8827   -3.3076    0.3418 N.2       1 ATP        -0.6101
     25 C5         -3.5683   -2.1351    0.2017 C.ar      1 ATP         0.2154
     26 C6         -4.8617   -1.9185   -0.4044 C.ar      1 ATP         0.6130
     27 N6         -5.5166   -2.9094   -0.8993 N.2       1 ATP        -0.8165
     28 N1         -5.1837   -0.5701   -0.3344 N.pl3     1 ATP        -0.8617
     29 C2         -4.3821    0.4180    0.2330 C.ar      1 ATP         0.6151
     30 N3         -3.2117    0.2488    0.7860 N.2       1 ATP        -0.5797
     31 C4         -2.8672   -1.0657    0.7327 C.ar      1 ATP         0.0328
     32 HOG3       -0.1874    0.7005   -4.0165 H         1 ATP         0.4197
     33 HOA2        1.2711    2.6593   -1.6693 H         1 ATP         0.4550
     34 H5'1       -1.7775    2.7843    2.1389 H         1 ATP         0.0431
     35 H5'2       -1.1658    2.0534    0.6322 H         1 ATP         0.0431
     36 H4'         0.0402    1.7079    3.4342 H         1 ATP         0.1325
     37 H3'         1.5907    1.4859    1.1353 H         1 ATP         0.0782
     38 HO3'        2.6839   -0.1150    2.2479 H         1 ATP         0.4062
     39 H2'        -0.0017    0.0018    0.0005 H         1 ATP         0.0689
     40 HO2'        2.0953   -0.9375    0.0709 H         1 ATP         0.4089
     41 H1'        -0.1998   -1.6319    2.6178 H         1 ATP         0.1098
     42 H8         -0.9697   -3.6300    1.2371 H         1 ATP         0.0929
     43 HN62       -6.4060   -2.5723   -1.2840 H         1 ATP         0.3678
     44 H2         -4.8409    1.4176    0.1757 H         1 ATP         0.0383
     45 H45        -6.0768   -0.2826   -0.7263 H         1 ATP         0.4286
@<TRIPOS>BOND
     1    1    2 2
     2    1    3 1
     3    1    4 1
     4    1    8 1
     5    4   32 1
     6    5    6 2
     7    5    7 1
     8    5    8 1
     9    5   12 1
    10    9   10 2
    11    9   11 1
    12    9   12 1
    13    9   13 1
    14   11   33 1
    15   13   14 1
    16   14   15 1
    17   14   34 1
    18   14   35 1
    19   15   16 1
    20   15   17 1
    21   15   36 1
    22   16   21 1
    23   17   18 1
    24   17   19 1
    25   17   37 1
    26   18   38 1
    27   19   20 1
    28   19   21 1
    29   19   39 1
    30   20   40 1
    31   21   22 1
    32   21   41 1
    33   22   23 ar
    34   22   31 ar
    35   23   24 ar
    36   23   42 1
    37   24   25 ar
    38   25   26 ar
    39   25   31 ar
    40   26   27 2
    41   26   28 ar
    42   27   43 1
    43   28   29 ar
    44   28   45 1
    45   29   30 ar
    46   29   44 1
    47   30   31 ar
@<TRIPOS>SUBSTRUCTURE
     1 ATP         1 GROUP 0 A     ****
@<TRIPOS>MOLECULE
[[[3,4-dihydroxy-5-(6-imino-1~{H}-purin-9-yl)tetrahydrofuran-2-yl]methoxy-hydroxy-phosphoryl]oxy-oxido-phosphoryl] hydrogen phosphate
   45    47     1     0     0
SMALL
USER_CHARGES

@<TRIPOS>ATOM
      1 PG         -0.3176    8.5353    0.2313 P.3       1 ATP         1.5414
      2 O1G        -0.9418    9.7410    0.8978 O.co2     1 ATP        -0.8562
      3 O2G        -0.6661    8.1672   -1.1936 O.co2     1 ATP        -0.8562
      4 O3G         1.3060    8.6579    0.3535 O.3       1 ATP        -0.7907
      5 PB         -1.9046    6.4433    1.5979 P.3       1 ATP         1.6574
      6 O1B        -2.7481    7.3579    2.4580 O.co2     1 ATP        -0.8530
      7 O2B        -2.4784    5.7861    0.3624 O.co2     1 ATP        -0.8530
      8 O3B        -0.5368    7.2311    1.1851 O.3       1 ATP        -0.8003
      9 PA         -1.9403    4.0773    3.3760 P.3       1 ATP         1.7415
     10 O1A        -3.2371    4.4398    4.0398 O.2       1 ATP        -0.8661
     11 O2A        -0.7734    3.6204    4.3995 O.3       1 ATP        -0.8077
     12 O3A        -1.2556    5.2898    2.5529 O.3       1 ATP        -0.7685
     13 O5'        -2.0397    2.8622    2.3122 O.3       1 ATP        -0.5590
     14 C5'        -0.8811    2.4285    1.6206 C.3       1 ATP         0.1960
     15 C4'        -0.1994    1.3333    2.4288 C.3       1 ATP         0.0976
     16 O4'        -1.1285    0.2356    2.5840 O.3       1 ATP        -0.3865
     17 C3'         1.0324    0.7610    1.7344 C.3       1 ATP         0.0901
     18 O3'         1.9175    0.2377    2.7247 O.3       1 ATP        -0.5889
     19 C2'         0.4468   -0.3802    0.9263 C.3       1 ATP         0.0574
     20 O2'         1.3993   -1.3703    0.5961 O.3       1 ATP        -0.5923
     21 C1'        -0.6159   -0.9100    1.8769 C.3       1 ATP         0.2452
     22 N9         -1.7127   -1.6108    1.2130 N.pl3     1 ATP        -0.1834
     23 C8         -1.7690   -2.9583    0.9549 C.ar      1 ATP         0.4338
     24 N7         -2.8827   -3.3076    0.3418 N.2       1 ATP        -0.6101
     25 C5         -3.5683   -2.1351    0.2017 C.ar      1 ATP         0.2154
     26 C6         -4.8617   -1.9185   -0.4044 C.ar      1 ATP         0.6130
     27 N6         -5.5166   -2.9094   -0.8993 N.2       1 ATP        -0.8165
     28 N1         -5.1837   -0.5701   -0.3344 N.pl3     1 ATP        -0.8617
     29 C2         -4.3821    0.4180    0.2330 C.ar      1 ATP         0.6151
     30 N3         -3.2117    0.2488    0.7860 N.2       1 ATP        -0.5797
     31 C4         -2.8672   -1.0657    0.7327 C.ar      1 ATP         0.0328
     32 HOG3        1.8583    7.9458   -0.0341 H         1 ATP         0.4197
     33 HOA2       -0.4720    4.2516    5.0872 H         1 ATP         0.4550
     34 H5'1       -1.1761    2.0499    0.6365 H         1 ATP         0.0431
     35 H5'2       -0.2073    3.2811    1.4874 H         1 ATP         0.0431
     36 H4'         0.0402    1.7079    3.4342 H         1 ATP         0.1325
     37 H3'         1.5907    1.4859    1.1353 H         1 ATP         0.0782
     38 HO3'        2.1521    0.9800    3.3017 H         1 ATP         0.4062
     39 H2'        -0.0017    0.0018    0.0005 H         1 ATP         0.0689
     40 HO2'        2.0953   -0.9375    0.0709 H         1 ATP         0.4089
     41 H1'        -0.1998   -1.6319    2.6178 H         1 ATP         0.1098
     42 H8         -0.9697   -3.6300    1.2371 H         1 ATP         0.0929
     43 HN62       -6.4060   -2.5723   -1.2840 H         1 ATP         0.3678
     44 H2         -4.8409    1.4176    0.1757 H         1 ATP         0.0383
     45 H45        -6.0768   -0.2826   -0.7263 H         1 ATP         0.4286
@<TRIPOS>BOND
     1    1    2 2
     2    1    3 1
     3    1    4 1
     4    1    8 1
     5    4   32 1
     6    5    6 2
     7    5    7 1
     8    5    8 1
     9    5   12 1
    10    9   10 2
    11    9   11 1
    12    9   12 1
    13    9   13 1
    14   11   33 1
    15   13   14 1
    16   14   15 1
    17   14   34 1
    18   14   35 1
    19   15   16 1
    20   15   17 1
    21   15   36 1
    22   16   21 1
    23   17   18 1
    24   17   19 1
    25   17   37 1
    26   18   38 1
    27   19   20 1
    28   19   21 1
    29   19   39 1
    30   20   40 1
    31   21   22 1
    32   21   41 1
    33   22   23 ar
    34   22   31 ar
    35   23   24 ar
    36   23   42 1
    37   24   25 ar
    38   25   26 ar
    39   25   31 ar
    40   26   27 2
    41   26   28 ar
    42   27   43 1
    43   28   29 ar
    44   28   45 1
    45   29   30 ar
    46   29   44 1
    47   30   31 ar
@<TRIPOS>SUBSTRUCTURE
     1 ATP         1 GROUP 0 A     ****
@<TRIPOS>MOLECULE
[[[3,4-dihydroxy-5-(6-imino-1~{H}-purin-9-yl)tetrahydrofuran-2-yl]methoxy-hydroxy-phosphoryl]oxy-oxido-phosphoryl] hydrogen phosphate
   45    47     1     0     0
SMALL
USER_CHARGES

@<TRIPOS>ATOM
      1 PG          1.1187    5.8725    4.4694 P.3       1 ATP         1.5414
      2 O1G         1.4946    7.2518    3.9755 O.co2     1 ATP        -0.8562
      3 O2G         1.0086    5.5798    5.9492 O.co2     1 ATP        -0.8562
      4 O3G        -0.2753    5.4250    3.7466 O.3       1 ATP        -0.7907
      5 PB          3.7148    4.5385    3.9768 P.3       1 ATP         1.6574
      6 O1B         4.4519    5.7317    3.4106 O.co2     1 ATP        -0.8530
      7 O2B         3.9690    4.0635    5.3902 O.co2     1 ATP        -0.8530
      8 O3B         2.1124    4.7763    3.7841 O.3       1 ATP        -0.8003
      9 PA          5.2238    2.4255    2.5558 P.3       1 ATP         1.7415
     10 O1A         5.8834    1.7323    3.7126 O.2       1 ATP        -0.8661
     11 O2A         6.1596    3.5154    1.8113 O.3       1 ATP        -0.8077
     12 O3A         3.9098    3.2795    2.9568 O.3       1 ATP        -0.7685
     13 O5'         4.7296    1.4429    1.3689 O.3       1 ATP        -0.5590
     14 C5'         4.0922    1.9801    0.2227 C.3       1 ATP         0.1960
     15 C4'         2.5944    2.0310    0.4653 C.3       1 ATP         0.0976
     16 O4'         1.9327    2.5740   -0.6889 O.3       1 ATP        -0.3865
     17 C3'         1.9685    0.6634    0.6767 C.3       1 ATP         0.0901
     18 O3'         2.1425    0.1975    1.9977 O.3       1 ATP        -0.5889
     19 C2'         0.5176    0.9128    0.3099 C.3       1 ATP         0.0574
     20 O2'        -0.2103    1.4454    1.4152 O.3       1 ATP        -0.5923
     21 C1'         0.6219    1.9765   -0.7844 C.3       1 ATP         0.2452
     22 N9          0.4237    1.4496   -2.1357 N.pl3     1 ATP        -0.1834
     23 C8          1.4069    0.9710   -2.9662 C.ar      1 ATP         0.4338
     24 N7          0.9316    0.5623   -4.1260 N.2       1 ATP        -0.6101
     25 C5         -0.4120    0.7884   -4.0344 C.ar      1 ATP         0.2154
     26 C6         -1.4353    0.5283   -5.0204 C.ar      1 ATP         0.6130
     27 N6         -1.1199    0.0176   -6.1586 N.2       1 ATP        -0.8165
     28 N1         -2.6704    0.9095   -4.5147 N.pl3     1 ATP        -0.8617
     29 C2         -2.8863    1.4571   -3.2520 C.ar      1 ATP         0.6151
     30 N3         -1.9805    1.7017   -2.3442 N.2       1 ATP        -0.5797
     31 C4         -0.7561    1.3381   -2.8112 C.ar      1 ATP         0.0328
     32 HOG3       -0.6532    4.5465    3.9650 H         1 ATP         0.4197
     33 HOA2        7.0031    3.2192    1.4075 H         1 ATP         0.4550
     34 H5'1        4.4838    2.9857    0.0375 H         1 ATP         0.0431
     35 H5'2        4.3186    1.3449   -0.6398 H         1 ATP         0.0431
     36 H4'         2.3752    2.7029    1.3156 H         1 ATP         0.1325
     37 H3'         2.4336   -0.1217   -0.0016 H         1 ATP         0.0782
     38 HO3'        3.0987    0.1465    2.1461 H         1 ATP         0.4062
     39 H2'         0.0316    0.0155   -0.0339 H         1 ATP         0.0689
     40 HO2'       -0.1608    0.7921    2.1351 H         1 ATP         0.4089
     41 H1'        -0.1474    2.7798   -0.6651 H         1 ATP         0.1098
     42 H8          2.4466    0.9468   -2.6694 H         1 ATP         0.0929
     43 HN62       -1.9661   -0.0965   -6.7275 H         1 ATP         0.3678
     44 H2         -3.9481    1.6825   -3.0660 H         1 ATP         0.0383
     45 H45        -3.4814    0.7753   -5.1133 H         1 ATP         0.4286
@<TRIPOS>BOND
     1    1    2 2
     2    1    3 1
     3    1    4 1
     4    1    8 1
     5    4   32 1
     6    5    6 2
     7    5    7 1
     8    5    8 1
     9    5   12 1
    10    9   10 2
    11    9   11 1
    12    9   12 1
    13    9   13 1
    14   11   33 1
    15   13   14 1
    16   14   15 1
    17   14   34 1
    18   14   35 1
    19   15   16 1
    20   15   17 1
    21   15   36 1
    22   16   21 1
    23   17   18 1
    24   17   19 1
    25   17   37 1
    26   18   38 1
    27   19   20 1
    28   19   21 1
    29   19   39 1
    30   20   40 1
    31   21   22 1
    32   21   41 1
    33   22   23 ar
    34   22   31 ar
    35   23   24 ar
    36   23   42 1
    37   24   25 ar
    38   25   26 ar
    39   25   31 ar
    40   26   27 2
    41   26   28 ar
    42   27   43 1
    43   28   29 ar
    44   28   45 1
    45   29   30 ar
    46   29   44 1
    47   30   31 ar
@<TRIPOS>SUBSTRUCTURE
     1 ATP         1 GROUP 0 A     ****
@<TRIPOS>MOLECULE
[[[3,4-dihydroxy-5-(6-imino-1~{H}-purin-9-yl)tetrahydrofuran-2-yl]methoxy-hydroxy-phosphoryl]oxy-oxido-phosphoryl] hydrogen phosphate
   45    47     1     0     0
SMALL
USER_CHARGES

@<TRIPOS>ATOM
      1 PG          0.2705    7.8388   -1.1029 P.3       1 ATP         1.5414
      2 O1G        -0.3983    7.1824   -2.2901 O.co2     1 ATP        -0.8562
      3 O2G         1.7033    8.3165   -1.1836 O.co2     1 ATP        -0.8562
      4 O3G        -0.6636    9.0814   -0.6032 O.3       1 ATP        -0.7907
      5 PB         -1.2293    6.2027    0.8556 P.3       1 ATP         1.6574
      6 O1B        -2.0922    7.3071    1.4241 O.co2     1 ATP        -0.8530
      7 O2B        -1.7959    5.1926   -0.1173 O.co2     1 ATP        -0.8530
      8 O3B         0.1064    6.8707    0.1987 O.3       1 ATP        -0.8003
      9 PA         -1.1648    4.4707    3.2550 P.3       1 ATP         1.7415
     10 O1A        -2.1674    5.1697    4.1266 O.2       1 ATP        -0.8661
     11 O2A         0.1384    3.9257    4.0442 O.3       1 ATP        -0.8077
     12 O3A        -0.5308    5.4032    2.0951 O.3       1 ATP        -0.7685
     13 O5'        -1.7334    3.1724    2.4743 O.3       1 ATP        -0.5590
     14 C5'        -0.8811    2.4285    1.6206 C.3       1 ATP         0.1960
     15 C4'        -0.1994    1.3333    2.4288 C.3       1 ATP         0.0976
     16 O4'        -1.1285    0.2356    2.5840 O.3       1 ATP        -0.3865
     17 C3'         1.0324    0.7610    1.7344 C.3       1 ATP         0.0901
     18 O3'         1.9175    0.2377    2.7247 O.3       1 ATP        -0.5889
     19 C2'         0.4468   -0.3802    0.9263 C.3       1 ATP         0.0574
     20 O2'         1.3993   -1.3703    0.5961 O.3       1 ATP        -0.5923
     21 C1'        -0.6159   -0.9100    1.8769 C.3       1 ATP         0.2452
     22 N9         -1.7127   -1.6108    1.2130 N.pl3     1 ATP        -0.1834
     23 C8         -2.8662   -1.0361    0.7388 C.ar      1 ATP         0.4338
     24 N7         -3.6774   -1.9166    0.1867 N.2       1 ATP        -0.6101
     25 C5         -3.0159   -3.1045    0.3122 C.ar      1 ATP         0.2154
     26 C6         -3.4377   -4.4169   -0.1199 C.ar      1 ATP         0.6130
     27 N6         -4.5720   -4.5691   -0.7080 N.2       1 ATP        -0.8165
     28 N1         -2.4600   -5.3463    0.2071 N.pl3     1 ATP        -0.8617
     29 C2         -1.2595   -5.0554    0.8515 C.ar      1 ATP         0.6151
     30 N3         -0.8555   -3.8803    1.2516 N.2       1 ATP        -0.5797
     31 C4         -1.7946   -2.9457    0.9448 C.ar      1 ATP         0.0328
     32 HOG3       -1.5804    8.8885   -0.3125 H         1 ATP         0.4197
     33 HOA2        0.7066    4.5674    4.5211 H         1 ATP         0.4550
     34 H5'1       -1.4795    1.9922    0.8142 H         1 ATP         0.0431
     35 H5'2       -0.1362    3.1035    1.1868 H         1 ATP         0.0431
     36 H4'         0.0402    1.7079    3.4342 H         1 ATP         0.1325
     37 H3'         1.5907    1.4859    1.1353 H         1 ATP         0.0782
     38 HO3'        2.6839   -0.1150    2.2479 H         1 ATP         0.4062
     39 H2'        -0.0017    0.0018    0.0005 H         1 ATP         0.0689
     40 HO2'        2.0953   -0.9375    0.0709 H         1 ATP         0.4089
     41 H1'        -0.1998   -1.6319    2.6178 H         1 ATP         0.1098
     42 H8         -3.0558    0.0252    0.8256 H         1 ATP         0.0929
     43 HN62       -4.7047   -5.5592   -0.9421 H         1 ATP         0.3678
     44 H2         -0.6372   -5.9505    1.0077 H         1 ATP         0.0383
     45 H45        -2.6338   -6.3155   -0.0469 H         1 ATP         0.4286
@<TRIPOS>BOND
     1    1    2 2
     2    1    3 1
     3    1    4 1
     4    1    8 1
     5    4   32 1
     6    5    6 2
     7    5    7 1
     8    5    8 1
     9    5   12 1
    10    9   10 2
    11    9   11 1
    12    9   12 1
    13    9   13 1
    14   11   33 1
    15   13   14 1
    16   14   15 1
    17   14   34 1
    18   14   35 1
    19   15   16 1
    20   15   17 1
    21   15   36 1
    22   16   21 1
    23   17   18 1
    24   17   19 1
    25   17   37 1
    26   18   38 1
    27   19   20 1
    28   19   21 1
    29   19   39 1
    30   20   40 1
    31   21   22 1
    32   21   41 1
    33   22   23 ar
    34   22   31 ar
    35   23   24 ar
    36   23   42 1
    37   24   25 ar
    38   25   26 ar
    39   25   31 ar
    40   26   27 2
    41   26   28 ar
    42   27   43 1
    43   28   29 ar
    44   28   45 1
    45   29   30 ar
    46   29   44 1
    47   30   31 ar
@<TRIPOS>SUBSTRUCTURE
     1 ATP         1 GROUP 0 A     ****
@<TRIPOS>MOLECULE
[[[3,4-dihydroxy-5-(6-imino-1~{H}-purin-9-yl)tetrahydrofuran-2-yl]methoxy-hydroxy-phosphoryl]oxy-oxido-phosphoryl] hydrogen phosphate
   45    47     1     0     0
SMALL
USER_CHARGES

@<TRIPOS>ATOM
      1 PG         -0.1961    7.0179   -3.7358 P.3       1 ATP         1.5414
      2 O1G        -1.5248    7.6582   -4.0710 O.co2     1 ATP        -0.8562
      3 O2G         0.6214    6.3205   -4.8001 O.co2     1 ATP        -0.8562
      4 O3G         0.7466    8.1326   -3.0044 O.3       1 ATP        -0.7907
      5 PB         -1.2354    4.6074   -2.3679 P.3       1 ATP         1.6574
      6 O1B        -2.7098    4.9136   -2.5094 O.co2     1 ATP        -0.8530
      7 O2B        -0.5658    3.5731   -3.2452 O.co2     1 ATP        -0.8530
      8 O3B        -0.4003    6.0049   -2.4746 O.3       1 ATP        -0.8003
      9 PA          0.4610    3.9828   -0.0241 P.3       1 ATP         1.7415
     10 O1A         1.4152    5.1413   -0.0577 O.2       1 ATP        -0.8661
     11 O2A         1.0250    2.6353   -0.7201 O.3       1 ATP        -0.8077
     12 O3A        -0.9304    4.2474   -0.8055 O.3       1 ATP        -0.7685
     13 O5'         0.0171    3.5129    1.4593 O.3       1 ATP        -0.5590
     14 C5'        -0.8811    2.4285    1.6206 C.3       1 ATP         0.1960
     15 C4'        -0.1994    1.3333    2.4288 C.3       1 ATP         0.0976
     16 O4'        -1.1285    0.2356    2.5840 O.3       1 ATP        -0.3865
     17 C3'         1.0324    0.7610    1.7344 C.3       1 ATP         0.0901
     18 O3'         1.9175    0.2377    2.7247 O.3       1 ATP        -0.5889
     19 C2'         0.4468   -0.3802    0.9263 C.3       1 ATP         0.0574
     20 O2'         1.3993   -1.3703    0.5961 O.3       1 ATP        -0.5923
     21 C1'        -0.6159   -0.9100    1.8769 C.3       1 ATP         0.2452
     22 N9         -1.7127   -1.6108    1.2130 N.pl3     1 ATP        -0.1834
     23 C8         -1.7690   -2.9583    0.9549 C.ar      1 ATP         0.4338
     24 N7         -2.8827   -3.3076    0.3418 N.2       1 ATP        -0.6101
     25 C5         -3.5683   -2.1351    0.2017 C.ar      1 ATP         0.2154
     26 C6         -4.8617   -1.9185   -0.4044 C.ar      1 ATP         0.6130
     27 N6         -5.5166   -2.9094   -0.8993 N.2       1 ATP        -0.8165
     28 N1         -5.1837   -0.5701   -0.3344 N.pl3     1 ATP        -0.8617
     29 C2         -4.3821    0.4180    0.2330 C.ar      1 ATP         0.6151
     30 N3         -3.2117    0.2488    0.7860 N.2       1 ATP        -0.5797
     31 C4         -2.8672   -1.0657    0.7327 C.ar      1 ATP         0.0328
     32 HOG3        1.6486    7.8688   -2.7231 H         1 ATP         0.4197
     33 HOA2        1.2711    2.6593   -1.6693 H         1 ATP         0.4550
     34 H5'1       -1.7775    2.7843    2.1389 H         1 ATP         0.0431
     35 H5'2       -1.1658    2.0534    0.6322 H         1 ATP         0.0431
     36 H4'         0.0402    1.7079    3.4342 H         1 ATP         0.1325
     37 H3'         1.5907    1.4859    1.1353 H         1 ATP         0.0782
     38 HO3'        2.6839   -0.1150    2.2479 H         1 ATP         0.4062
     39 H2'        -0.0017    0.0018    0.0005 H         1 ATP         0.0689
     40 HO2'        2.0953   -0.9375    0.0709 H         1 ATP         0.4089
     41 H1'        -0.1998   -1.6319    2.6178 H         1 ATP         0.1098
     42 H8         -0.9697   -3.6300    1.2371 H         1 ATP         0.0929
     43 HN62       -6.4060   -2.5723   -1.2840 H         1 ATP         0.3678
     44 H2         -4.8409    1.4176    0.1757 H         1 ATP         0.0383
     45 H45        -6.0768   -0.2826   -0.7263 H         1 ATP         0.4286
@<TRIPOS>BOND
     1    1    2 2
     2    1    3 1
     3    1    4 1
     4    1    8 1
     5    4   32 1
     6    5    6 2
     7    5    7 1
     8    5    8 1
     9    5   12 1
    10    9   10 2
    11    9   11 1
    12    9   12 1
    13    9   13 1
    14   11   33 1
    15   13   14 1
    16   14   15 1
    17   14   34 1
    18   14   35 1
    19   15   16 1
    20   15   17 1
    21   15   36 1
    22   16   21 1
    23   17   18 1
    24   17   19 1
    25   17   37 1
    26   18   38 1
    27   19   20 1
    28   19   21 1
    29   19   39 1
    30   20   40 1
    31   21   22 1
    32   21   41 1
    33   22   23 ar
    34   22   31 ar
    35   23   24 ar
    36   23   42 1
    37   24   25 ar
    38   25   26 ar
    39   25   31 ar
    40   26   27 2
    41   26   28 ar
    42   27   43 1
    43   28   29 ar
    44   28   45 1
    45   29   30 ar
    46   29   44 1
    47   30   31 ar
@<TRIPOS>SUBSTRUCTURE
     1 ATP         1 GROUP 0 A     ****
@<TRIPOS>MOLECULE
[[[3,4-dihydroxy-5-(6-imino-1~{H}-purin-9-yl)tetrahydrofuran-2-yl]methoxy-hydroxy-phosphoryl]oxy-oxido-phosphoryl] hydrogen phosphate
   45    47     1     0     0
SMALL
USER_CHARGES

@<TRIPOS>ATOM
      1 PG         -3.8222   -2.6496    4.4632 P.3       1 ATP         1.5414
      2 O1G        -4.8233   -3.2835    3.5232 O.co2     1 ATP        -0.8562
      3 O2G        -4.1032   -2.5493    5.9459 O.co2     1 ATP        -0.8562
      4 O3G        -2.3793   -3.3856    4.2570 O.3       1 ATP        -0.7907
      5 PB         -4.3280    0.1796    3.7549 P.3       1 ATP         1.6574
      6 O1B        -5.3979   -0.0603    2.7129 O.co2     1 ATP        -0.8530
      7 O2B        -4.6844    0.6736    5.1393 O.co2     1 ATP        -0.8530
      8 O3B        -3.4264   -1.1727    3.8970 O.3       1 ATP        -0.8003
      9 PA         -3.2760    2.7242    2.6690 P.3       1 ATP         1.7415
     10 O1A        -4.0714    3.5946    3.5982 O.2       1 ATP        -0.8661
     11 O2A        -3.8642    2.6452    1.1638 O.3       1 ATP        -0.8077
     12 O3A        -3.1998    1.1719    3.1176 O.3       1 ATP        -0.7685
     13 O5'        -1.7334    3.1724    2.4743 O.3       1 ATP        -0.5590
     14 C5'        -0.8811    2.4285    1.6206 C.3       1 ATP         0.1960
     15 C4'        -0.1994    1.3333    2.4288 C.3       1 ATP         0.0976
     16 O4'        -1.1285    0.2356    2.5840 O.3       1 ATP        -0.3865
     17 C3'         1.0324    0.7610    1.7344 C.3       1 ATP         0.0901
     18 O3'         1.9175    0.2377    2.7247 O.3       1 ATP        -0.5889
     19 C2'         0.4468   -0.3802    0.9263 C.3       1 ATP         0.0574
     20 O2'         1.3993   -1.3703    0.5961 O.3       1 ATP        -0.5923
     21 C1'        -0.6159   -0.9100    1.8769 C.3       1 ATP         0.2452
     22 N9         -1.7127   -1.6108    1.2130 N.pl3     1 ATP        -0.1834
     23 C8         -2.8662   -1.0361    0.7388 C.ar      1 ATP         0.4338
     24 N7         -3.6774   -1.9166    0.1867 N.2       1 ATP        -0.6101
     25 C5         -3.0159   -3.1045    0.3122 C.ar      1 ATP         0.2154
     26 C6         -3.4377   -4.4169   -0.1199 C.ar      1 ATP         0.6130
     27 N6         -4.5720   -4.5691   -0.7080 N.2       1 ATP        -0.8165
     28 N1         -2.4600   -5.3463    0.2071 N.pl3     1 ATP        -0.8617
     29 C2         -1.2595   -5.0554    0.8515 C.ar      1 ATP         0.6151
     30 N3         -0.8555   -3.8803    1.2516 N.2       1 ATP        -0.5797
     31 C4         -1.7946   -2.9457    0.9448 C.ar      1 ATP         0.0328
     32 HOG3       -1.6199   -3.0844    4.8001 H         1 ATP         0.4197
     33 HOA2       -4.7721    2.2999    1.0270 H         1 ATP         0.4550
     34 H5'1       -1.4795    1.9922    0.8142 H         1 ATP         0.0431
     35 H5'2       -0.1362    3.1035    1.1868 H         1 ATP         0.0431
     36 H4'         0.0402    1.7079    3.4342 H         1 ATP         0.1325
     37 H3'         1.5907    1.4859    1.1353 H         1 ATP         0.0782
     38 HO3'        2.6839   -0.1150    2.2479 H         1 ATP         0.4062
     39 H2'        -0.0017    0.0018    0.0005 H         1 ATP         0.0689
     40 HO2'        2.0953   -0.9375    0.0709 H         1 ATP         0.4089
     41 H1'        -0.1998   -1.6319    2.6178 H         1 ATP         0.1098
     42 H8         -3.0558    0.0252    0.8256 H         1 ATP         0.0929
     43 HN62       -4.7047   -5.5592   -0.9421 H         1 ATP         0.3678
     44 H2         -0.6372   -5.9505    1.0077 H         1 ATP         0.0383
     45 H45        -2.6338   -6.3155   -0.0469 H         1 ATP         0.4286
@<TRIPOS>BOND
     1    1    2 2
     2    1    3 1
     3    1    4 1
     4    1    8 1
     5    4   32 1
     6    5    6 2
     7    5    7 1
     8    5    8 1
     9    5   12 1
    10    9   10 2
    11    9   11 1
    12    9   12 1
    13    9   13 1
    14   11   33 1
    15   13   14 1
    16   14   15 1
    17   14   34 1
    18   14   35 1
    19   15   16 1
    20   15   17 1
    21   15   36 1
    22   16   21 1
    23   17   18 1
    24   17   19 1
    25   17   37 1
    26   18   38 1
    27   19   20 1
    28   19   21 1
    29   19   39 1
    30   20   40 1
    31   21   22 1
    32   21   41 1
    33   22   23 ar
    34   22   31 ar
    35   23   24 ar
    36   23   42 1
    37   24   25 ar
    38   25   26 ar
    39   25   31 ar
    40   26   27 2
    41   26   28 ar
    42   27   43 1
    43   28   29 ar
    44   28   45 1
    45   29   30 ar
    46   29   44 1
    47   30   31 ar
@<TRIPOS>SUBSTRUCTURE
     1 ATP         1 GROUP 0 A     ****
@<TRIPOS>MOLECULE
[[[3,4-dihydroxy-5-(6-imino-1~{H}-purin-9-yl)tetrahydrofuran-2-yl]methoxy-hydroxy-phosphoryl]oxy-oxido-phosphoryl] hydrogen phosphate
   45    47     1     0     0
SMALL
USER_CHARGES

@<TRIPOS>ATOM
      1 PG         -2.5193    5.0132   -1.3367 P.3       1 ATP         1.5414
      2 O1G        -1.4981    5.7455   -2.1783 O.co2     1 ATP        -0.8562
      3 O2G        -3.9757    5.4207   -1.3518 O.co2     1 ATP        -0.8562
      4 O3G        -2.4229    3.4188   -1.6755 O.3       1 ATP        -0.7907
      5 PB         -1.7939    6.1712    1.2891 P.3       1 ATP         1.6574
      6 O1B        -0.6685    7.0630    0.8137 O.co2     1 ATP        -0.8530
      7 O2B        -3.1493    6.7447    1.6380 O.co2     1 ATP        -0.8530
      8 O3B        -1.9972    4.9670    0.2073 O.3       1 ATP        -0.8003
      9 PA         -1.9403    4.0773    3.3760 P.3       1 ATP         1.7415
     10 O1A        -3.2371    4.4398    4.0398 O.2       1 ATP        -0.8661
     11 O2A        -0.7734    3.6204    4.3995 O.3       1 ATP        -0.8077
     12 O3A        -1.2556    5.2898    2.5529 O.3       1 ATP        -0.7685
     13 O5'        -2.0397    2.8622    2.3122 O.3       1 ATP        -0.5590
     14 C5'        -0.8811    2.4285    1.6206 C.3       1 ATP         0.1960
     15 C4'        -0.1994    1.3333    2.4288 C.3       1 ATP         0.0976
     16 O4'        -1.1285    0.2356    2.5840 O.3       1 ATP        -0.3865
     17 C3'         1.0324    0.7610    1.7344 C.3       1 ATP         0.0901
     18 O3'         1.9175    0.2377    2.7247 O.3       1 ATP        -0.5889
     19 C2'         0.4468   -0.3802    0.9263 C.3       1 ATP         0.0574
     20 O2'         1.3993   -1.3703    0.5961 O.3       1 ATP        -0.5923
     21 C1'        -0.6159   -0.9100    1.8769 C.3       1 ATP         0.2452
     22 N9         -1.7127   -1.6108    1.2130 N.pl3     1 ATP        -0.1834
     23 C8         -2.5485   -1.0808    0.2609 C.ar      1 ATP         0.4338
     24 N7         -3.4476   -1.9486   -0.1593 N.2       1 ATP        -0.6101
     25 C5         -3.1762   -3.0816    0.5530 C.ar      1 ATP         0.2154
     26 C6         -3.8510   -4.3579    0.5006 C.ar      1 ATP         0.6130
     27 N6         -4.8468   -4.5293   -0.2961 N.2       1 ATP        -0.8165
     28 N1         -3.2499   -5.2342    1.3937 N.pl3     1 ATP        -0.8617
     29 C2         -2.1646   -4.9275    2.2116 C.ar      1 ATP         0.6151
     30 N3         -1.5382   -3.7840    2.2778 N.2       1 ATP        -0.5797
     31 C4         -2.1054   -2.9018    1.4120 C.ar      1 ATP         0.0328
     32 HOG3       -1.5722    2.9578   -1.5134 H         1 ATP         0.4197
     33 HOA2       -0.9250    2.8395    4.9734 H         1 ATP         0.4550
     34 H5'1       -1.1761    2.0499    0.6365 H         1 ATP         0.0431
     35 H5'2       -0.2073    3.2811    1.4874 H         1 ATP         0.0431
     36 H4'         0.0402    1.7079    3.4342 H         1 ATP         0.1325
     37 H3'         1.5907    1.4859    1.1353 H         1 ATP         0.0782
     38 HO3'        2.1521    0.9800    3.3017 H         1 ATP         0.4062
     39 H2'        -0.0017    0.0018    0.0005 H         1 ATP         0.0689
     40 HO2'        0.9369   -2.0558    0.0825 H         1 ATP         0.4089
     41 H1'        -0.1998   -1.6319    2.6178 H         1 ATP         0.1098
     42 H8         -2.4515   -0.0599   -0.0829 H         1 ATP         0.0929
     43 HN62       -5.1990   -5.4882   -0.2005 H         1 ATP         0.3678
     44 H2         -1.8555   -5.7783    2.8388 H         1 ATP         0.0383
     45 H45        -3.6312   -6.1750    1.4526 H         1 ATP         0.4286
@<TRIPOS>BOND
     1    1    2 2
     2    1    3 1
     3    1    4 1
     4    1    8 1
     5    4   32 1
     6    5    6 2
     7    5    7 1
     8    5    8 1
     9    5   12 1
    10    9   10 2
    11    9   11 1
    12    9   12 1
    13    9   13 1
    14   11   33 1
    15   13   14 1
    16   14   15 1
    17   14   34 1
    18   14   35 1
    19   15   16 1
    20   15   17 1
    21   15   36 1
    22   16   21 1
    23   17   18 1
    24   17   19 1
    25   17   37 1
    26   18   38 1
    27   19   20 1
    28   19   21 1
    29   19   39 1
    30   20   40 1
    31   21   22 1
    32   21   41 1
    33   22   23 ar
    34   22   31 ar
    35   23   24 ar
    36   23   42 1
    37   24   25 ar
    38   25   26 ar
    39   25   31 ar
    40   26   27 2
    41   26   28 ar
    42   27   43 1
    43   28   29 ar
    44   28   45 1
    45   29   30 ar
    46   29   44 1
    47   30   31 ar
@<TRIPOS>SUBSTRUCTURE
     1 ATP         1 GROUP 0 A     ****
@<TRIPOS>MOLECULE
[[[3,4-dihydroxy-5-(6-imino-1~{H}-purin-9-yl)tetrahydrofuran-2-yl]methoxy-hydroxy-phosphoryl]oxy-oxido-phosphoryl] hydrogen phosphate
   45    47     1     0     0
SMALL
USER_CHARGES

@<TRIPOS>ATOM
      1 PG          7.3602    0.7062    3.5750 P.3       1 ATP         1.5414
      2 O1G         7.4692   -0.5020    2.6716 O.co2     1 ATP        -0.8562
      3 O2G         6.0233    1.1435    4.1307 O.co2     1 ATP        -0.8562
      4 O3G         8.4030    0.5201    4.8177 O.3       1 ATP        -0.7907
      5 PB          7.6490    2.7976    1.5003 P.3       1 ATP         1.6574
      6 O1B         8.5580    3.9983    1.3589 O.co2     1 ATP        -0.8530
      7 O2B         7.4758    1.8125    0.3657 O.co2     1 ATP        -0.8530
      8 O3B         8.0735    1.9781    2.8456 O.3       1 ATP        -0.8003
      9 PA          5.0667    4.2152    1.2112 P.3       1 ATP         1.7415
     10 O1A         5.5454    5.5831    0.8194 O.2       1 ATP        -0.8661
     11 O2A         3.8203    4.2161    2.2428 O.3       1 ATP        -0.8077
     12 O3A         6.1762    3.3179    1.9732 O.3       1 ATP        -0.7685
     13 O5'         4.5673    3.2930   -0.0211 O.3       1 ATP        -0.5590
     14 C5'         4.0922    1.9801    0.2227 C.3       1 ATP         0.1960
     15 C4'         2.5944    2.0310    0.4653 C.3       1 ATP         0.0976
     16 O4'         1.9327    2.5740   -0.6889 O.3       1 ATP        -0.3865
     17 C3'         1.9685    0.6634    0.6767 C.3       1 ATP         0.0901
     18 O3'         2.1425    0.1975    1.9977 O.3       1 ATP        -0.5889
     19 C2'         0.5176    0.9128    0.3099 C.3       1 ATP         0.0574
     20 O2'        -0.2103    1.4454    1.4152 O.3       1 ATP        -0.5923
     21 C1'         0.6219    1.9765   -0.7844 C.3       1 ATP         0.2452
     22 N9          0.4237    1.4496   -2.1357 N.pl3     1 ATP        -0.1834
     23 C8          1.4069    0.9710   -2.9662 C.ar      1 ATP         0.4338
     24 N7          0.9316    0.5623   -4.1260 N.2       1 ATP        -0.6101
     25 C5         -0.4120    0.7884   -4.0344 C.ar      1 ATP         0.2154
     26 C6         -1.4353    0.5283   -5.0204 C.ar      1 ATP         0.6130
     27 N6         -1.1199    0.0176   -6.1586 N.2       1 ATP        -0.8165
     28 N1         -2.6704    0.9095   -4.5147 N.pl3     1 ATP        -0.8617
     29 C2         -2.8863    1.4571   -3.2520 C.ar      1 ATP         0.6151
     30 N3         -1.9805    1.7017   -2.3442 N.2       1 ATP        -0.5797
     31 C4         -0.7561    1.3381   -2.8112 C.ar      1 ATP         0.0328
     32 HOG3        8.4510    1.2267    5.4965 H         1 ATP         0.4197
     33 HOA2        3.9301    4.6439    3.1187 H         1 ATP         0.4550
     34 H5'1        4.3175    1.3541   -0.6468 H         1 ATP         0.0431
     35 H5'2        4.6079    1.5730    1.0985 H         1 ATP         0.0431
     36 H4'         2.3752    2.7029    1.3156 H         1 ATP         0.1325
     37 H3'         2.4336   -0.1217   -0.0016 H         1 ATP         0.0782
     38 HO3'        1.7160   -0.6716    2.0397 H         1 ATP         0.4062
     39 H2'         0.0316    0.0155   -0.0339 H         1 ATP         0.0689
     40 HO2'       -0.1608    0.7921    2.1351 H         1 ATP         0.4089
     41 H1'        -0.1474    2.7798   -0.6651 H         1 ATP         0.1098
     42 H8          2.4466    0.9468   -2.6694 H         1 ATP         0.0929
     43 HN62       -1.9661   -0.0965   -6.7275 H         1 ATP         0.3678
     44 H2         -3.9481    1.6825   -3.0660 H         1 ATP         0.0383
     45 H45        -3.4814    0.7753   -5.1133 H         1 ATP         0.4286
@<TRIPOS>BOND
     1    1    2 2
     2    1    3 1
     3    1    4 1
     4    1    8 1
     5    4   32 1
     6    5    6 2
     7    5    7 1
     8    5    8 1
     9    5   12 1
    10    9   10 2
    11    9   11 1
    12    9   12 1
    13    9   13 1
    14   11   33 1
    15   13   14 1
    16   14   15 1
    17   14   34 1
    18   14   35 1
    19   15   16 1
    20   15   17 1
    21   15   36 1
    22   16   21 1
    23   17   18 1
    24   17   19 1
    25   17   37 1
    26   18   38 1
    27   19   20 1
    28   19   21 1
    29   19   39 1
    30   20   40 1
    31   21   22 1
    32   21   41 1
    33   22   23 ar
    34   22   31 ar
    35   23   24 ar
    36   23   42 1
    37   24   25 ar
    38   25   26 ar
    39   25   31 ar
    40   26   27 2
    41   26   28 ar
    42   27   43 1
    43   28   29 ar
    44   28   45 1
    45   29   30 ar
    46   29   44 1
    47   30   31 ar
@<TRIPOS>SUBSTRUCTURE
     1 ATP         1 GROUP 0 A     ****
@<TRIPOS>MOLECULE
[[[3,4-dihydroxy-5-(6-imino-1~{H}-purin-9-yl)tetrahydrofuran-2-yl]methoxy-hydroxy-phosphoryl]oxy-oxido-phosphoryl] hydrogen phosphate
   45    47     1     0     0
SMALL
USER_CHARGES

@<TRIPOS>ATOM
      1 PG         -0.9001    6.5490    6.9243 P.3       1 ATP         1.5414
      2 O1G         0.1450    7.6406    6.9856 O.co2     1 ATP        -0.8562
      3 O2G        -1.2176    5.7072    8.1400 O.co2     1 ATP        -0.8562
      4 O3G        -2.2909    7.1939    6.3619 O.3       1 ATP        -0.7907
      5 PB          0.6884    4.5428    5.4364 P.3       1 ATP         1.6574
      6 O1B         1.9546    5.3566    5.2872 O.co2     1 ATP        -0.8530
      7 O2B         0.5962    3.4220    6.4479 O.co2     1 ATP        -0.8530
      8 O3B        -0.5627    5.5636    5.6698 O.3       1 ATP        -0.8003
      9 PA          0.0493    4.7068    2.5510 P.3       1 ATP         1.7415
     10 O1A         1.0439    5.7943    2.2646 O.2       1 ATP        -0.8661
     11 O2A        -1.4849    5.2135    2.6372 O.3       1 ATP        -0.8077
     12 O3A         0.2724    3.9615    3.9692 O.3       1 ATP        -0.7685
     13 O5'         0.0171    3.5129    1.4593 O.3       1 ATP        -0.5590
     14 C5'        -0.8811    2.4285    1.6206 C.3       1 ATP         0.1960
     15 C4'        -0.1994    1.3333    2.4288 C.3       1 ATP         0.0976
     16 O4'        -1.1285    0.2356    2.5840 O.3       1 ATP        -0.3865
     17 C3'         1.0324    0.7610    1.7344 C.3       1 ATP         0.0901
     18 O3'         1.9175    0.2377    2.7247 O.3       1 ATP        -0.5889
     19 C2'         0.4468   -0.3802    0.9263 C.3       1 ATP         0.0574
     20 O2'         1.3993   -1.3703    0.5961 O.3       1 ATP        -0.5923
     21 C1'        -0.6159   -0.9100    1.8769 C.3       1 ATP         0.2452
     22 N9         -1.7127   -1.6108    1.2130 N.pl3     1 ATP        -0.1834
     23 C8         -1.7690   -2.9583    0.9549 C.ar      1 ATP         0.4338
     24 N7         -2.8827   -3.3076    0.3418 N.2       1 ATP        -0.6101
     25 C5         -3.5683   -2.1351    0.2017 C.ar      1 ATP         0.2154
     26 C6         -4.8617   -1.9185   -0.4044 C.ar      1 ATP         0.6130
     27 N6         -5.5166   -2.9094   -0.8993 N.2       1 ATP        -0.8165
     28 N1         -5.1837   -0.5701   -0.3344 N.pl3     1 ATP        -0.8617
     29 C2         -4.3821    0.4180    0.2330 C.ar      1 ATP         0.6151
     30 N3         -3.2117    0.2488    0.7860 N.2       1 ATP        -0.5797
     31 C4         -2.8672   -1.0657    0.7327 C.ar      1 ATP         0.0328
     32 HOG3       -3.0711    6.6073    6.2637 H         1 ATP         0.4197
     33 HOA2       -1.7259    5.8827    3.3127 H         1 ATP         0.4550
     34 H5'1       -1.7775    2.7843    2.1389 H         1 ATP         0.0431
     35 H5'2       -1.1658    2.0534    0.6322 H         1 ATP         0.0431
     36 H4'         0.0402    1.7079    3.4342 H         1 ATP         0.1325
     37 H3'         1.5907    1.4859    1.1353 H         1 ATP         0.0782
     38 HO3'        2.1521    0.9800    3.3017 H         1 ATP         0.4062
     39 H2'        -0.0017    0.0018    0.0005 H         1 ATP         0.0689
     40 HO2'        1.7495   -1.7243    1.4324 H         1 ATP         0.4089
     41 H1'        -0.1998   -1.6319    2.6178 H         1 ATP         0.1098
     42 H8         -0.9697   -3.6300    1.2371 H         1 ATP         0.0929
     43 HN62       -6.4060   -2.5723   -1.2840 H         1 ATP         0.3678
     44 H2         -4.8409    1.4176    0.1757 H         1 ATP         0.0383
     45 H45        -6.0768   -0.2826   -0.7263 H         1 ATP         0.4286
@<TRIPOS>BOND
     1    1    2 2
     2    1    3 1
     3    1    4 1
     4    1    8 1
     5    4   32 1
     6    5    6 2
     7    5    7 1
     8    5    8 1
     9    5   12 1
    10    9   10 2
    11    9   11 1
    12    9   12 1
    13    9   13 1
    14   11   33 1
    15   13   14 1
    16   14   15 1
    17   14   34 1
    18   14   35 1
    19   15   16 1
    20   15   17 1
    21   15   36 1
    22   16   21 1
    23   17   18 1
    24   17   19 1
    25   17   37 1
    26   18   38 1
    27   19   20 1
    28   19   21 1
    29   19   39 1
    30   20   40 1
    31   21   22 1
    32   21   41 1
    33   22   23 ar
    34   22   31 ar
    35   23   24 ar
    36   23   42 1
    37   24   25 ar
    38   25   26 ar
    39   25   31 ar
    40   26   27 2
    41   26   28 ar
    42   27   43 1
    43   28   29 ar
    44   28   45 1
    45   29   30 ar
    46   29   44 1
    47   30   31 ar
@<TRIPOS>SUBSTRUCTURE
     1 ATP         1 GROUP 0 A     ****
@<TRIPOS>MOLECULE
[[[3,4-dihydroxy-5-(6-imino-1~{H}-purin-9-yl)tetrahydrofuran-2-yl]methoxy-hydroxy-phosphoryl]oxy-oxido-phosphoryl] hydrogen phosphate
   45    47     1     0     0
SMALL
USER_CHARGES

@<TRIPOS>ATOM
      1 PG          0.7195    2.8480    7.8887 P.3       1 ATP         1.5414
      2 O1G         1.1643    1.4159    8.0851 O.co2     1 ATP        -0.8562
      3 O2G        -0.4960    3.3902    8.6072 O.co2     1 ATP        -0.8562
      4 O3G         1.9862    3.8312    8.1970 O.3       1 ATP        -0.7907
      5 PB          0.2668    4.5335    5.4978 P.3       1 ATP         1.6574
      6 O1B        -1.1360    4.9889    5.8332 O.co2     1 ATP        -0.8530
      7 O2B         1.4505    5.4581    5.6757 O.co2     1 ATP        -0.8530
      8 O3B         0.5662    3.1401    6.2919 O.3       1 ATP        -0.8003
      9 PA          0.0493    4.7068    2.5510 P.3       1 ATP         1.7415
     10 O1A         1.0439    5.7943    2.2646 O.2       1 ATP        -0.8661
     11 O2A        -1.4849    5.2135    2.6372 O.3       1 ATP        -0.8077
     12 O3A         0.2724    3.9615    3.9692 O.3       1 ATP        -0.7685
     13 O5'         0.0171    3.5129    1.4593 O.3       1 ATP        -0.5590
     14 C5'        -0.8811    2.4285    1.6206 C.3       1 ATP         0.1960
     15 C4'        -0.1994    1.3333    2.4288 C.3       1 ATP         0.0976
     16 O4'        -1.1285    0.2356    2.5840 O.3       1 ATP        -0.3865
     17 C3'         1.0324    0.7610    1.7344 C.3       1 ATP         0.0901
     18 O3'         1.9175    0.2377    2.7247 O.3       1 ATP        -0.5889
     19 C2'         0.4468   -0.3802    0.9263 C.3       1 ATP         0.0574
     20 O2'         1.3993   -1.3703    0.5961 O.3       1 ATP        -0.5923
     21 C1'        -0.6159   -0.9100    1.8769 C.3       1 ATP         0.2452
     22 N9         -1.7127   -1.6108    1.2130 N.pl3     1 ATP        -0.1834
     23 C8         -2.0868   -2.9137    1.4327 C.ar      1 ATP         0.4338
     24 N7         -3.1125   -3.2756    0.6878 N.2       1 ATP        -0.6101
     25 C5         -3.4079   -2.1580   -0.0391 C.ar      1 ATP         0.2154
     26 C6         -4.4483   -1.9775   -1.0249 C.ar      1 ATP         0.6130
     27 N6         -5.2418   -2.9492   -1.3113 N.2       1 ATP        -0.8165
     28 N1         -4.3937   -0.6823   -1.5211 N.pl3     1 ATP        -0.8617
     29 C2         -3.4770    0.2901   -1.1271 C.ar      1 ATP         0.6151
     30 N3         -2.5289    0.1525   -0.2402 N.2       1 ATP        -0.5797
     31 C4         -2.5564   -1.1096    0.2655 C.ar      1 ATP         0.0328
     32 HOG3        1.8565    4.7999    8.1125 H         1 ATP         0.4197
     33 HOA2       -1.7259    5.8827    3.3127 H         1 ATP         0.4550
     34 H5'1       -1.7775    2.7843    2.1389 H         1 ATP         0.0431
     35 H5'2       -1.1658    2.0534    0.6322 H         1 ATP         0.0431
     36 H4'         0.0402    1.7079    3.4342 H         1 ATP         0.1325
     37 H3'         1.5907    1.4859    1.1353 H         1 ATP         0.0782
     38 HO3'        2.6839   -0.1150    2.2479 H         1 ATP         0.4062
     39 H2'        -0.0017    0.0018    0.0005 H         1 ATP         0.0689
     40 HO2'        0.9369   -2.0558    0.0825 H         1 ATP         0.4089
     41 H1'        -0.1998   -1.6319    2.6178 H         1 ATP         0.1098
     42 H8         -1.5740   -3.5449    2.1457 H         1 ATP         0.0929
     43 HN62       -5.9117   -2.6433   -2.0256 H         1 ATP         0.3678
     44 H2         -3.6225    1.2454   -1.6553 H         1 ATP         0.0383
     45 H45        -5.0794   -0.4231   -2.2258 H         1 ATP         0.4286
@<TRIPOS>BOND
     1    1    2 2
     2    1    3 1
     3    1    4 1
     4    1    8 1
     5    4   32 1
     6    5    6 2
     7    5    7 1
     8    5    8 1
     9    5   12 1
    10    9   10 2
    11    9   11 1
    12    9   12 1
    13    9   13 1
    14   11   33 1
    15   13   14 1
    16   14   15 1
    17   14   34 1
    18   14   35 1
    19   15   16 1
    20   15   17 1
    21   15   36 1
    22   16   21 1
    23   17   18 1
    24   17   19 1
    25   17   37 1
    26   18   38 1
    27   19   20 1
    28   19   21 1
    29   19   39 1
    30   20   40 1
    31   21   22 1
    32   21   41 1
    33   22   23 ar
    34   22   31 ar
    35   23   24 ar
    36   23   42 1
    37   24   25 ar
    38   25   26 ar
    39   25   31 ar
    40   26   27 2
    41   26   28 ar
    42   27   43 1
    43   28   29 ar
    44   28   45 1
    45   29   30 ar
    46   29   44 1
    47   30   31 ar
@<TRIPOS>SUBSTRUCTURE
     1 ATP         1 GROUP 0 A     ****
@<TRIPOS>MOLECULE
[[[3,4-dihydroxy-5-(6-imino-1~{H}-purin-9-yl)tetrahydrofuran-2-yl]methoxy-hydroxy-phosphoryl]oxy-oxido-phosphoryl] hydrogen phosphate
   45    47     1     0     0
SMALL
USER_CHARGES

@<TRIPOS>ATOM
      1 PG          4.3247    4.4231    6.8711 P.3       1 ATP         1.5414
      2 O1G         2.9330    4.7078    7.3903 O.co2     1 ATP        -0.8562
      3 O2G         5.3992    5.4870    6.9028 O.co2     1 ATP        -0.8562
      4 O3G         4.8940    3.0880    7.6191 O.3       1 ATP        -0.7907
      5 PB          3.7148    4.5385    3.9768 P.3       1 ATP         1.6574
      6 O1B         2.2364    4.8360    4.0927 O.co2     1 ATP        -0.8530
      7 O2B         4.7019    5.6228    3.6057 O.co2     1 ATP        -0.8530
      8 O3B         4.2130    3.8266    5.3577 O.3       1 ATP        -0.8003
      9 PA          5.2238    2.4255    2.5558 P.3       1 ATP         1.7415
     10 O1A         5.8834    1.7323    3.7126 O.2       1 ATP        -0.8661
     11 O2A         6.1596    3.5154    1.8113 O.3       1 ATP        -0.8077
     12 O3A         3.9098    3.2795    2.9568 O.3       1 ATP        -0.7685
     13 O5'         4.7296    1.4429    1.3689 O.3       1 ATP        -0.5590
     14 C5'         4.0922    1.9801    0.2227 C.3       1 ATP         0.1960
     15 C4'         2.5944    2.0310    0.4653 C.3       1 ATP         0.0976
     16 O4'         1.9327    2.5740   -0.6889 O.3       1 ATP        -0.3865
     17 C3'         1.9685    0.6634    0.6767 C.3       1 ATP         0.0901
     18 O3'         2.1425    0.1975    1.9977 O.3       1 ATP        -0.5889
     19 C2'         0.5176    0.9128    0.3099 C.3       1 ATP         0.0574
     20 O2'        -0.2103    1.4454    1.4152 O.3       1 ATP        -0.5923
     21 C1'         0.6219    1.9765   -0.7844 C.3       1 ATP         0.2452
     22 N9          0.4237    1.4496   -2.1357 N.pl3     1 ATP        -0.1834
     23 C8          1.4069    0.9710   -2.9662 C.ar      1 ATP         0.4338
     24 N7          0.9316    0.5623   -4.1260 N.2       1 ATP        -0.6101
     25 C5         -0.4120    0.7884   -4.0344 C.ar      1 ATP         0.2154
     26 C6         -1.4353    0.5283   -5.0204 C.ar      1 ATP         0.6130
     27 N6         -1.1199    0.0176   -6.1586 N.2       1 ATP        -0.8165
     28 N1         -2.6704    0.9095   -4.5147 N.pl3     1 ATP        -0.8617
     29 C2         -2.8863    1.4571   -3.2520 C.ar      1 ATP         0.6151
     30 N3         -1.9805    1.7017   -2.3442 N.2       1 ATP        -0.5797
     31 C4         -0.7561    1.3381   -2.8112 C.ar      1 ATP         0.0328
     32 HOG3        5.7934    2.7713    7.3882 H         1 ATP         0.4197
     33 HOA2        7.0031    3.2192    1.4075 H         1 ATP         0.4550
     34 H5'1        4.4838    2.9857    0.0375 H         1 ATP         0.0431
     35 H5'2        4.3186    1.3449   -0.6398 H         1 ATP         0.0431
     36 H4'         2.3752    2.7029    1.3156 H         1 ATP         0.1325
     37 H3'         2.4336   -0.1217   -0.0016 H         1 ATP         0.0782
     38 HO3'        3.0987    0.1465    2.1461 H         1 ATP         0.4062
     39 H2'         0.0316    0.0155   -0.0339 H         1 ATP         0.0689
     40 HO2'       -0.1608    0.7921    2.1351 H         1 ATP         0.4089
     41 H1'        -0.1474    2.7798   -0.6651 H         1 ATP         0.1098
     42 H8          2.4466    0.9468   -2.6694 H         1 ATP         0.0929
     43 HN62       -1.9661   -0.0965   -6.7275 H         1 ATP         0.3678
     44 H2         -3.9481    1.6825   -3.0660 H         1 ATP         0.0383
     45 H45        -3.4814    0.7753   -5.1133 H         1 ATP         0.4286
@<TRIPOS>BOND
     1    1    2 2
     2    1    3 1
     3    1    4 1
     4    1    8 1
     5    4   32 1
     6    5    6 2
     7    5    7 1
     8    5    8 1
     9    5   12 1
    10    9   10 2
    11    9   11 1
    12    9   12 1
    13    9   13 1
    14   11   33 1
    15   13   14 1
    16   14   15 1
    17   14   34 1
    18   14   35 1
    19   15   16 1
    20   15   17 1
    21   15   36 1
    22   16   21 1
    23   17   18 1
    24   17   19 1
    25   17   37 1
    26   18   38 1
    27   19   20 1
    28   19   21 1
    29   19   39 1
    30   20   40 1
    31   21   22 1
    32   21   41 1
    33   22   23 ar
    34   22   31 ar
    35   23   24 ar
    36   23   42 1
    37   24   25 ar
    38   25   26 ar
    39   25   31 ar
    40   26   27 2
    41   26   28 ar
    42   27   43 1
    43   28   29 ar
    44   28   45 1
    45   29   30 ar
    46   29   44 1
    47   30   31 ar
@<TRIPOS>SUBSTRUCTURE
     1 ATP         1 GROUP 0 A     ****
@<TRIPOS>MOLECULE
[[[3,4-dihydroxy-5-(6-imino-1~{H}-purin-9-yl)tetrahydrofuran-2-yl]methoxy-hydroxy-phosphoryl]oxy-oxido-phosphoryl] hydrogen phosphate
   45    47     1     0     0
SMALL
USER_CHARGES

@<TRIPOS>ATOM
      1 PG         -2.8011    2.0525   -2.7017 P.3       1 ATP         1.5414
      2 O1G        -2.6675    0.5529   -2.5578 O.co2     1 ATP        -0.8562
      3 O2G        -1.6632    2.9744   -2.3238 O.co2     1 ATP        -0.8562
      4 O3G        -3.2538    2.3879   -4.2343 O.3       1 ATP        -0.7907
      5 PB         -4.5262    2.5391   -0.3460 P.3       1 ATP         1.6574
      6 O1B        -5.8449    3.2556   -0.1578 O.co2     1 ATP        -0.8530
      7 O2B        -4.3099    1.1466    0.2035 O.co2     1 ATP        -0.8530
      8 O3B        -4.1553    2.5390   -1.9347 O.3       1 ATP        -0.8003
      9 PA         -2.9690    4.0281    1.6835 P.3       1 ATP         1.7415
     10 O1A        -4.1648    4.3954    2.5134 O.2       1 ATP        -0.8661
     11 O2A        -1.9470    5.2523    1.4099 O.3       1 ATP        -0.8077
     12 O3A        -3.3299    3.5086    0.1947 O.3       1 ATP        -0.7685
     13 O5'        -2.0397    2.8622    2.3122 O.3       1 ATP        -0.5590
     14 C5'        -0.8811    2.4285    1.6206 C.3       1 ATP         0.1960
     15 C4'        -0.1994    1.3333    2.4288 C.3       1 ATP         0.0976
     16 O4'        -1.1285    0.2356    2.5840 O.3       1 ATP        -0.3865
     17 C3'         1.0324    0.7610    1.7344 C.3       1 ATP         0.0901
     18 O3'         1.9175    0.2377    2.7247 O.3       1 ATP        -0.5889
     19 C2'         0.4468   -0.3802    0.9263 C.3       1 ATP         0.0574
     20 O2'         1.3993   -1.3703    0.5961 O.3       1 ATP        -0.5923
     21 C1'        -0.6159   -0.9100    1.8769 C.3       1 ATP         0.2452
     22 N9         -1.7127   -1.6108    1.2130 N.pl3     1 ATP        -0.1834
     23 C8         -2.5485   -1.0808    0.2609 C.ar      1 ATP         0.4338
     24 N7         -3.4476   -1.9486   -0.1593 N.2       1 ATP        -0.6101
     25 C5         -3.1762   -3.0816    0.5530 C.ar      1 ATP         0.2154
     26 C6         -3.8510   -4.3579    0.5006 C.ar      1 ATP         0.6130
     27 N6         -4.8468   -4.5293   -0.2961 N.2       1 ATP        -0.8165
     28 N1         -3.2499   -5.2342    1.3937 N.pl3     1 ATP        -0.8617
     29 C2         -2.1646   -4.9275    2.2116 C.ar      1 ATP         0.6151
     30 N3         -1.5382   -3.7840    2.2778 N.2       1 ATP        -0.5797
     31 C4         -2.1054   -2.9018    1.4120 C.ar      1 ATP         0.0328
     32 HOG3       -3.3835    3.3267   -4.4878 H         1 ATP         0.4197
     33 HOA2       -2.2754    6.0480    0.9395 H         1 ATP         0.4550
     34 H5'1       -1.1761    2.0499    0.6365 H         1 ATP         0.0431
     35 H5'2       -0.2073    3.2811    1.4874 H         1 ATP         0.0431
     36 H4'         0.0402    1.7079    3.4342 H         1 ATP         0.1325
     37 H3'         1.5907    1.4859    1.1353 H         1 ATP         0.0782
     38 HO3'        2.1521    0.9800    3.3017 H         1 ATP         0.4062
     39 H2'        -0.0017    0.0018    0.0005 H         1 ATP         0.0689
     40 HO2'        0.9369   -2.0558    0.0825 H         1 ATP         0.4089
     41 H1'        -0.1998   -1.6319    2.6178 H         1 ATP         0.1098
     42 H8         -2.4515   -0.0599   -0.0829 H         1 ATP         0.0929
     43 HN62       -5.1990   -5.4882   -0.2005 H         1 ATP         0.3678
     44 H2         -1.8555   -5.7783    2.8388 H         1 ATP         0.0383
     45 H45        -3.6312   -6.1750    1.4526 H         1 ATP         0.4286
@<TRIPOS>BOND
     1    1    2 2
     2    1    3 1
     3    1    4 1
     4    1    8 1
     5    4   32 1
     6    5    6 2
     7    5    7 1
     8    5    8 1
     9    5   12 1
    10    9   10 2
    11    9   11 1
    12    9   12 1
    13    9   13 1
    14   11   33 1
    15   13   14 1
    16   14   15 1
    17   14   34 1
    18   14   35 1
    19   15   16 1
    20   15   17 1
    21   15   36 1
    22   16   21 1
    23   17   18 1
    24   17   19 1
    25   17   37 1
    26   18   38 1
    27   19   20 1
    28   19   21 1
    29   19   39 1
    30   20   40 1
    31   21   22 1
    32   21   41 1
    33   22   23 ar
    34   22   31 ar
    35   23   24 ar
    36   23   42 1
    37   24   25 ar
    38   25   26 ar
    39   25   31 ar
    40   26   27 2
    41   26   28 ar
    42   27   43 1
    43   28   29 ar
    44   28   45 1
    45   29   30 ar
    46   29   44 1
    47   30   31 ar
@<TRIPOS>SUBSTRUCTURE
     1 ATP         1 GROUP 0 A     ****
@<TRIPOS>MOLECULE
[[[3,4-dihydroxy-5-(6-imino-1~{H}-purin-9-yl)tetrahydrofuran-2-yl]methoxy-hydroxy-phosphoryl]oxy-oxido-phosphoryl] hydrogen phosphate
   45    47     1     0     0
SMALL
USER_CHARGES

@<TRIPOS>ATOM
      1 PG          8.1060    1.0687   -0.8586 P.3       1 ATP         1.5414
      2 O1G         8.7062   -0.1170   -0.1365 O.co2     1 ATP        -0.8562
      3 O2G         8.9763    2.0187   -1.6508 O.co2     1 ATP        -0.8562
      4 O3G         6.9066    0.5325   -1.8282 O.3       1 ATP        -0.7907
      5 PB          7.6490    2.7976    1.5003 P.3       1 ATP         1.6574
      6 O1B         8.1826    1.8509    2.5522 O.co2     1 ATP        -0.8530
      7 O2B         8.4602    3.9877    1.0384 O.co2     1 ATP        -0.8530
      8 O3B         7.2041    1.9278    0.1937 O.3       1 ATP        -0.8003
      9 PA          5.0667    4.2152    1.2112 P.3       1 ATP         1.7415
     10 O1A         5.5454    5.5831    0.8194 O.2       1 ATP        -0.8661
     11 O2A         3.8203    4.2161    2.2428 O.3       1 ATP        -0.8077
     12 O3A         6.1762    3.3179    1.9732 O.3       1 ATP        -0.7685
     13 O5'         4.5673    3.2930   -0.0211 O.3       1 ATP        -0.5590
     14 C5'         4.0922    1.9801    0.2227 C.3       1 ATP         0.1960
     15 C4'         2.5944    2.0310    0.4653 C.3       1 ATP         0.0976
     16 O4'         1.9327    2.5740   -0.6889 O.3       1 ATP        -0.3865
     17 C3'         1.9685    0.6634    0.6767 C.3       1 ATP         0.0901
     18 O3'         2.1425    0.1975    1.9977 O.3       1 ATP        -0.5889
     19 C2'         0.5176    0.9128    0.3099 C.3       1 ATP         0.0574
     20 O2'        -0.2103    1.4454    1.4152 O.3       1 ATP        -0.5923
     21 C1'         0.6219    1.9765   -0.7844 C.3       1 ATP         0.2452
     22 N9          0.4237    1.4496   -2.1357 N.pl3     1 ATP        -0.1834
     23 C8          1.4069    0.9710   -2.9662 C.ar      1 ATP         0.4338
     24 N7          0.9316    0.5623   -4.1260 N.2       1 ATP        -0.6101
     25 C5         -0.4120    0.7884   -4.0344 C.ar      1 ATP         0.2154
     26 C6         -1.4353    0.5283   -5.0204 C.ar      1 ATP         0.6130
     27 N6         -1.1199    0.0176   -6.1586 N.2       1 ATP        -0.8165
     28 N1         -2.6704    0.9095   -4.5147 N.pl3     1 ATP        -0.8617
     29 C2         -2.8863    1.4571   -3.2520 C.ar      1 ATP         0.6151
     30 N3         -1.9805    1.7017   -2.3442 N.2       1 ATP        -0.5797
     31 C4         -0.7561    1.3381   -2.8112 C.ar      1 ATP         0.0328
     32 HOG3        6.4149    1.1875   -2.3682 H         1 ATP         0.4197
     33 HOA2        3.9301    4.6439    3.1187 H         1 ATP         0.4550
     34 H5'1        4.3175    1.3541   -0.6468 H         1 ATP         0.0431
     35 H5'2        4.6079    1.5730    1.0985 H         1 ATP         0.0431
     36 H4'         2.3752    2.7029    1.3156 H         1 ATP         0.1325
     37 H3'         2.4336   -0.1217   -0.0016 H         1 ATP         0.0782
     38 HO3'        1.7160   -0.6716    2.0397 H         1 ATP         0.4062
     39 H2'         0.0316    0.0155   -0.0339 H         1 ATP         0.0689
     40 HO2'       -0.1608    0.7921    2.1351 H         1 ATP         0.4089
     41 H1'        -0.1474    2.7798   -0.6651 H         1 ATP         0.1098
     42 H8          2.4466    0.9468   -2.6694 H         1 ATP         0.0929
     43 HN62       -1.9661   -0.0965   -6.7275 H         1 ATP         0.3678
     44 H2         -3.9481    1.6825   -3.0660 H         1 ATP         0.0383
     45 H45        -3.4814    0.7753   -5.1133 H         1 ATP         0.4286
@<TRIPOS>BOND
     1    1    2 2
     2    1    3 1
     3    1    4 1
     4    1    8 1
     5    4   32 1
     6    5    6 2
     7    5    7 1
     8    5    8 1
     9    5   12 1
    10    9   10 2
    11    9   11 1
    12    9   12 1
    13    9   13 1
    14   11   33 1
    15   13   14 1
    16   14   15 1
    17   14   34 1
    18   14   35 1
    19   15   16 1
    20   15   17 1
    21   15   36 1
    22   16   21 1
    23   17   18 1
    24   17   19 1
    25   17   37 1
    26   18   38 1
    27   19   20 1
    28   19   21 1
    29   19   39 1
    30   20   40 1
    31   21   22 1
    32   21   41 1
    33   22   23 ar
    34   22   31 ar
    35   23   24 ar
    36   23   42 1
    37   24   25 ar
    38   25   26 ar
    39   25   31 ar
    40   26   27 2
    41   26   28 ar
    42   27   43 1
    43   28   29 ar
    44   28   45 1
    45   29   30 ar
    46   29   44 1
    47   30   31 ar
@<TRIPOS>SUBSTRUCTURE
     1 ATP         1 GROUP 0 A     ****
@<TRIPOS>MOLECULE
[[[3,4-dihydroxy-5-(6-imino-1~{H}-purin-9-yl)tetrahydrofuran-2-yl]methoxy-hydroxy-phosphoryl]oxy-oxido-phosphoryl] hydrogen phosphate
   45    47     1     0     0
SMALL
USER_CHARGES

@<TRIPOS>ATOM
      1 PG          1.3622    2.6535    6.0390 P.3       1 ATP         1.5414
      2 O1G         0.7105    1.6723    6.9877 O.co2     1 ATP        -0.8562
      3 O2G         2.2125    3.7908    6.5596 O.co2     1 ATP        -0.8562
      4 O3G         2.2333    1.8138    4.9425 O.3       1 ATP        -0.7907
      5 PB         -1.0509    4.2238    5.3509 P.3       1 ATP         1.6574
      6 O1B        -2.0402    3.4587    6.2016 O.co2     1 ATP        -0.8530
      7 O2B        -0.5381    5.5803    5.7804 O.co2     1 ATP        -0.8530
      8 O3B         0.2249    3.2563    5.0380 O.3       1 ATP        -0.8003
      9 PA         -1.0028    4.9145    2.4731 P.3       1 ATP         1.7415
     10 O1A        -0.1757    6.1539    2.6562 O.2       1 ATP        -0.8661
     11 O2A        -2.2844    5.1064    1.5043 O.3       1 ATP        -0.8077
     12 O3A        -1.6550    4.3452    3.8396 O.3       1 ATP        -0.7685
     13 O5'        -0.2068    3.6554    1.8412 O.3       1 ATP        -0.5590
     14 C5'        -0.8811    2.4285    1.6206 C.3       1 ATP         0.1960
     15 C4'        -0.1994    1.3333    2.4288 C.3       1 ATP         0.0976
     16 O4'        -1.1285    0.2356    2.5840 O.3       1 ATP        -0.3865
     17 C3'         1.0324    0.7610    1.7344 C.3       1 ATP         0.0901
     18 O3'         1.9175    0.2377    2.7247 O.3       1 ATP        -0.5889
     19 C2'         0.4468   -0.3802    0.9263 C.3       1 ATP         0.0574
     20 O2'         1.3993   -1.3703    0.5961 O.3       1 ATP        -0.5923
     21 C1'        -0.6159   -0.9100    1.8769 C.3       1 ATP         0.2452
     22 N9         -1.7127   -1.6108    1.2130 N.pl3     1 ATP        -0.1834
     23 C8         -2.8662   -1.0361    0.7388 C.ar      1 ATP         0.4338
     24 N7         -3.6774   -1.9166    0.1867 N.2       1 ATP        -0.6101
     25 C5         -3.0159   -3.1045    0.3122 C.ar      1 ATP         0.2154
     26 C6         -3.4377   -4.4169   -0.1199 C.ar      1 ATP         0.6130
     27 N6         -4.5720   -4.5691   -0.7080 N.2       1 ATP        -0.8165
     28 N1         -2.4600   -5.3463    0.2071 N.pl3     1 ATP        -0.8617
     29 C2         -1.2595   -5.0554    0.8515 C.ar      1 ATP         0.6151
     30 N3         -0.8555   -3.8803    1.2516 N.2       1 ATP        -0.5797
     31 C4         -1.7946   -2.9457    0.9448 C.ar      1 ATP         0.0328
     32 HOG3        2.7202    2.3127    4.2523 H         1 ATP         0.4197
     33 HOA2       -2.1388    5.3842    0.5749 H         1 ATP         0.4550
     34 H5'1       -1.9259    2.5372    1.9293 H         1 ATP         0.0431
     35 H5'2       -0.8477    2.1923    0.5521 H         1 ATP         0.0431
     36 H4'         0.0402    1.7079    3.4342 H         1 ATP         0.1325
     37 H3'         1.5907    1.4859    1.1353 H         1 ATP         0.0782
     38 HO3'        2.6839   -0.1150    2.2479 H         1 ATP         0.4062
     39 H2'        -0.0017    0.0018    0.0005 H         1 ATP         0.0689
     40 HO2'        2.0953   -0.9375    0.0709 H         1 ATP         0.4089
     41 H1'        -0.1998   -1.6319    2.6178 H         1 ATP         0.1098
     42 H8         -3.0558    0.0252    0.8256 H         1 ATP         0.0929
     43 HN62       -4.7047   -5.5592   -0.9421 H         1 ATP         0.3678
     44 H2         -0.6372   -5.9505    1.0077 H         1 ATP         0.0383
     45 H45        -2.6338   -6.3155   -0.0469 H         1 ATP         0.4286
@<TRIPOS>BOND
     1    1    2 2
     2    1    3 1
     3    1    4 1
     4    1    8 1
     5    4   32 1
     6    5    6 2
     7    5    7 1
     8    5    8 1
     9    5   12 1
    10    9   10 2
    11    9   11 1
    12    9   12 1
    13    9   13 1
    14   11   33 1
    15   13   14 1
    16   14   15 1
    17   14   34 1
    18   14   35 1
    19   15   16 1
    20   15   17 1
    21   15   36 1
    22   16   21 1
    23   17   18 1
    24   17   19 1
    25   17   37 1
    26   18   38 1
    27   19   20 1
    28   19   21 1
    29   19   39 1
    30   20   40 1
    31   21   22 1
    32   21   41 1
    33   22   23 ar
    34   22   31 ar
    35   23   24 ar
    36   23   42 1
    37   24   25 ar
    38   25   26 ar
    39   25   31 ar
    40   26   27 2
    41   26   28 ar
    42   27   43 1
    43   28   29 ar
    44   28   45 1
    45   29   30 ar
    46   29   44 1
    47   30   31 ar
@<TRIPOS>SUBSTRUCTURE
     1 ATP         1 GROUP 0 A     ****
@<TRIPOS>MOLECULE
[[[3,4-dihydroxy-5-(6-imino-1~{H}-purin-9-yl)tetrahydrofuran-2-yl]methoxy-hydroxy-phosphoryl]oxy-oxido-phosphoryl] hydrogen phosphate
   45    47     1     0     0
SMALL
USER_CHARGES

@<TRIPOS>ATOM
      1 PG          1.3677    7.1728    5.0777 P.3       1 ATP         1.5414
      2 O1G         0.5325    7.9247    6.0899 O.co2     1 ATP        -0.8562
      3 O2G         2.3694    7.8959    4.2052 O.co2     1 ATP        -0.8562
      4 O3G         2.1331    5.9501    5.8428 O.3       1 ATP        -0.7907
      5 PB         -0.7353    6.7594    3.0360 P.3       1 ATP         1.6574
      6 O1B        -1.8653    7.4510    3.7657 O.co2     1 ATP        -0.8530
      7 O2B        -0.0280    7.4296    1.8792 O.co2     1 ATP        -0.8530
      8 O3B         0.3797    6.2876    4.1296 O.3       1 ATP        -0.8003
      9 PA         -1.9403    4.0773    3.3760 P.3       1 ATP         1.7415
     10 O1A        -3.2371    4.4398    4.0398 O.2       1 ATP        -0.8661
     11 O2A        -0.7734    3.6204    4.3995 O.3       1 ATP        -0.8077
     12 O3A        -1.2556    5.2898    2.5529 O.3       1 ATP        -0.7685
     13 O5'        -2.0397    2.8622    2.3122 O.3       1 ATP        -0.5590
     14 C5'        -0.8811    2.4285    1.6206 C.3       1 ATP         0.1960
     15 C4'        -0.1994    1.3333    2.4288 C.3       1 ATP         0.0976
     16 O4'        -1.1285    0.2356    2.5840 O.3       1 ATP        -0.3865
     17 C3'         1.0324    0.7610    1.7344 C.3       1 ATP         0.0901
     18 O3'         1.9175    0.2377    2.7247 O.3       1 ATP        -0.5889
     19 C2'         0.4468   -0.3802    0.9263 C.3       1 ATP         0.0574
     20 O2'         1.3993   -1.3703    0.5961 O.3       1 ATP        -0.5923
     21 C1'        -0.6159   -0.9100    1.8769 C.3       1 ATP         0.2452
     22 N9         -1.7127   -1.6108    1.2130 N.pl3     1 ATP        -0.1834
     23 C8         -2.5485   -1.0808    0.2609 C.ar      1 ATP         0.4338
     24 N7         -3.4476   -1.9486   -0.1593 N.2       1 ATP        -0.6101
     25 C5         -3.1762   -3.0816    0.5530 C.ar      1 ATP         0.2154
     26 C6         -3.8510   -4.3579    0.5006 C.ar      1 ATP         0.6130
     27 N6         -4.8468   -4.5293   -0.2961 N.2       1 ATP        -0.8165
     28 N1         -3.2499   -5.2342    1.3937 N.pl3     1 ATP        -0.8617
     29 C2         -2.1646   -4.9275    2.2116 C.ar      1 ATP         0.6151
     30 N3         -1.5382   -3.7840    2.2778 N.2       1 ATP        -0.5797
     31 C4         -2.1054   -2.9018    1.4120 C.ar      1 ATP         0.0328
     32 HOG3        1.5898    5.2675    6.2914 H         1 ATP         0.4197
     33 HOA2       -0.4720    4.2516    5.0872 H         1 ATP         0.4550
     34 H5'1       -1.1761    2.0499    0.6365 H         1 ATP         0.0431
     35 H5'2       -0.2073    3.2811    1.4874 H         1 ATP         0.0431
     36 H4'         0.0402    1.7079    3.4342 H         1 ATP         0.1325
     37 H3'         1.5907    1.4859    1.1353 H         1 ATP         0.0782
     38 HO3'        2.1521    0.9800    3.3017 H         1 ATP         0.4062
     39 H2'        -0.0017    0.0018    0.0005 H         1 ATP         0.0689
     40 HO2'        0.9369   -2.0558    0.0825 H         1 ATP         0.4089
     41 H1'        -0.1998   -1.6319    2.6178 H         1 ATP         0.1098
     42 H8         -2.4515   -0.0599   -0.0829 H         1 ATP         0.0929
     43 HN62       -5.1990   -5.4882   -0.2005 H         1 ATP         0.3678
     44 H2         -1.8555   -5.7783    2.8388 H         1 ATP         0.0383
     45 H45        -3.6312   -6.1750    1.4526 H         1 ATP         0.4286
@<TRIPOS>BOND
     1    1    2 2
     2    1    3 1
     3    1    4 1
     4    1    8 1
     5    4   32 1
     6    5    6 2
     7    5    7 1
     8    5    8 1
     9    5   12 1
    10    9   10 2
    11    9   11 1
    12    9   12 1
    13    9   13 1
    14   11   33 1
    15   13   14 1
    16   14   15 1
    17   14   34 1
    18   14   35 1
    19   15   16 1
    20   15   17 1
    21   15   36 1
    22   16   21 1
    23   17   18 1
    24   17   19 1
    25   17   37 1
    26   18   38 1
    27   19   20 1
    28   19   21 1
    29   19   39 1
    30   20   40 1
    31   21   22 1
    32   21   41 1
    33   22   23 ar
    34   22   31 ar
    35   23   24 ar
    36   23   42 1
    37   24   25 ar
    38   25   26 ar
    39   25   31 ar
    40   26   27 2
    41   26   28 ar
    42   27   43 1
    43   28   29 ar
    44   28   45 1
    45   29   30 ar
    46   29   44 1
    47   30   31 ar
@<TRIPOS>SUBSTRUCTURE
     1 ATP         1 GROUP 0 A     ****
@<TRIPOS>MOLECULE
[[[3,4-dihydroxy-5-(6-imino-1~{H}-purin-9-yl)tetrahydrofuran-2-yl]methoxy-hydroxy-phosphoryl]oxy-oxido-phosphoryl] hydrogen phosphate
   45    47     1     0     0
SMALL
USER_CHARGES

@<TRIPOS>ATOM
      1 PG         -3.1512    5.3514   -3.7020 P.3       1 ATP         1.5414
      2 O1G        -4.6263    5.1482   -3.4366 O.co2     1 ATP        -0.8562
      3 O2G        -2.4741    4.6860   -4.8795 O.co2     1 ATP        -0.8562
      4 O3G        -2.8528    6.9553   -3.7700 O.3       1 ATP        -0.7907
      5 PB         -0.7321    5.1893   -2.0039 P.3       1 ATP         1.6574
      6 O1B         0.0628    4.2403   -2.8730 O.co2     1 ATP        -0.8530
      7 O2B        -0.4119    6.6671   -1.9672 O.co2     1 ATP        -0.8530
      8 O3B        -2.3168    5.0047   -2.3447 O.3       1 ATP        -0.8003
      9 PA          0.4650    4.4450    0.5988 P.3       1 ATP         1.7415
     10 O1A         1.1480    5.7304    0.9659 O.2       1 ATP        -0.8661
     11 O2A         1.4339    3.3508   -0.0954 O.3       1 ATP        -0.8077
     12 O3A        -0.7315    4.6139   -0.4766 O.3       1 ATP        -0.7685
     13 O5'        -0.2068    3.6554    1.8412 O.3       1 ATP        -0.5590
     14 C5'        -0.8811    2.4285    1.6206 C.3       1 ATP         0.1960
     15 C4'        -0.1994    1.3333    2.4288 C.3       1 ATP         0.0976
     16 O4'        -1.1285    0.2356    2.5840 O.3       1 ATP        -0.3865
     17 C3'         1.0324    0.7610    1.7344 C.3       1 ATP         0.0901
     18 O3'         1.9175    0.2377    2.7247 O.3       1 ATP        -0.5889
     19 C2'         0.4468   -0.3802    0.9263 C.3       1 ATP         0.0574
     20 O2'         1.3993   -1.3703    0.5961 O.3       1 ATP        -0.5923
     21 C1'        -0.6159   -0.9100    1.8769 C.3       1 ATP         0.2452
     22 N9         -1.7127   -1.6108    1.2130 N.pl3     1 ATP        -0.1834
     23 C8         -2.8662   -1.0361    0.7388 C.ar      1 ATP         0.4338
     24 N7         -3.6774   -1.9166    0.1867 N.2       1 ATP        -0.6101
     25 C5         -3.0159   -3.1045    0.3122 C.ar      1 ATP         0.2154
     26 C6         -3.4377   -4.4169   -0.1199 C.ar      1 ATP         0.6130
     27 N6         -4.5720   -4.5691   -0.7080 N.2       1 ATP        -0.8165
     28 N1         -2.4600   -5.3463    0.2071 N.pl3     1 ATP        -0.8617
     29 C2         -1.2595   -5.0554    0.8515 C.ar      1 ATP         0.6151
     30 N3         -0.8555   -3.8803    1.2516 N.2       1 ATP        -0.5797
     31 C4         -1.7946   -2.9457    0.9448 C.ar      1 ATP         0.0328
     32 HOG3       -1.9328    7.2522   -3.9371 H         1 ATP         0.4197
     33 HOA2        1.8833    3.5812   -0.9363 H         1 ATP         0.4550
     34 H5'1       -1.9259    2.5372    1.9293 H         1 ATP         0.0431
     35 H5'2       -0.8477    2.1923    0.5521 H         1 ATP         0.0431
     36 H4'         0.0402    1.7079    3.4342 H         1 ATP         0.1325
     37 H3'         1.5907    1.4859    1.1353 H         1 ATP         0.0782
     38 HO3'        2.6839   -0.1150    2.2479 H         1 ATP         0.4062
     39 H2'        -0.0017    0.0018    0.0005 H         1 ATP         0.0689
     40 HO2'        2.0953   -0.9375    0.0709 H         1 ATP         0.4089
     41 H1'        -0.1998   -1.6319    2.6178 H         1 ATP         0.1098
     42 H8         -3.0558    0.0252    0.8256 H         1 ATP         0.0929
     43 HN62       -4.7047   -5.5592   -0.9421 H         1 ATP         0.3678
     44 H2         -0.6372   -5.9505    1.0077 H         1 ATP         0.0383
     45 H45        -2.6338   -6.3155   -0.0469 H         1 ATP         0.4286
@<TRIPOS>BOND
     1    1    2 2
     2    1    3 1
     3    1    4 1
     4    1    8 1
     5    4   32 1
     6    5    6 2
     7    5    7 1
     8    5    8 1
     9    5   12 1
    10    9   10 2
    11    9   11 1
    12    9   12 1
    13    9   13 1
    14   11   33 1
    15   13   14 1
    16   14   15 1
    17   14   34 1
    18   14   35 1
    19   15   16 1
    20   15   17 1
    21   15   36 1
    22   16   21 1
    23   17   18 1
    24   17   19 1
    25   17   37 1
    26   18   38 1
    27   19   20 1
    28   19   21 1
    29   19   39 1
    30   20   40 1
    31   21   22 1
    32   21   41 1
    33   22   23 ar
    34   22   31 ar
    35   23   24 ar
    36   23   42 1
    37   24   25 ar
    38   25   26 ar
    39   25   31 ar
    40   26   27 2
    41   26   28 ar
    42   27   43 1
    43   28   29 ar
    44   28   45 1
    45   29   30 ar
    46   29   44 1
    47   30   31 ar
@<TRIPOS>SUBSTRUCTURE
     1 ATP         1 GROUP 0 A     ****
@<TRIPOS>MOLECULE
[[[3,4-dihydroxy-5-(6-imino-1~{H}-purin-9-yl)tetrahydrofuran-2-yl]methoxy-hydroxy-phosphoryl]oxy-oxido-phosphoryl] hydrogen phosphate
   45    47     1     0     0
SMALL
USER_CHARGES

@<TRIPOS>ATOM
      1 PG         -6.8726   -0.5032    2.4053 P.3       1 ATP         1.5414
      2 O1G        -7.8179    0.0671    3.4391 O.co2     1 ATP        -0.8562
      3 O2G        -6.6558   -1.9955    2.2891 O.co2     1 ATP        -0.8562
      4 O3G        -7.2978    0.0754    0.9388 O.3       1 ATP        -0.7907
      5 PB         -4.3280    0.1796    3.7549 P.3       1 ATP         1.6574
      6 O1B        -4.9191    0.8486    4.9759 O.co2     1 ATP        -0.8530
      7 O2B        -3.7583   -1.2195    3.8310 O.co2     1 ATP        -0.8530
      8 O3B        -5.4251    0.2337    2.5486 O.3       1 ATP        -0.8003
      9 PA         -3.2760    2.7242    2.6690 P.3       1 ATP         1.7415
     10 O1A        -4.0714    3.5946    3.5982 O.2       1 ATP        -0.8661
     11 O2A        -3.8642    2.6452    1.1638 O.3       1 ATP        -0.8077
     12 O3A        -3.1998    1.1719    3.1176 O.3       1 ATP        -0.7685
     13 O5'        -1.7334    3.1724    2.4743 O.3       1 ATP        -0.5590
     14 C5'        -0.8811    2.4285    1.6206 C.3       1 ATP         0.1960
     15 C4'        -0.1994    1.3333    2.4288 C.3       1 ATP         0.0976
     16 O4'        -1.1285    0.2356    2.5840 O.3       1 ATP        -0.3865
     17 C3'         1.0324    0.7610    1.7344 C.3       1 ATP         0.0901
     18 O3'         1.9175    0.2377    2.7247 O.3       1 ATP        -0.5889
     19 C2'         0.4468   -0.3802    0.9263 C.3       1 ATP         0.0574
     20 O2'         1.3993   -1.3703    0.5961 O.3       1 ATP        -0.5923
     21 C1'        -0.6159   -0.9100    1.8769 C.3       1 ATP         0.2452
     22 N9         -1.7127   -1.6108    1.2130 N.pl3     1 ATP        -0.1834
     23 C8         -2.5485   -1.0808    0.2609 C.ar      1 ATP         0.4338
     24 N7         -3.4476   -1.9486   -0.1593 N.2       1 ATP        -0.6101
     25 C5         -3.1762   -3.0816    0.5530 C.ar      1 ATP         0.2154
     26 C6         -3.8510   -4.3579    0.5006 C.ar      1 ATP         0.6130
     27 N6         -4.8468   -4.5293   -0.2961 N.2       1 ATP        -0.8165
     28 N1         -3.2499   -5.2342    1.3937 N.pl3     1 ATP        -0.8617
     29 C2         -2.1646   -4.9275    2.2116 C.ar      1 ATP         0.6151
     30 N3         -1.5382   -3.7840    2.2778 N.2       1 ATP        -0.5797
     31 C4         -2.1054   -2.9018    1.4120 C.ar      1 ATP         0.0328
     32 HOG3       -6.7753   -0.2047    0.1572 H         1 ATP         0.4197
     33 HOA2       -4.7721    2.2999    1.0270 H         1 ATP         0.4550
     34 H5'1       -1.4795    1.9922    0.8142 H         1 ATP         0.0431
     35 H5'2       -0.1362    3.1035    1.1868 H         1 ATP         0.0431
     36 H4'         0.0402    1.7079    3.4342 H         1 ATP         0.1325
     37 H3'         1.5907    1.4859    1.1353 H         1 ATP         0.0782
     38 HO3'        2.1521    0.9800    3.3017 H         1 ATP         0.4062
     39 H2'        -0.0017    0.0018    0.0005 H         1 ATP         0.0689
     40 HO2'        0.9369   -2.0558    0.0825 H         1 ATP         0.4089
     41 H1'        -0.1998   -1.6319    2.6178 H         1 ATP         0.1098
     42 H8         -2.4515   -0.0599   -0.0829 H         1 ATP         0.0929
     43 HN62       -5.1990   -5.4882   -0.2005 H         1 ATP         0.3678
     44 H2         -1.8555   -5.7783    2.8388 H         1 ATP         0.0383
     45 H45        -3.6312   -6.1750    1.4526 H         1 ATP         0.4286
@<TRIPOS>BOND
     1    1    2 2
     2    1    3 1
     3    1    4 1
     4    1    8 1
     5    4   32 1
     6    5    6 2
     7    5    7 1
     8    5    8 1
     9    5   12 1
    10    9   10 2
    11    9   11 1
    12    9   12 1
    13    9   13 1
    14   11   33 1
    15   13   14 1
    16   14   15 1
    17   14   34 1
    18   14   35 1
    19   15   16 1
    20   15   17 1
    21   15   36 1
    22   16   21 1
    23   17   18 1
    24   17   19 1
    25   17   37 1
    26   18   38 1
    27   19   20 1
    28   19   21 1
    29   19   39 1
    30   20   40 1
    31   21   22 1
    32   21   41 1
    33   22   23 ar
    34   22   31 ar
    35   23   24 ar
    36   23   42 1
    37   24   25 ar
    38   25   26 ar
    39   25   31 ar
    40   26   27 2
    41   26   28 ar
    42   27   43 1
    43   28   29 ar
    44   28   45 1
    45   29   30 ar
    46   29   44 1
    47   30   31 ar
@<TRIPOS>SUBSTRUCTURE
     1 ATP         1 GROUP 0 A     ****
@<TRIPOS>MOLECULE
[[[3,4-dihydroxy-5-(6-imino-1~{H}-purin-9-yl)tetrahydrofuran-2-yl]methoxy-hydroxy-phosphoryl]oxy-oxido-phosphoryl] hydrogen phosphate
   45    47     1     0     0
SMALL
USER_CHARGES

@<TRIPOS>ATOM
      1 PG          9.8675    4.6033    0.7387 P.3       1 ATP         1.5414
      2 O1G        10.0321    4.1416   -0.6921 O.co2     1 ATP        -0.8562
      3 O2G        10.8535    4.1886    1.8079 O.co2     1 ATP        -0.8562
      4 O3G         9.7468    6.2317    0.7473 O.3       1 ATP        -0.7907
      5 PB          7.6490    2.7976    1.5003 P.3       1 ATP         1.6574
      6 O1B         7.5019    2.0861    0.1737 O.co2     1 ATP        -0.8530
      7 O2B         8.3282    2.1273    2.6738 O.co2     1 ATP        -0.8530
      8 O3B         8.3583    4.2437    1.2403 O.3       1 ATP        -0.8003
      9 PA          5.0667    4.2152    1.2112 P.3       1 ATP         1.7415
     10 O1A         5.5454    5.5831    0.8194 O.2       1 ATP        -0.8661
     11 O2A         3.8203    4.2161    2.2428 O.3       1 ATP        -0.8077
     12 O3A         6.1762    3.3179    1.9732 O.3       1 ATP        -0.7685
     13 O5'         4.5673    3.2930   -0.0211 O.3       1 ATP        -0.5590
     14 C5'         4.0922    1.9801    0.2227 C.3       1 ATP         0.1960
     15 C4'         2.5944    2.0310    0.4653 C.3       1 ATP         0.0976
     16 O4'         1.9327    2.5740   -0.6889 O.3       1 ATP        -0.3865
     17 C3'         1.9685    0.6634    0.6767 C.3       1 ATP         0.0901
     18 O3'         2.1425    0.1975    1.9977 O.3       1 ATP        -0.5889
     19 C2'         0.5176    0.9128    0.3099 C.3       1 ATP         0.0574
     20 O2'        -0.2103    1.4454    1.4152 O.3       1 ATP        -0.5923
     21 C1'         0.6219    1.9765   -0.7844 C.3       1 ATP         0.2452
     22 N9          0.4237    1.4496   -2.1357 N.pl3     1 ATP        -0.1834
     23 C8          1.4069    0.9710   -2.9662 C.ar      1 ATP         0.4338
     24 N7          0.9316    0.5623   -4.1260 N.2       1 ATP        -0.6101
     25 C5         -0.4120    0.7884   -4.0344 C.ar      1 ATP         0.2154
     26 C6         -1.4353    0.5283   -5.0204 C.ar      1 ATP         0.6130
     27 N6         -1.1199    0.0176   -6.1586 N.2       1 ATP        -0.8165
     28 N1         -2.6704    0.9095   -4.5147 N.pl3     1 ATP        -0.8617
     29 C2         -2.8863    1.4571   -3.2520 C.ar      1 ATP         0.6151
     30 N3         -1.9805    1.7017   -2.3442 N.2       1 ATP        -0.5797
     31 C4         -0.7561    1.3381   -2.8112 C.ar      1 ATP         0.0328
     32 HOG3        9.6347    6.6868    1.6091 H         1 ATP         0.4197
     33 HOA2        3.9301    4.6439    3.1187 H         1 ATP         0.4550
     34 H5'1        4.3175    1.3541   -0.6468 H         1 ATP         0.0431
     35 H5'2        4.6079    1.5730    1.0985 H         1 ATP         0.0431
     36 H4'         2.3752    2.7029    1.3156 H         1 ATP         0.1325
     37 H3'         2.4336   -0.1217   -0.0016 H         1 ATP         0.0782
     38 HO3'        1.7160   -0.6716    2.0397 H         1 ATP         0.4062
     39 H2'         0.0316    0.0155   -0.0339 H         1 ATP         0.0689
     40 HO2'       -0.1608    0.7921    2.1351 H         1 ATP         0.4089
     41 H1'        -0.1474    2.7798   -0.6651 H         1 ATP         0.1098
     42 H8          2.4466    0.9468   -2.6694 H         1 ATP         0.0929
     43 HN62       -1.9661   -0.0965   -6.7275 H         1 ATP         0.3678
     44 H2         -3.9481    1.6825   -3.0660 H         1 ATP         0.0383
     45 H45        -3.4814    0.7753   -5.1133 H         1 ATP         0.4286
@<TRIPOS>BOND
     1    1    2 2
     2    1    3 1
     3    1    4 1
     4    1    8 1
     5    4   32 1
     6    5    6 2
     7    5    7 1
     8    5    8 1
     9    5   12 1
    10    9   10 2
    11    9   11 1
    12    9   12 1
    13    9   13 1
    14   11   33 1
    15   13   14 1
    16   14   15 1
    17   14   34 1
    18   14   35 1
    19   15   16 1
    20   15   17 1
    21   15   36 1
    22   16   21 1
    23   17   18 1
    24   17   19 1
    25   17   37 1
    26   18   38 1
    27   19   20 1
    28   19   21 1
    29   19   39 1
    30   20   40 1
    31   21   22 1
    32   21   41 1
    33   22   23 ar
    34   22   31 ar
    35   23   24 ar
    36   23   42 1
    37   24   25 ar
    38   25   26 ar
    39   25   31 ar
    40   26   27 2
    41   26   28 ar
    42   27   43 1
    43   28   29 ar
    44   28   45 1
    45   29   30 ar
    46   29   44 1
    47   30   31 ar
@<TRIPOS>SUBSTRUCTURE
     1 ATP         1 GROUP 0 A     ****
@<TRIPOS>MOLECULE
[[[3,4-dihydroxy-5-(6-imino-1~{H}-purin-9-yl)tetrahydrofuran-2-yl]methoxy-hydroxy-phosphoryl]oxy-oxido-phosphoryl] hydrogen phosphate
   45    47     1     0     0
SMALL
USER_CHARGES

@<TRIPOS>ATOM
      1 PG         -6.5574    0.3554    5.3227 P.3       1 ATP         1.5414
      2 O1G        -6.2342   -0.8510    6.1756 O.co2     1 ATP        -0.8562
      3 O2G        -7.7198    0.3349    4.3553 O.co2     1 ATP        -0.8562
      4 O3G        -6.7186    1.6533    6.3003 O.3       1 ATP        -0.7907
      5 PB         -4.3720    0.0599    3.3482 P.3       1 ATP         1.6574
      6 O1B        -3.7416   -1.1866    3.9283 O.co2     1 ATP        -0.8530
      7 O2B        -5.2309   -0.0067    2.1050 O.co2     1 ATP        -0.8530
      8 O3B        -5.2116    0.8155    4.5254 O.3       1 ATP        -0.8003
      9 PA         -3.2760    2.7242    2.6690 P.3       1 ATP         1.7415
     10 O1A        -4.0714    3.5946    3.5982 O.2       1 ATP        -0.8661
     11 O2A        -3.8642    2.6452    1.1638 O.3       1 ATP        -0.8077
     12 O3A        -3.1998    1.1719    3.1176 O.3       1 ATP        -0.7685
     13 O5'        -1.7334    3.1724    2.4743 O.3       1 ATP        -0.5590
     14 C5'        -0.8811    2.4285    1.6206 C.3       1 ATP         0.1960
     15 C4'        -0.1994    1.3333    2.4288 C.3       1 ATP         0.0976
     16 O4'        -1.1285    0.2356    2.5840 O.3       1 ATP        -0.3865
     17 C3'         1.0324    0.7610    1.7344 C.3       1 ATP         0.0901
     18 O3'         1.9175    0.2377    2.7247 O.3       1 ATP        -0.5889
     19 C2'         0.4468   -0.3802    0.9263 C.3       1 ATP         0.0574
     20 O2'         1.3993   -1.3703    0.5961 O.3       1 ATP        -0.5923
     21 C1'        -0.6159   -0.9100    1.8769 C.3       1 ATP         0.2452
     22 N9         -1.7127   -1.6108    1.2130 N.pl3     1 ATP        -0.1834
     23 C8         -2.5485   -1.0808    0.2609 C.ar      1 ATP         0.4338
     24 N7         -3.4476   -1.9486   -0.1593 N.2       1 ATP        -0.6101
     25 C5         -3.1762   -3.0816    0.5530 C.ar      1 ATP         0.2154
     26 C6         -3.8510   -4.3579    0.5006 C.ar      1 ATP         0.6130
     27 N6         -4.8468   -4.5293   -0.2961 N.2       1 ATP        -0.8165
     28 N1         -3.2499   -5.2342    1.3937 N.pl3     1 ATP        -0.8617
     29 C2         -2.1646   -4.9275    2.2116 C.ar      1 ATP         0.6151
     30 N3         -1.5382   -3.7840    2.2778 N.2       1 ATP        -0.5797
     31 C4         -2.1054   -2.9018    1.4120 C.ar      1 ATP         0.0328
     32 HOG3       -6.9306    2.5205    5.8936 H         1 ATP         0.4197
     33 HOA2       -4.7721    2.2999    1.0270 H         1 ATP         0.4550
     34 H5'1       -1.4795    1.9922    0.8142 H         1 ATP         0.0431
     35 H5'2       -0.1362    3.1035    1.1868 H         1 ATP         0.0431
     36 H4'         0.0402    1.7079    3.4342 H         1 ATP         0.1325
     37 H3'         1.5907    1.4859    1.1353 H         1 ATP         0.0782
     38 HO3'        2.6839   -0.1150    2.2479 H         1 ATP         0.4062
     39 H2'        -0.0017    0.0018    0.0005 H         1 ATP         0.0689
     40 HO2'        2.0953   -0.9375    0.0709 H         1 ATP         0.4089
     41 H1'        -0.1998   -1.6319    2.6178 H         1 ATP         0.1098
     42 H8         -2.4515   -0.0599   -0.0829 H         1 ATP         0.0929
     43 HN62       -5.1990   -5.4882   -0.2005 H         1 ATP         0.3678
     44 H2         -1.8555   -5.7783    2.8388 H         1 ATP         0.0383
     45 H45        -3.6312   -6.1750    1.4526 H         1 ATP         0.4286
@<TRIPOS>BOND
     1    1    2 2
     2    1    3 1
     3    1    4 1
     4    1    8 1
     5    4   32 1
     6    5    6 2
     7    5    7 1
     8    5    8 1
     9    5   12 1
    10    9   10 2
    11    9   11 1
    12    9   12 1
    13    9   13 1
    14   11   33 1
    15   13   14 1
    16   14   15 1
    17   14   34 1
    18   14   35 1
    19   15   16 1
    20   15   17 1
    21   15   36 1
    22   16   21 1
    23   17   18 1
    24   17   19 1
    25   17   37 1
    26   18   38 1
    27   19   20 1
    28   19   21 1
    29   19   39 1
    30   20   40 1
    31   21   22 1
    32   21   41 1
    33   22   23 ar
    34   22   31 ar
    35   23   24 ar
    36   23   42 1
    37   24   25 ar
    38   25   26 ar
    39   25   31 ar
    40   26   27 2
    41   26   28 ar
    42   27   43 1
    43   28   29 ar
    44   28   45 1
    45   29   30 ar
    46   29   44 1
    47   30   31 ar
@<TRIPOS>SUBSTRUCTURE
     1 ATP         1 GROUP 0 A     ****
@<TRIPOS>MOLECULE
[[[3,4-dihydroxy-5-(6-imino-1~{H}-purin-9-yl)tetrahydrofuran-2-yl]methoxy-hydroxy-phosphoryl]oxy-oxido-phosphoryl] hydrogen phosphate
   45    47     1     0     0
SMALL
USER_CHARGES

@<TRIPOS>ATOM
      1 PG          7.4201    0.6368    3.4061 P.3       1 ATP         1.5414
      2 O1G         6.7476    0.3081    2.0919 O.co2     1 ATP        -0.8562
      3 O2G         6.7395    0.3396    4.7236 O.co2     1 ATP        -0.8562
      4 O3G         8.8995   -0.0543    3.4186 O.3       1 ATP        -0.7907
      5 PB          6.9860    3.5647    3.3685 P.3       1 ATP         1.6574
      6 O1B         5.9973    3.5100    4.5118 O.co2     1 ATP        -0.8530
      7 O2B         7.9097    4.7494    3.1920 O.co2     1 ATP        -0.8530
      8 O3B         7.8811    2.2008    3.3879 O.3       1 ATP        -0.8003
      9 PA          5.0667    4.2152    1.2112 P.3       1 ATP         1.7415
     10 O1A         5.5454    5.5831    0.8194 O.2       1 ATP        -0.8661
     11 O2A         3.8203    4.2161    2.2428 O.3       1 ATP        -0.8077
     12 O3A         6.1762    3.3179    1.9732 O.3       1 ATP        -0.7685
     13 O5'         4.5673    3.2930   -0.0211 O.3       1 ATP        -0.5590
     14 C5'         4.0922    1.9801    0.2227 C.3       1 ATP         0.1960
     15 C4'         2.5944    2.0310    0.4653 C.3       1 ATP         0.0976
     16 O4'         1.9327    2.5740   -0.6889 O.3       1 ATP        -0.3865
     17 C3'         1.9685    0.6634    0.6767 C.3       1 ATP         0.0901
     18 O3'         2.1425    0.1975    1.9977 O.3       1 ATP        -0.5889
     19 C2'         0.5176    0.9128    0.3099 C.3       1 ATP         0.0574
     20 O2'        -0.2103    1.4454    1.4152 O.3       1 ATP        -0.5923
     21 C1'         0.6219    1.9765   -0.7844 C.3       1 ATP         0.2452
     22 N9          0.4237    1.4496   -2.1357 N.pl3     1 ATP        -0.1834
     23 C8          1.4069    0.9710   -2.9662 C.ar      1 ATP         0.4338
     24 N7          0.9316    0.5623   -4.1260 N.2       1 ATP        -0.6101
     25 C5         -0.4120    0.7884   -4.0344 C.ar      1 ATP         0.2154
     26 C6         -1.4353    0.5283   -5.0204 C.ar      1 ATP         0.6130
     27 N6         -1.1199    0.0176   -6.1586 N.2       1 ATP        -0.8165
     28 N1         -2.6704    0.9095   -4.5147 N.pl3     1 ATP        -0.8617
     29 C2         -2.8863    1.4571   -3.2520 C.ar      1 ATP         0.6151
     30 N3         -1.9805    1.7017   -2.3442 N.2       1 ATP        -0.5797
     31 C4         -0.7561    1.3381   -2.8112 C.ar      1 ATP         0.0328
     32 HOG3        9.4652    0.0682    4.2107 H         1 ATP         0.4197
     33 HOA2        3.9301    4.6439    3.1187 H         1 ATP         0.4550
     34 H5'1        4.3175    1.3541   -0.6468 H         1 ATP         0.0431
     35 H5'2        4.6079    1.5730    1.0985 H         1 ATP         0.0431
     36 H4'         2.3752    2.7029    1.3156 H         1 ATP         0.1325
     37 H3'         2.4336   -0.1217   -0.0016 H         1 ATP         0.0782
     38 HO3'        1.7160   -0.6716    2.0397 H         1 ATP         0.4062
     39 H2'         0.0316    0.0155   -0.0339 H         1 ATP         0.0689
     40 HO2'       -0.1608    0.7921    2.1351 H         1 ATP         0.4089
     41 H1'        -0.1474    2.7798   -0.6651 H         1 ATP         0.1098
     42 H8          2.4466    0.9468   -2.6694 H         1 ATP         0.0929
     43 HN62       -1.9661   -0.0965   -6.7275 H         1 ATP         0.3678
     44 H2         -3.9481    1.6825   -3.0660 H         1 ATP         0.0383
     45 H45        -3.4814    0.7753   -5.1133 H         1 ATP         0.4286
@<TRIPOS>BOND
     1    1    2 2
     2    1    3 1
     3    1    4 1
     4    1    8 1
     5    4   32 1
     6    5    6 2
     7    5    7 1
     8    5    8 1
     9    5   12 1
    10    9   10 2
    11    9   11 1
    12    9   12 1
    13    9   13 1
    14   11   33 1
    15   13   14 1
    16   14   15 1
    17   14   34 1
    18   14   35 1
    19   15   16 1
    20   15   17 1
    21   15   36 1
    22   16   21 1
    23   17   18 1
    24   17   19 1
    25   17   37 1
    26   18   38 1
    27   19   20 1
    28   19   21 1
    29   19   39 1
    30   20   40 1
    31   21   22 1
    32   21   41 1
    33   22   23 ar
    34   22   31 ar
    35   23   24 ar
    36   23   42 1
    37   24   25 ar
    38   25   26 ar
    39   25   31 ar
    40   26   27 2
    41   26   28 ar
    42   27   43 1
    43   28   29 ar
    44   28   45 1
    45   29   30 ar
    46   29   44 1
    47   30   31 ar
@<TRIPOS>SUBSTRUCTURE
     1 ATP         1 GROUP 0 A     ****
@<TRIPOS>MOLECULE
[[[3,4-dihydroxy-5-(6-imino-1~{H}-purin-9-yl)tetrahydrofuran-2-yl]methoxy-hydroxy-phosphoryl]oxy-oxido-phosphoryl] hydrogen phosphate
   45    47     1     0     0
SMALL
USER_CHARGES

@<TRIPOS>ATOM
      1 PG         -5.6624    2.1449    0.3310 P.3       1 ATP         1.5414
      2 O1G        -5.7709    1.7700   -1.1303 O.co2     1 ATP        -0.8562
      3 O2G        -6.8303    2.7681    1.0626 O.co2     1 ATP        -0.8562
      4 O3G        -5.1661    0.8333    1.1673 O.3       1 ATP        -0.7907
      5 PB         -4.0260    4.5902    0.0070 P.3       1 ATP         1.6574
      6 O1B        -3.9033    4.5541   -1.5001 O.co2     1 ATP        -0.8530
      7 O2B        -4.9688    5.5558    0.6900 O.co2     1 ATP        -0.8530
      8 O3B        -4.3442    3.0815    0.5403 O.3       1 ATP        -0.8003
      9 PA         -2.0149    4.7373    2.1738 P.3       1 ATP         1.7415
     10 O1A        -2.9341    5.4101    3.1516 O.2       1 ATP        -0.8661
     11 O2A        -0.5416    5.3996    2.0809 O.3       1 ATP        -0.8077
     12 O3A        -2.5340    4.7752    0.6422 O.3       1 ATP        -0.7685
     13 O5'        -1.7334    3.1724    2.4743 O.3       1 ATP        -0.5590
     14 C5'        -0.8811    2.4285    1.6206 C.3       1 ATP         0.1960
     15 C4'        -0.1994    1.3333    2.4288 C.3       1 ATP         0.0976
     16 O4'        -1.1285    0.2356    2.5840 O.3       1 ATP        -0.3865
     17 C3'         1.0324    0.7610    1.7344 C.3       1 ATP         0.0901
     18 O3'         1.9175    0.2377    2.7247 O.3       1 ATP        -0.5889
     19 C2'         0.4468   -0.3802    0.9263 C.3       1 ATP         0.0574
     20 O2'         1.3993   -1.3703    0.5961 O.3       1 ATP        -0.5923
     21 C1'        -0.6159   -0.9100    1.8769 C.3       1 ATP         0.2452
     22 N9         -1.7127   -1.6108    1.2130 N.pl3     1 ATP        -0.1834
     23 C8         -2.8662   -1.0361    0.7388 C.ar      1 ATP         0.4338
     24 N7         -3.6774   -1.9166    0.1867 N.2       1 ATP        -0.6101
     25 C5         -3.0159   -3.1045    0.3122 C.ar      1 ATP         0.2154
     26 C6         -3.4377   -4.4169   -0.1199 C.ar      1 ATP         0.6130
     27 N6         -4.5720   -4.5691   -0.7080 N.2       1 ATP        -0.8165
     28 N1         -2.4600   -5.3463    0.2071 N.pl3     1 ATP        -0.8617
     29 C2         -1.2595   -5.0554    0.8515 C.ar      1 ATP         0.6151
     30 N3         -0.8555   -3.8803    1.2516 N.2       1 ATP        -0.5797
     31 C4         -1.7946   -2.9457    0.9448 C.ar      1 ATP         0.0328
     32 HOG3       -5.7247    0.0271    1.1456 H         1 ATP         0.4197
     33 HOA2       -0.4603    6.3394    1.8118 H         1 ATP         0.4550
     34 H5'1       -1.4795    1.9922    0.8142 H         1 ATP         0.0431
     35 H5'2       -0.1362    3.1035    1.1868 H         1 ATP         0.0431
     36 H4'         0.0402    1.7079    3.4342 H         1 ATP         0.1325
     37 H3'         1.5907    1.4859    1.1353 H         1 ATP         0.0782
     38 HO3'        2.6839   -0.1150    2.2479 H         1 ATP         0.4062
     39 H2'        -0.0017    0.0018    0.0005 H         1 ATP         0.0689
     40 HO2'        0.9369   -2.0558    0.0825 H         1 ATP         0.4089
     41 H1'        -0.1998   -1.6319    2.6178 H         1 ATP         0.1098
     42 H8         -3.0558    0.0252    0.8256 H         1 ATP         0.0929
     43 HN62       -4.7047   -5.5592   -0.9421 H         1 ATP         0.3678
     44 H2         -0.6372   -5.9505    1.0077 H         1 ATP         0.0383
     45 H45        -2.6338   -6.3155   -0.0469 H         1 ATP         0.4286
@<TRIPOS>BOND
     1    1    2 2
     2    1    3 1
     3    1    4 1
     4    1    8 1
     5    4   32 1
     6    5    6 2
     7    5    7 1
     8    5    8 1
     9    5   12 1
    10    9   10 2
    11    9   11 1
    12    9   12 1
    13    9   13 1
    14   11   33 1
    15   13   14 1
    16   14   15 1
    17   14   34 1
    18   14   35 1
    19   15   16 1
    20   15   17 1
    21   15   36 1
    22   16   21 1
    23   17   18 1
    24   17   19 1
    25   17   37 1
    26   18   38 1
    27   19   20 1
    28   19   21 1
    29   19   39 1
    30   20   40 1
    31   21   22 1
    32   21   41 1
    33   22   23 ar
    34   22   31 ar
    35   23   24 ar
    36   23   42 1
    37   24   25 ar
    38   25   26 ar
    39   25   31 ar
    40   26   27 2
    41   26   28 ar
    42   27   43 1
    43   28   29 ar
    44   28   45 1
    45   29   30 ar
    46   29   44 1
    47   30   31 ar
@<TRIPOS>SUBSTRUCTURE
     1 ATP         1 GROUP 0 A     ****
@<TRIPOS>MOLECULE
[[[3,4-dihydroxy-5-(6-imino-1~{H}-purin-9-yl)tetrahydrofuran-2-yl]methoxy-hydroxy-phosphoryl]oxy-oxido-phosphoryl] hydrogen phosphate
   45    47     1     0     0
SMALL
USER_CHARGES

@<TRIPOS>ATOM
      1 PG         -2.9399    3.6463   -2.7072 P.3       1 ATP         1.5414
      2 O1G        -2.9489    2.7532   -1.4867 O.co2     1 ATP        -0.8562
      3 O2G        -2.2787    3.2003   -3.9923 O.co2     1 ATP        -0.8562
      4 O3G        -4.4770    4.0856   -3.0396 O.3       1 ATP        -0.7907
      5 PB         -0.8563    5.5476   -1.8094 P.3       1 ATP         1.6574
      6 O1B         0.1423    5.0558   -2.8334 O.co2     1 ATP        -0.8530
      7 O2B        -0.8880    6.9991   -1.3854 O.co2     1 ATP        -0.8530
      8 O3B        -2.3529    5.1087   -2.2883 O.3       1 ATP        -0.8003
      9 PA          0.4650    4.4450    0.5988 P.3       1 ATP         1.7415
     10 O1A         1.1480    5.7304    0.9659 O.2       1 ATP        -0.8661
     11 O2A         1.4339    3.3508   -0.0954 O.3       1 ATP        -0.8077
     12 O3A        -0.7315    4.6139   -0.4766 O.3       1 ATP        -0.7685
     13 O5'        -0.2068    3.6554    1.8412 O.3       1 ATP        -0.5590
     14 C5'        -0.8811    2.4285    1.6206 C.3       1 ATP         0.1960
     15 C4'        -0.1994    1.3333    2.4288 C.3       1 ATP         0.0976
     16 O4'        -1.1285    0.2356    2.5840 O.3       1 ATP        -0.3865
     17 C3'         1.0324    0.7610    1.7344 C.3       1 ATP         0.0901
     18 O3'         1.9175    0.2377    2.7247 O.3       1 ATP        -0.5889
     19 C2'         0.4468   -0.3802    0.9263 C.3       1 ATP         0.0574
     20 O2'         1.3993   -1.3703    0.5961 O.3       1 ATP        -0.5923
     21 C1'        -0.6159   -0.9100    1.8769 C.3       1 ATP         0.2452
     22 N9         -1.7127   -1.6108    1.2130 N.pl3     1 ATP        -0.1834
     23 C8         -1.7690   -2.9583    0.9549 C.ar      1 ATP         0.4338
     24 N7         -2.8827   -3.3076    0.3418 N.2       1 ATP        -0.6101
     25 C5         -3.5683   -2.1351    0.2017 C.ar      1 ATP         0.2154
     26 C6         -4.8617   -1.9185   -0.4044 C.ar      1 ATP         0.6130
     27 N6         -5.5166   -2.9094   -0.8993 N.2       1 ATP        -0.8165
     28 N1         -5.1837   -0.5701   -0.3344 N.pl3     1 ATP        -0.8617
     29 C2         -4.3821    0.4180    0.2330 C.ar      1 ATP         0.6151
     30 N3         -3.2117    0.2488    0.7860 N.2       1 ATP        -0.5797
     31 C4         -2.8672   -1.0657    0.7327 C.ar      1 ATP         0.0328
     32 HOG3       -4.6389    4.6707   -3.8102 H         1 ATP         0.4197
     33 HOA2        1.8833    3.5812   -0.9363 H         1 ATP         0.4550
     34 H5'1       -1.9259    2.5372    1.9293 H         1 ATP         0.0431
     35 H5'2       -0.8477    2.1923    0.5521 H         1 ATP         0.0431
     36 H4'         0.0402    1.7079    3.4342 H         1 ATP         0.1325
     37 H3'         1.5907    1.4859    1.1353 H         1 ATP         0.0782
     38 HO3'        2.6839   -0.1150    2.2479 H         1 ATP         0.4062
     39 H2'        -0.0017    0.0018    0.0005 H         1 ATP         0.0689
     40 HO2'        0.9369   -2.0558    0.0825 H         1 ATP         0.4089
     41 H1'        -0.1998   -1.6319    2.6178 H         1 ATP         0.1098
     42 H8         -0.9697   -3.6300    1.2371 H         1 ATP         0.0929
     43 HN62       -6.4060   -2.5723   -1.2840 H         1 ATP         0.3678
     44 H2         -4.8409    1.4176    0.1757 H         1 ATP         0.0383
     45 H45        -6.0768   -0.2826   -0.7263 H         1 ATP         0.4286
@<TRIPOS>BOND
     1    1    2 2
     2    1    3 1
     3    1    4 1
     4    1    8 1
     5    4   32 1
     6    5    6 2
     7    5    7 1
     8    5    8 1
     9    5   12 1
    10    9   10 2
    11    9   11 1
    12    9   12 1
    13    9   13 1
    14   11   33 1
    15   13   14 1
    16   14   15 1
    17   14   34 1
    18   14   35 1
    19   15   16 1
    20   15   17 1
    21   15   36 1
    22   16   21 1
    23   17   18 1
    24   17   19 1
    25   17   37 1
    26   18   38 1
    27   19   20 1
    28   19   21 1
    29   19   39 1
    30   20   40 1
    31   21   22 1
    32   21   41 1
    33   22   23 ar
    34   22   31 ar
    35   23   24 ar
    36   23   42 1
    37   24   25 ar
    38   25   26 ar
    39   25   31 ar
    40   26   27 2
    41   26   28 ar
    42   27   43 1
    43   28   29 ar
    44   28   45 1
    45   29   30 ar
    46   29   44 1
    47   30   31 ar
@<TRIPOS>SUBSTRUCTURE
     1 ATP         1 GROUP 0 A     ****
@<TRIPOS>MOLECULE
[[[3,4-dihydroxy-5-(6-imino-1~{H}-purin-9-yl)tetrahydrofuran-2-yl]methoxy-hydroxy-phosphoryl]oxy-oxido-phosphoryl] hydrogen phosphate
   45    47     1     0     0
SMALL
USER_CHARGES

@<TRIPOS>ATOM
      1 PG          0.2705    7.8388   -1.1029 P.3       1 ATP         1.5414
      2 O1G        -0.3853    9.1699   -0.8102 O.co2     1 ATP        -0.8562
      3 O2G        -0.0828    7.0549   -2.3472 O.co2     1 ATP        -0.8562
      4 O3G         1.8905    8.0379   -1.0574 O.3       1 ATP        -0.7907
      5 PB         -1.2293    6.2027    0.8556 P.3       1 ATP         1.6574
      6 O1B        -2.0922    7.3071    1.4241 O.co2     1 ATP        -0.8530
      7 O2B        -1.7959    5.1926   -0.1173 O.co2     1 ATP        -0.8530
      8 O3B         0.1064    6.8707    0.1987 O.3       1 ATP        -0.8003
      9 PA         -1.1648    4.4707    3.2550 P.3       1 ATP         1.7415
     10 O1A        -2.1674    5.1697    4.1266 O.2       1 ATP        -0.8661
     11 O2A         0.1384    3.9257    4.0442 O.3       1 ATP        -0.8077
     12 O3A        -0.5308    5.4032    2.0951 O.3       1 ATP        -0.7685
     13 O5'        -1.7334    3.1724    2.4743 O.3       1 ATP        -0.5590
     14 C5'        -0.8811    2.4285    1.6206 C.3       1 ATP         0.1960
     15 C4'        -0.1994    1.3333    2.4288 C.3       1 ATP         0.0976
     16 O4'        -1.1285    0.2356    2.5840 O.3       1 ATP        -0.3865
     17 C3'         1.0324    0.7610    1.7344 C.3       1 ATP         0.0901
     18 O3'         1.9175    0.2377    2.7247 O.3       1 ATP        -0.5889
     19 C2'         0.4468   -0.3802    0.9263 C.3       1 ATP         0.0574
     20 O2'         1.3993   -1.3703    0.5961 O.3       1 ATP        -0.5923
     21 C1'        -0.6159   -0.9100    1.8769 C.3       1 ATP         0.2452
     22 N9         -1.7127   -1.6108    1.2130 N.pl3     1 ATP        -0.1834
     23 C8         -3.0370   -1.2489    1.2455 C.ar      1 ATP         0.4338
     24 N7         -3.8008   -2.0709    0.5534 N.2       1 ATP        -0.6101
     25 C5         -2.9295   -2.9976    0.0567 C.ar      1 ATP         0.2154
     26 C6         -3.2152   -4.1411   -0.7786 C.ar      1 ATP         0.6130
     27 N6         -4.4238   -4.3865   -1.1456 N.2       1 ATP        -0.8165
     28 N1         -2.0349   -4.8186   -1.0521 N.pl3     1 ATP        -0.8617
     29 C2         -0.7728   -4.4501   -0.5916 C.ar      1 ATP         0.6151
     30 N3         -0.4885   -3.4234    0.1630 N.2       1 ATP        -0.5797
     31 C4         -1.6274   -2.7377    0.4492 C.ar      1 ATP         0.0328
     32 HOG3        2.4615    7.2587   -1.2285 H         1 ATP         0.4197
     33 HOA2        0.7066    4.5674    4.5211 H         1 ATP         0.4550
     34 H5'1       -1.4795    1.9922    0.8142 H         1 ATP         0.0431
     35 H5'2       -0.1362    3.1035    1.1868 H         1 ATP         0.0431
     36 H4'         0.0402    1.7079    3.4342 H         1 ATP         0.1325
     37 H3'         1.5907    1.4859    1.1353 H         1 ATP         0.0782
     38 HO3'        2.6839   -0.1150    2.2479 H         1 ATP         0.4062
     39 H2'        -0.0017    0.0018    0.0005 H         1 ATP         0.0689
     40 HO2'        2.0953   -0.9375    0.0709 H         1 ATP         0.4089
     41 H1'        -0.1998   -1.6319    2.6178 H         1 ATP         0.1098
     42 H8         -3.3806   -0.3795    1.7893 H         1 ATP         0.0929
     43 HN62       -4.4384   -5.2300   -1.7295 H         1 ATP         0.3678
     44 H2          0.0180   -5.1355   -0.9348 H         1 ATP         0.0383
     45 H45        -2.0977   -5.6477   -1.6374 H         1 ATP         0.4286
@<TRIPOS>BOND
     1    1    2 2
     2    1    3 1
     3    1    4 1
     4    1    8 1
     5    4   32 1
     6    5    6 2
     7    5    7 1
     8    5    8 1
     9    5   12 1
    10    9   10 2
    11    9   11 1
    12    9   12 1
    13    9   13 1
    14   11   33 1
    15   13   14 1
    16   14   15 1
    17   14   34 1
    18   14   35 1
    19   15   16 1
    20   15   17 1
    21   15   36 1
    22   16   21 1
    23   17   18 1
    24   17   19 1
    25   17   37 1
    26   18   38 1
    27   19   20 1
    28   19   21 1
    29   19   39 1
    30   20   40 1
    31   21   22 1
    32   21   41 1
    33   22   23 ar
    34   22   31 ar
    35   23   24 ar
    36   23   42 1
    37   24   25 ar
    38   25   26 ar
    39   25   31 ar
    40   26   27 2
    41   26   28 ar
    42   27   43 1
    43   28   29 ar
    44   28   45 1
    45   29   30 ar
    46   29   44 1
    47   30   31 ar
@<TRIPOS>SUBSTRUCTURE
     1 ATP         1 GROUP 0 A     ****
@<TRIPOS>MOLECULE
[[[3,4-dihydroxy-5-(6-imino-1~{H}-purin-9-yl)tetrahydrofuran-2-yl]methoxy-hydroxy-phosphoryl]oxy-oxido-phosphoryl] hydrogen phosphate
   45    47     1     0     0
SMALL
USER_CHARGES

@<TRIPOS>ATOM
      1 PG         -2.9399    3.6463   -2.7072 P.3       1 ATP         1.5414
      2 O1G        -2.9489    2.7532   -1.4867 O.co2     1 ATP        -0.8562
      3 O2G        -2.2787    3.2003   -3.9923 O.co2     1 ATP        -0.8562
      4 O3G        -4.4770    4.0856   -3.0396 O.3       1 ATP        -0.7907
      5 PB         -0.8563    5.5476   -1.8094 P.3       1 ATP         1.6574
      6 O1B         0.1423    5.0558   -2.8334 O.co2     1 ATP        -0.8530
      7 O2B        -0.8880    6.9991   -1.3854 O.co2     1 ATP        -0.8530
      8 O3B        -2.3529    5.1087   -2.2883 O.3       1 ATP        -0.8003
      9 PA          0.4650    4.4450    0.5988 P.3       1 ATP         1.7415
     10 O1A         1.1480    5.7304    0.9659 O.2       1 ATP        -0.8661
     11 O2A         1.4339    3.3508   -0.0954 O.3       1 ATP        -0.8077
     12 O3A        -0.7315    4.6139   -0.4766 O.3       1 ATP        -0.7685
     13 O5'        -0.2068    3.6554    1.8412 O.3       1 ATP        -0.5590
     14 C5'        -0.8811    2.4285    1.6206 C.3       1 ATP         0.1960
     15 C4'        -0.1994    1.3333    2.4288 C.3       1 ATP         0.0976
     16 O4'        -1.1285    0.2356    2.5840 O.3       1 ATP        -0.3865
     17 C3'         1.0324    0.7610    1.7344 C.3       1 ATP         0.0901
     18 O3'         1.9175    0.2377    2.7247 O.3       1 ATP        -0.5889
     19 C2'         0.4468   -0.3802    0.9263 C.3       1 ATP         0.0574
     20 O2'         1.3993   -1.3703    0.5961 O.3       1 ATP        -0.5923
     21 C1'        -0.6159   -0.9100    1.8769 C.3       1 ATP         0.2452
     22 N9         -1.7127   -1.6108    1.2130 N.pl3     1 ATP        -0.1834
     23 C8         -2.5485   -1.0808    0.2609 C.ar      1 ATP         0.4338
     24 N7         -3.4476   -1.9486   -0.1593 N.2       1 ATP        -0.6101
     25 C5         -3.1762   -3.0816    0.5530 C.ar      1 ATP         0.2154
     26 C6         -3.8510   -4.3579    0.5006 C.ar      1 ATP         0.6130
     27 N6         -4.8468   -4.5293   -0.2961 N.2       1 ATP        -0.8165
     28 N1         -3.2499   -5.2342    1.3937 N.pl3     1 ATP        -0.8617
     29 C2         -2.1646   -4.9275    2.2116 C.ar      1 ATP         0.6151
     30 N3         -1.5382   -3.7840    2.2778 N.2       1 ATP        -0.5797
     31 C4         -2.1054   -2.9018    1.4120 C.ar      1 ATP         0.0328
     32 HOG3       -4.6389    4.6707   -3.8102 H         1 ATP         0.4197
     33 HOA2        1.8833    3.5812   -0.9363 H         1 ATP         0.4550
     34 H5'1       -1.9259    2.5372    1.9293 H         1 ATP         0.0431
     35 H5'2       -0.8477    2.1923    0.5521 H         1 ATP         0.0431
     36 H4'         0.0402    1.7079    3.4342 H         1 ATP         0.1325
     37 H3'         1.5907    1.4859    1.1353 H         1 ATP         0.0782
     38 HO3'        2.6839   -0.1150    2.2479 H         1 ATP         0.4062
     39 H2'        -0.0017    0.0018    0.0005 H         1 ATP         0.0689
     40 HO2'        2.0953   -0.9375    0.0709 H         1 ATP         0.4089
     41 H1'        -0.1998   -1.6319    2.6178 H         1 ATP         0.1098
     42 H8         -2.4515   -0.0599   -0.0829 H         1 ATP         0.0929
     43 HN62       -5.1990   -5.4882   -0.2005 H         1 ATP         0.3678
     44 H2         -1.8555   -5.7783    2.8388 H         1 ATP         0.0383
     45 H45        -3.6312   -6.1750    1.4526 H         1 ATP         0.4286
@<TRIPOS>BOND
     1    1    2 2
     2    1    3 1
     3    1    4 1
     4    1    8 1
     5    4   32 1
     6    5    6 2
     7    5    7 1
     8    5    8 1
     9    5   12 1
    10    9   10 2
    11    9   11 1
    12    9   12 1
    13    9   13 1
    14   11   33 1
    15   13   14 1
    16   14   15 1
    17   14   34 1
    18   14   35 1
    19   15   16 1
    20   15   17 1
    21   15   36 1
    22   16   21 1
    23   17   18 1
    24   17   19 1
    25   17   37 1
    26   18   38 1
    27   19   20 1
    28   19   21 1
    29   19   39 1
    30   20   40 1
    31   21   22 1
    32   21   41 1
    33   22   23 ar
    34   22   31 ar
    35   23   24 ar
    36   23   42 1
    37   24   25 ar
    38   25   26 ar
    39   25   31 ar
    40   26   27 2
    41   26   28 ar
    42   27   43 1
    43   28   29 ar
    44   28   45 1
    45   29   30 ar
    46   29   44 1
    47   30   31 ar
@<TRIPOS>SUBSTRUCTURE
     1 ATP         1 GROUP 0 A     ****
@<TRIPOS>MOLECULE
[[[3,4-dihydroxy-5-(6-imino-1~{H}-purin-9-yl)tetrahydrofuran-2-yl]methoxy-hydroxy-phosphoryl]oxy-oxido-phosphoryl] hydrogen phosphate
   45    47     1     0     0
SMALL
USER_CHARGES

@<TRIPOS>ATOM
      1 PG         -5.7086    3.0033   -2.6680 P.3       1 ATP         1.5414
      2 O1G        -5.8985    1.5324   -2.9642 O.co2     1 ATP        -0.8562
      3 O2G        -5.2219    3.9554   -3.7377 O.co2     1 ATP        -0.8562
      4 O3G        -7.0987    3.5903   -2.0441 O.3       1 ATP        -0.7907
      5 PB         -4.3552    4.4878   -0.4938 P.3       1 ATP         1.6574
      6 O1B        -3.4889    5.3735   -1.3615 O.co2     1 ATP        -0.8530
      7 O2B        -5.5948    5.0303    0.1821 O.co2     1 ATP        -0.8530
      8 O3B        -4.7633    3.1594   -1.3486 O.3       1 ATP        -0.8003
      9 PA         -2.5925    4.4094    1.8827 P.3       1 ATP         1.7415
     10 O1A        -3.4550    5.1144    2.8891 O.2       1 ATP        -0.8661
     11 O2A        -1.4926    5.3570    1.1685 O.3       1 ATP        -0.8077
     12 O3A        -3.4080    3.7839    0.6336 O.3       1 ATP        -0.7685
     13 O5'        -1.7334    3.1724    2.4743 O.3       1 ATP        -0.5590
     14 C5'        -0.8811    2.4285    1.6206 C.3       1 ATP         0.1960
     15 C4'        -0.1994    1.3333    2.4288 C.3       1 ATP         0.0976
     16 O4'        -1.1285    0.2356    2.5840 O.3       1 ATP        -0.3865
     17 C3'         1.0324    0.7610    1.7344 C.3       1 ATP         0.0901
     18 O3'         1.9175    0.2377    2.7247 O.3       1 ATP        -0.5889
     19 C2'         0.4468   -0.3802    0.9263 C.3       1 ATP         0.0574
     20 O2'         1.3993   -1.3703    0.5961 O.3       1 ATP        -0.5923
     21 C1'        -0.6159   -0.9100    1.8769 C.3       1 ATP         0.2452
     22 N9         -1.7127   -1.6108    1.2130 N.pl3     1 ATP        -0.1834
     23 C8         -2.0868   -2.9137    1.4327 C.ar      1 ATP         0.4338
     24 N7         -3.1125   -3.2756    0.6878 N.2       1 ATP        -0.6101
     25 C5         -3.4079   -2.1580   -0.0391 C.ar      1 ATP         0.2154
     26 C6         -4.4483   -1.9775   -1.0249 C.ar      1 ATP         0.6130
     27 N6         -5.2418   -2.9492   -1.3113 N.2       1 ATP        -0.8165
     28 N1         -4.3937   -0.6823   -1.5211 N.pl3     1 ATP        -0.8617
     29 C2         -3.4770    0.2901   -1.1271 C.ar      1 ATP         0.6151
     30 N3         -2.5289    0.1525   -0.2402 N.2       1 ATP        -0.5797
     31 C4         -2.5564   -1.1096    0.2655 C.ar      1 ATP         0.0328
     32 HOG3       -7.1357    4.5392   -1.7979 H         1 ATP         0.4197
     33 HOA2       -0.8196    5.8045    1.7244 H         1 ATP         0.4550
     34 H5'1       -1.4795    1.9922    0.8142 H         1 ATP         0.0431
     35 H5'2       -0.1362    3.1035    1.1868 H         1 ATP         0.0431
     36 H4'         0.0402    1.7079    3.4342 H         1 ATP         0.1325
     37 H3'         1.5907    1.4859    1.1353 H         1 ATP         0.0782
     38 HO3'        2.1521    0.9800    3.3017 H         1 ATP         0.4062
     39 H2'        -0.0017    0.0018    0.0005 H         1 ATP         0.0689
     40 HO2'        0.9369   -2.0558    0.0825 H         1 ATP         0.4089
     41 H1'        -0.1998   -1.6319    2.6178 H         1 ATP         0.1098
     42 H8         -1.5740   -3.5449    2.1457 H         1 ATP         0.0929
     43 HN62       -5.9117   -2.6433   -2.0256 H         1 ATP         0.3678
     44 H2         -3.6225    1.2454   -1.6553 H         1 ATP         0.0383
     45 H45        -5.0794   -0.4231   -2.2258 H         1 ATP         0.4286
@<TRIPOS>BOND
     1    1    2 2
     2    1    3 1
     3    1    4 1
     4    1    8 1
     5    4   32 1
     6    5    6 2
     7    5    7 1
     8    5    8 1
     9    5   12 1
    10    9   10 2
    11    9   11 1
    12    9   12 1
    13    9   13 1
    14   11   33 1
    15   13   14 1
    16   14   15 1
    17   14   34 1
    18   14   35 1
    19   15   16 1
    20   15   17 1
    21   15   36 1
    22   16   21 1
    23   17   18 1
    24   17   19 1
    25   17   37 1
    26   18   38 1
    27   19   20 1
    28   19   21 1
    29   19   39 1
    30   20   40 1
    31   21   22 1
    32   21   41 1
    33   22   23 ar
    34   22   31 ar
    35   23   24 ar
    36   23   42 1
    37   24   25 ar
    38   25   26 ar
    39   25   31 ar
    40   26   27 2
    41   26   28 ar
    42   27   43 1
    43   28   29 ar
    44   28   45 1
    45   29   30 ar
    46   29   44 1
    47   30   31 ar
@<TRIPOS>SUBSTRUCTURE
     1 ATP         1 GROUP 0 A     ****
@<TRIPOS>MOLECULE
[[[3,4-dihydroxy-5-(6-imino-1~{H}-purin-9-yl)tetrahydrofuran-2-yl]methoxy-hydroxy-phosphoryl]oxy-oxido-phosphoryl] hydrogen phosphate
   45    47     1     0     0
SMALL
USER_CHARGES

@<TRIPOS>ATOM
      1 PG         -3.7849    5.2306   -1.5182 P.3       1 ATP         1.5414
      2 O1G        -4.1408    6.6934   -1.3727 O.co2     1 ATP        -0.8562
      3 O2G        -3.7791    4.3089   -0.3191 O.co2     1 ATP        -0.8562
      4 O3G        -4.7392    4.5770   -2.6708 O.3       1 ATP        -0.7907
      5 PB         -0.8563    5.5476   -1.8094 P.3       1 ATP         1.6574
      6 O1B         0.1423    5.0558   -2.8334 O.co2     1 ATP        -0.8530
      7 O2B        -0.8880    6.9991   -1.3854 O.co2     1 ATP        -0.8530
      8 O3B        -2.3529    5.1087   -2.2883 O.3       1 ATP        -0.8003
      9 PA          0.4650    4.4450    0.5988 P.3       1 ATP         1.7415
     10 O1A         1.1480    5.7304    0.9659 O.2       1 ATP        -0.8661
     11 O2A         1.4339    3.3508   -0.0954 O.3       1 ATP        -0.8077
     12 O3A        -0.7315    4.6139   -0.4766 O.3       1 ATP        -0.7685
     13 O5'        -0.2068    3.6554    1.8412 O.3       1 ATP        -0.5590
     14 C5'        -0.8811    2.4285    1.6206 C.3       1 ATP         0.1960
     15 C4'        -0.1994    1.3333    2.4288 C.3       1 ATP         0.0976
     16 O4'        -1.1285    0.2356    2.5840 O.3       1 ATP        -0.3865
     17 C3'         1.0324    0.7610    1.7344 C.3       1 ATP         0.0901
     18 O3'         1.9175    0.2377    2.7247 O.3       1 ATP        -0.5889
     19 C2'         0.4468   -0.3802    0.9263 C.3       1 ATP         0.0574
     20 O2'         1.3993   -1.3703    0.5961 O.3       1 ATP        -0.5923
     21 C1'        -0.6159   -0.9100    1.8769 C.3       1 ATP         0.2452
     22 N9         -1.7127   -1.6108    1.2130 N.pl3     1 ATP        -0.1834
     23 C8         -2.8662   -1.0361    0.7388 C.ar      1 ATP         0.4338
     24 N7         -3.6774   -1.9166    0.1867 N.2       1 ATP        -0.6101
     25 C5         -3.0159   -3.1045    0.3122 C.ar      1 ATP         0.2154
     26 C6         -3.4377   -4.4169   -0.1199 C.ar      1 ATP         0.6130
     27 N6         -4.5720   -4.5691   -0.7080 N.2       1 ATP        -0.8165
     28 N1         -2.4600   -5.3463    0.2071 N.pl3     1 ATP        -0.8617
     29 C2         -1.2595   -5.0554    0.8515 C.ar      1 ATP         0.6151
     30 N3         -0.8555   -3.8803    1.2516 N.2       1 ATP        -0.5797
     31 C4         -1.7946   -2.9457    0.9448 C.ar      1 ATP         0.0328
     32 HOG3       -4.6289    3.6258   -2.8838 H         1 ATP         0.4197
     33 HOA2        1.8833    3.5812   -0.9363 H         1 ATP         0.4550
     34 H5'1       -1.9259    2.5372    1.9293 H         1 ATP         0.0431
     35 H5'2       -0.8477    2.1923    0.5521 H         1 ATP         0.0431
     36 H4'         0.0402    1.7079    3.4342 H         1 ATP         0.1325
     37 H3'         1.5907    1.4859    1.1353 H         1 ATP         0.0782
     38 HO3'        2.1521    0.9800    3.3017 H         1 ATP         0.4062
     39 H2'        -0.0017    0.0018    0.0005 H         1 ATP         0.0689
     40 HO2'        0.9369   -2.0558    0.0825 H         1 ATP         0.4089
     41 H1'        -0.1998   -1.6319    2.6178 H         1 ATP         0.1098
     42 H8         -3.0558    0.0252    0.8256 H         1 ATP         0.0929
     43 HN62       -4.7047   -5.5592   -0.9421 H         1 ATP         0.3678
     44 H2         -0.6372   -5.9505    1.0077 H         1 ATP         0.0383
     45 H45        -2.6338   -6.3155   -0.0469 H         1 ATP         0.4286
@<TRIPOS>BOND
     1    1    2 2
     2    1    3 1
     3    1    4 1
     4    1    8 1
     5    4   32 1
     6    5    6 2
     7    5    7 1
     8    5    8 1
     9    5   12 1
    10    9   10 2
    11    9   11 1
    12    9   12 1
    13    9   13 1
    14   11   33 1
    15   13   14 1
    16   14   15 1
    17   14   34 1
    18   14   35 1
    19   15   16 1
    20   15   17 1
    21   15   36 1
    22   16   21 1
    23   17   18 1
    24   17   19 1
    25   17   37 1
    26   18   38 1
    27   19   20 1
    28   19   21 1
    29   19   39 1
    30   20   40 1
    31   21   22 1
    32   21   41 1
    33   22   23 ar
    34   22   31 ar
    35   23   24 ar
    36   23   42 1
    37   24   25 ar
    38   25   26 ar
    39   25   31 ar
    40   26   27 2
    41   26   28 ar
    42   27   43 1
    43   28   29 ar
    44   28   45 1
    45   29   30 ar
    46   29   44 1
    47   30   31 ar
@<TRIPOS>SUBSTRUCTURE
     1 ATP         1 GROUP 0 A     ****
@<TRIPOS>MOLECULE
[[[3,4-dihydroxy-5-(6-imino-1~{H}-purin-9-yl)tetrahydrofuran-2-yl]methoxy-hydroxy-phosphoryl]oxy-oxido-phosphoryl] hydrogen phosphate
   45    47     1     0     0
SMALL
USER_CHARGES

@<TRIPOS>ATOM
      1 PG          5.6717    3.8852    6.0014 P.3       1 ATP         1.5414
      2 O1G         6.1513    5.2869    6.3060 O.co2     1 ATP        -0.8562
      3 O2G         6.2848    2.6866    6.6905 O.co2     1 ATP        -0.8562
      4 O3G         4.0534    3.8337    6.2124 O.3       1 ATP        -0.7907
      5 PB          6.9860    3.5647    3.3685 P.3       1 ATP         1.6574
      6 O1B         7.6464    4.9239    3.3045 O.co2     1 ATP        -0.8530
      7 O2B         7.7867    2.3230    3.6925 O.co2     1 ATP        -0.8530
      8 O3B         5.7156    3.6500    4.3885 O.3       1 ATP        -0.8003
      9 PA          5.0667    4.2152    1.2112 P.3       1 ATP         1.7415
     10 O1A         5.5454    5.5831    0.8194 O.2       1 ATP        -0.8661
     11 O2A         3.8203    4.2161    2.2428 O.3       1 ATP        -0.8077
     12 O3A         6.1762    3.3179    1.9732 O.3       1 ATP        -0.7685
     13 O5'         4.5673    3.2930   -0.0211 O.3       1 ATP        -0.5590
     14 C5'         4.0922    1.9801    0.2227 C.3       1 ATP         0.1960
     15 C4'         2.5944    2.0310    0.4653 C.3       1 ATP         0.0976
     16 O4'         1.9327    2.5740   -0.6889 O.3       1 ATP        -0.3865
     17 C3'         1.9685    0.6634    0.6767 C.3       1 ATP         0.0901
     18 O3'         2.1425    0.1975    1.9977 O.3       1 ATP        -0.5889
     19 C2'         0.5176    0.9128    0.3099 C.3       1 ATP         0.0574
     20 O2'        -0.2103    1.4454    1.4152 O.3       1 ATP        -0.5923
     21 C1'         0.6219    1.9765   -0.7844 C.3       1 ATP         0.2452
     22 N9          0.4237    1.4496   -2.1357 N.pl3     1 ATP        -0.1834
     23 C8          1.4069    0.9710   -2.9662 C.ar      1 ATP         0.4338
     24 N7          0.9316    0.5623   -4.1260 N.2       1 ATP        -0.6101
     25 C5         -0.4120    0.7884   -4.0344 C.ar      1 ATP         0.2154
     26 C6         -1.4353    0.5283   -5.0204 C.ar      1 ATP         0.6130
     27 N6         -1.1199    0.0176   -6.1586 N.2       1 ATP        -0.8165
     28 N1         -2.6704    0.9095   -4.5147 N.pl3     1 ATP        -0.8617
     29 C2         -2.8863    1.4571   -3.2520 C.ar      1 ATP         0.6151
     30 N3         -1.9805    1.7017   -2.3442 N.2       1 ATP        -0.5797
     31 C4         -0.7561    1.3381   -2.8112 C.ar      1 ATP         0.0328
     32 HOG3        3.5886    2.9848    6.0521 H         1 ATP         0.4197
     33 HOA2        3.9301    4.6439    3.1187 H         1 ATP         0.4550
     34 H5'1        4.3175    1.3541   -0.6468 H         1 ATP         0.0431
     35 H5'2        4.6079    1.5730    1.0985 H         1 ATP         0.0431
     36 H4'         2.3752    2.7029    1.3156 H         1 ATP         0.1325
     37 H3'         2.4336   -0.1217   -0.0016 H         1 ATP         0.0782
     38 HO3'        1.7160   -0.6716    2.0397 H         1 ATP         0.4062
     39 H2'         0.0316    0.0155   -0.0339 H         1 ATP         0.0689
     40 HO2'       -0.1608    0.7921    2.1351 H         1 ATP         0.4089
     41 H1'        -0.1474    2.7798   -0.6651 H         1 ATP         0.1098
     42 H8          2.4466    0.9468   -2.6694 H         1 ATP         0.0929
     43 HN62       -1.9661   -0.0965   -6.7275 H         1 ATP         0.3678
     44 H2         -3.9481    1.6825   -3.0660 H         1 ATP         0.0383
     45 H45        -3.4814    0.7753   -5.1133 H         1 ATP         0.4286
@<TRIPOS>BOND
     1    1    2 2
     2    1    3 1
     3    1    4 1
     4    1    8 1
     5    4   32 1
     6    5    6 2
     7    5    7 1
     8    5    8 1
     9    5   12 1
    10    9   10 2
    11    9   11 1
    12    9   12 1
    13    9   13 1
    14   11   33 1
    15   13   14 1
    16   14   15 1
    17   14   34 1
    18   14   35 1
    19   15   16 1
    20   15   17 1
    21   15   36 1
    22   16   21 1
    23   17   18 1
    24   17   19 1
    25   17   37 1
    26   18   38 1
    27   19   20 1
    28   19   21 1
    29   19   39 1
    30   20   40 1
    31   21   22 1
    32   21   41 1
    33   22   23 ar
    34   22   31 ar
    35   23   24 ar
    36   23   42 1
    37   24   25 ar
    38   25   26 ar
    39   25   31 ar
    40   26   27 2
    41   26   28 ar
    42   27   43 1
    43   28   29 ar
    44   28   45 1
    45   29   30 ar
    46   29   44 1
    47   30   31 ar
@<TRIPOS>SUBSTRUCTURE
     1 ATP         1 GROUP 0 A     ****
@<TRIPOS>MOLECULE
[[[3,4-dihydroxy-5-(6-imino-1~{H}-purin-9-yl)tetrahydrofuran-2-yl]methoxy-hydroxy-phosphoryl]oxy-oxido-phosphoryl] hydrogen phosphate
   45    47     1     0     0
SMALL
USER_CHARGES

@<TRIPOS>ATOM
      1 PG         -6.8726   -0.5032    2.4053 P.3       1 ATP         1.5414
      2 O1G        -7.8179    0.0671    3.4391 O.co2     1 ATP        -0.8562
      3 O2G        -6.6558   -1.9955    2.2891 O.co2     1 ATP        -0.8562
      4 O3G        -7.2978    0.0754    0.9388 O.3       1 ATP        -0.7907
      5 PB         -4.3280    0.1796    3.7549 P.3       1 ATP         1.6574
      6 O1B        -4.9191    0.8486    4.9759 O.co2     1 ATP        -0.8530
      7 O2B        -3.7583   -1.2195    3.8310 O.co2     1 ATP        -0.8530
      8 O3B        -5.4251    0.2337    2.5486 O.3       1 ATP        -0.8003
      9 PA         -3.2760    2.7242    2.6690 P.3       1 ATP         1.7415
     10 O1A        -4.0714    3.5946    3.5982 O.2       1 ATP        -0.8661
     11 O2A        -3.8642    2.6452    1.1638 O.3       1 ATP        -0.8077
     12 O3A        -3.1998    1.1719    3.1176 O.3       1 ATP        -0.7685
     13 O5'        -1.7334    3.1724    2.4743 O.3       1 ATP        -0.5590
     14 C5'        -0.8811    2.4285    1.6206 C.3       1 ATP         0.1960
     15 C4'        -0.1994    1.3333    2.4288 C.3       1 ATP         0.0976
     16 O4'        -1.1285    0.2356    2.5840 O.3       1 ATP        -0.3865
     17 C3'         1.0324    0.7610    1.7344 C.3       1 ATP         0.0901
     18 O3'         1.9175    0.2377    2.7247 O.3       1 ATP        -0.5889
     19 C2'         0.4468   -0.3802    0.9263 C.3       1 ATP         0.0574
     20 O2'         1.3993   -1.3703    0.5961 O.3       1 ATP        -0.5923
     21 C1'        -0.6159   -0.9100    1.8769 C.3       1 ATP         0.2452
     22 N9         -1.7127   -1.6108    1.2130 N.pl3     1 ATP        -0.1834
     23 C8         -2.0868   -2.9137    1.4327 C.ar      1 ATP         0.4338
     24 N7         -3.1125   -3.2756    0.6878 N.2       1 ATP        -0.6101
     25 C5         -3.4079   -2.1580   -0.0391 C.ar      1 ATP         0.2154
     26 C6         -4.4483   -1.9775   -1.0249 C.ar      1 ATP         0.6130
     27 N6         -5.2418   -2.9492   -1.3113 N.2       1 ATP        -0.8165
     28 N1         -4.3937   -0.6823   -1.5211 N.pl3     1 ATP        -0.8617
     29 C2         -3.4770    0.2901   -1.1271 C.ar      1 ATP         0.6151
     30 N3         -2.5289    0.1525   -0.2402 N.2       1 ATP        -0.5797
     31 C4         -2.5564   -1.1096    0.2655 C.ar      1 ATP         0.0328
     32 HOG3       -6.7753   -0.2047    0.1572 H         1 ATP         0.4197
     33 HOA2       -4.7721    2.2999    1.0270 H         1 ATP         0.4550
     34 H5'1       -1.4795    1.9922    0.8142 H         1 ATP         0.0431
     35 H5'2       -0.1362    3.1035    1.1868 H         1 ATP         0.0431
     36 H4'         0.0402    1.7079    3.4342 H         1 ATP         0.1325
     37 H3'         1.5907    1.4859    1.1353 H         1 ATP         0.0782
     38 HO3'        2.6839   -0.1150    2.2479 H         1 ATP         0.4062
     39 H2'        -0.0017    0.0018    0.0005 H         1 ATP         0.0689
     40 HO2'        2.0953   -0.9375    0.0709 H         1 ATP         0.4089
     41 H1'        -0.1998   -1.6319    2.6178 H         1 ATP         0.1098
     42 H8         -1.5740   -3.5449    2.1457 H         1 ATP         0.0929
     43 HN62       -5.9117   -2.6433   -2.0256 H         1 ATP         0.3678
     44 H2         -3.6225    1.2454   -1.6553 H         1 ATP         0.0383
     45 H45        -5.0794   -0.4231   -2.2258 H         1 ATP         0.4286
@<TRIPOS>BOND
     1    1    2 2
     2    1    3 1
     3    1    4 1
     4    1    8 1
     5    4   32 1
     6    5    6 2
     7    5    7 1
     8    5    8 1
     9    5   12 1
    10    9   10 2
    11    9   11 1
    12    9   12 1
    13    9   13 1
    14   11   33 1
    15   13   14 1
    16   14   15 1
    17   14   34 1
    18   14   35 1
    19   15   16 1
    20   15   17 1
    21   15   36 1
    22   16   21 1
    23   17   18 1
    24   17   19 1
    25   17   37 1
    26   18   38 1
    27   19   20 1
    28   19   21 1
    29   19   39 1
    30   20   40 1
    31   21   22 1
    32   21   41 1
    33   22   23 ar
    34   22   31 ar
    35   23   24 ar
    36   23   42 1
    37   24   25 ar
    38   25   26 ar
    39   25   31 ar
    40   26   27 2
    41   26   28 ar
    42   27   43 1
    43   28   29 ar
    44   28   45 1
    45   29   30 ar
    46   29   44 1
    47   30   31 ar
@<TRIPOS>SUBSTRUCTURE
     1 ATP         1 GROUP 0 A     ****
@<TRIPOS>MOLECULE
[[[3,4-dihydroxy-5-(6-imino-1~{H}-purin-9-yl)tetrahydrofuran-2-yl]methoxy-hydroxy-phosphoryl]oxy-oxido-phosphoryl] hydrogen phosphate
   45    47     1     0     0
SMALL
USER_CHARGES

@<TRIPOS>ATOM
      1 PG          8.7618    5.8825    3.8545 P.3       1 ATP         1.5414
      2 O1G        10.0487    5.1186    4.0735 O.co2     1 ATP        -0.8562
      3 O2G         8.0077    6.4856    5.0186 O.co2     1 ATP        -0.8562
      4 O3G         9.0359    7.0542    2.7507 O.3       1 ATP        -0.7907
      5 PB          6.9860    3.5647    3.3685 P.3       1 ATP         1.6574
      6 O1B         8.0268    2.4772    3.5165 O.co2     1 ATP        -0.8530
      7 O2B         5.9862    3.8423    4.4689 O.co2     1 ATP        -0.8530
      8 O3B         7.7403    4.9587    2.9818 O.3       1 ATP        -0.8003
      9 PA          5.0667    4.2152    1.2112 P.3       1 ATP         1.7415
     10 O1A         5.5454    5.5831    0.8194 O.2       1 ATP        -0.8661
     11 O2A         3.8203    4.2161    2.2428 O.3       1 ATP        -0.8077
     12 O3A         6.1762    3.3179    1.9732 O.3       1 ATP        -0.7685
     13 O5'         4.5673    3.2930   -0.0211 O.3       1 ATP        -0.5590
     14 C5'         4.0922    1.9801    0.2227 C.3       1 ATP         0.1960
     15 C4'         2.5944    2.0310    0.4653 C.3       1 ATP         0.0976
     16 O4'         1.9327    2.5740   -0.6889 O.3       1 ATP        -0.3865
     17 C3'         1.9685    0.6634    0.6767 C.3       1 ATP         0.0901
     18 O3'         2.1425    0.1975    1.9977 O.3       1 ATP        -0.5889
     19 C2'         0.5176    0.9128    0.3099 C.3       1 ATP         0.0574
     20 O2'        -0.2103    1.4454    1.4152 O.3       1 ATP        -0.5923
     21 C1'         0.6219    1.9765   -0.7844 C.3       1 ATP         0.2452
     22 N9          0.4237    1.4496   -2.1357 N.pl3     1 ATP        -0.1834
     23 C8          1.4069    0.9710   -2.9662 C.ar      1 ATP         0.4338
     24 N7          0.9316    0.5623   -4.1260 N.2       1 ATP        -0.6101
     25 C5         -0.4120    0.7884   -4.0344 C.ar      1 ATP         0.2154
     26 C6         -1.4353    0.5283   -5.0204 C.ar      1 ATP         0.6130
     27 N6         -1.1199    0.0176   -6.1586 N.2       1 ATP        -0.8165
     28 N1         -2.6704    0.9095   -4.5147 N.pl3     1 ATP        -0.8617
     29 C2         -2.8863    1.4571   -3.2520 C.ar      1 ATP         0.6151
     30 N3         -1.9805    1.7017   -2.3442 N.2       1 ATP        -0.5797
     31 C4         -0.7561    1.3381   -2.8112 C.ar      1 ATP         0.0328
     32 HOG3        8.2916    7.6414    2.4987 H         1 ATP         0.4197
     33 HOA2        3.9301    4.6439    3.1187 H         1 ATP         0.4550
     34 H5'1        4.3175    1.3541   -0.6468 H         1 ATP         0.0431
     35 H5'2        4.6079    1.5730    1.0985 H         1 ATP         0.0431
     36 H4'         2.3752    2.7029    1.3156 H         1 ATP         0.1325
     37 H3'         2.4336   -0.1217   -0.0016 H         1 ATP         0.0782
     38 HO3'        1.7160   -0.6716    2.0397 H         1 ATP         0.4062
     39 H2'         0.0316    0.0155   -0.0339 H         1 ATP         0.0689
     40 HO2'       -0.1608    0.7921    2.1351 H         1 ATP         0.4089
     41 H1'        -0.1474    2.7798   -0.6651 H         1 ATP         0.1098
     42 H8          2.4466    0.9468   -2.6694 H         1 ATP         0.0929
     43 HN62       -1.9661   -0.0965   -6.7275 H         1 ATP         0.3678
     44 H2         -3.9481    1.6825   -3.0660 H         1 ATP         0.0383
     45 H45        -3.4814    0.7753   -5.1133 H         1 ATP         0.4286
@<TRIPOS>BOND
     1    1    2 2
     2    1    3 1
     3    1    4 1
     4    1    8 1
     5    4   32 1
     6    5    6 2
     7    5    7 1
     8    5    8 1
     9    5   12 1
    10    9   10 2
    11    9   11 1
    12    9   12 1
    13    9   13 1
    14   11   33 1
    15   13   14 1
    16   14   15 1
    17   14   34 1
    18   14   35 1
    19   15   16 1
    20   15   17 1
    21   15   36 1
    22   16   21 1
    23   17   18 1
    24   17   19 1
    25   17   37 1
    26   18   38 1
    27   19   20 1
    28   19   21 1
    29   19   39 1
    30   20   40 1
    31   21   22 1
    32   21   41 1
    33   22   23 ar
    34   22   31 ar
    35   23   24 ar
    36   23   42 1
    37   24   25 ar
    38   25   26 ar
    39   25   31 ar
    40   26   27 2
    41   26   28 ar
    42   27   43 1
    43   28   29 ar
    44   28   45 1
    45   29   30 ar
    46   29   44 1
    47   30   31 ar
@<TRIPOS>SUBSTRUCTURE
     1 ATP         1 GROUP 0 A     ****
@<TRIPOS>MOLECULE
[[[3,4-dihydroxy-5-(6-imino-1~{H}-purin-9-yl)tetrahydrofuran-2-yl]methoxy-hydroxy-phosphoryl]oxy-oxido-phosphoryl] hydrogen phosphate
   45    47     1     0     0
SMALL
USER_CHARGES

@<TRIPOS>ATOM
      1 PG         -3.1512    5.3514   -3.7020 P.3       1 ATP         1.5414
      2 O1G        -4.6263    5.1482   -3.4366 O.co2     1 ATP        -0.8562
      3 O2G        -2.4741    4.6860   -4.8795 O.co2     1 ATP        -0.8562
      4 O3G        -2.8528    6.9553   -3.7700 O.3       1 ATP        -0.7907
      5 PB         -0.7321    5.1893   -2.0039 P.3       1 ATP         1.6574
      6 O1B         0.0628    4.2403   -2.8730 O.co2     1 ATP        -0.8530
      7 O2B        -0.4119    6.6671   -1.9672 O.co2     1 ATP        -0.8530
      8 O3B        -2.3168    5.0047   -2.3447 O.3       1 ATP        -0.8003
      9 PA          0.4650    4.4450    0.5988 P.3       1 ATP         1.7415
     10 O1A         1.1480    5.7304    0.9659 O.2       1 ATP        -0.8661
     11 O2A         1.4339    3.3508   -0.0954 O.3       1 ATP        -0.8077
     12 O3A        -0.7315    4.6139   -0.4766 O.3       1 ATP        -0.7685
     13 O5'        -0.2068    3.6554    1.8412 O.3       1 ATP        -0.5590
     14 C5'        -0.8811    2.4285    1.6206 C.3       1 ATP         0.1960
     15 C4'        -0.1994    1.3333    2.4288 C.3       1 ATP         0.0976
     16 O4'        -1.1285    0.2356    2.5840 O.3       1 ATP        -0.3865
     17 C3'         1.0324    0.7610    1.7344 C.3       1 ATP         0.0901
     18 O3'         1.9175    0.2377    2.7247 O.3       1 ATP        -0.5889
     19 C2'         0.4468   -0.3802    0.9263 C.3       1 ATP         0.0574
     20 O2'         1.3993   -1.3703    0.5961 O.3       1 ATP        -0.5923
     21 C1'        -0.6159   -0.9100    1.8769 C.3       1 ATP         0.2452
     22 N9         -1.7127   -1.6108    1.2130 N.pl3     1 ATP        -0.1834
     23 C8         -2.0868   -2.9137    1.4327 C.ar      1 ATP         0.4338
     24 N7         -3.1125   -3.2756    0.6878 N.2       1 ATP        -0.6101
     25 C5         -3.4079   -2.1580   -0.0391 C.ar      1 ATP         0.2154
     26 C6         -4.4483   -1.9775   -1.0249 C.ar      1 ATP         0.6130
     27 N6         -5.2418   -2.9492   -1.3113 N.2       1 ATP        -0.8165
     28 N1         -4.3937   -0.6823   -1.5211 N.pl3     1 ATP        -0.8617
     29 C2         -3.4770    0.2901   -1.1271 C.ar      1 ATP         0.6151
     30 N3         -2.5289    0.1525   -0.2402 N.2       1 ATP        -0.5797
     31 C4         -2.5564   -1.1096    0.2655 C.ar      1 ATP         0.0328
     32 HOG3       -1.9328    7.2522   -3.9371 H         1 ATP         0.4197
     33 HOA2        1.8833    3.5812   -0.9363 H         1 ATP         0.4550
     34 H5'1       -1.9259    2.5372    1.9293 H         1 ATP         0.0431
     35 H5'2       -0.8477    2.1923    0.5521 H         1 ATP         0.0431
     36 H4'         0.0402    1.7079    3.4342 H         1 ATP         0.1325
     37 H3'         1.5907    1.4859    1.1353 H         1 ATP         0.0782
     38 HO3'        2.6839   -0.1150    2.2479 H         1 ATP         0.4062
     39 H2'        -0.0017    0.0018    0.0005 H         1 ATP         0.0689
     40 HO2'        2.0953   -0.9375    0.0709 H         1 ATP         0.4089
     41 H1'        -0.1998   -1.6319    2.6178 H         1 ATP         0.1098
     42 H8         -1.5740   -3.5449    2.1457 H         1 ATP         0.0929
     43 HN62       -5.9117   -2.6433   -2.0256 H         1 ATP         0.3678
     44 H2         -3.6225    1.2454   -1.6553 H         1 ATP         0.0383
     45 H45        -5.0794   -0.4231   -2.2258 H         1 ATP         0.4286
@<TRIPOS>BOND
     1    1    2 2
     2    1    3 1
     3    1    4 1
     4    1    8 1
     5    4   32 1
     6    5    6 2
     7    5    7 1
     8    5    8 1
     9    5   12 1
    10    9   10 2
    11    9   11 1
    12    9   12 1
    13    9   13 1
    14   11   33 1
    15   13   14 1
    16   14   15 1
    17   14   34 1
    18   14   35 1
    19   15   16 1
    20   15   17 1
    21   15   36 1
    22   16   21 1
    23   17   18 1
    24   17   19 1
    25   17   37 1
    26   18   38 1
    27   19   20 1
    28   19   21 1
    29   19   39 1
    30   20   40 1
    31   21   22 1
    32   21   41 1
    33   22   23 ar
    34   22   31 ar
    35   23   24 ar
    36   23   42 1
    37   24   25 ar
    38   25   26 ar
    39   25   31 ar
    40   26   27 2
    41   26   28 ar
    42   27   43 1
    43   28   29 ar
    44   28   45 1
    45   29   30 ar
    46   29   44 1
    47   30   31 ar
@<TRIPOS>SUBSTRUCTURE
     1 ATP         1 GROUP 0 A     ****
@<TRIPOS>MOLECULE
[[[3,4-dihydroxy-5-(6-imino-1~{H}-purin-9-yl)tetrahydrofuran-2-yl]methoxy-hydroxy-phosphoryl]oxy-oxido-phosphoryl] hydrogen phosphate
   45    47     1     0     0
SMALL
USER_CHARGES

@<TRIPOS>ATOM
      1 PG          9.4328    1.1456    3.1888 P.3       1 ATP         1.5414
      2 O1G         9.2504    0.4311    4.5093 O.co2     1 ATP        -0.8562
      3 O2G        10.6304    2.0368    2.9458 O.co2     1 ATP        -0.8562
      4 O3G         9.3543    0.0426    1.9873 O.3       1 ATP        -0.7907
      5 PB          7.6490    2.7976    1.5003 P.3       1 ATP         1.6574
      6 O1B         8.5580    3.9983    1.3589 O.co2     1 ATP        -0.8530
      7 O2B         7.4758    1.8125    0.3657 O.co2     1 ATP        -0.8530
      8 O3B         8.0735    1.9781    2.8456 O.3       1 ATP        -0.8003
      9 PA          5.0667    4.2152    1.2112 P.3       1 ATP         1.7415
     10 O1A         5.5454    5.5831    0.8194 O.2       1 ATP        -0.8661
     11 O2A         3.8203    4.2161    2.2428 O.3       1 ATP        -0.8077
     12 O3A         6.1762    3.3179    1.9732 O.3       1 ATP        -0.7685
     13 O5'         4.5673    3.2930   -0.0211 O.3       1 ATP        -0.5590
     14 C5'         4.0922    1.9801    0.2227 C.3       1 ATP         0.1960
     15 C4'         2.5944    2.0310    0.4653 C.3       1 ATP         0.0976
     16 O4'         1.9327    2.5740   -0.6889 O.3       1 ATP        -0.3865
     17 C3'         1.9685    0.6634    0.6767 C.3       1 ATP         0.0901
     18 O3'         2.1425    0.1975    1.9977 O.3       1 ATP        -0.5889
     19 C2'         0.5176    0.9128    0.3099 C.3       1 ATP         0.0574
     20 O2'        -0.2103    1.4454    1.4152 O.3       1 ATP        -0.5923
     21 C1'         0.6219    1.9765   -0.7844 C.3       1 ATP         0.2452
     22 N9          0.4237    1.4496   -2.1357 N.pl3     1 ATP        -0.1834
     23 C8          1.4069    0.9710   -2.9662 C.ar      1 ATP         0.4338
     24 N7          0.9316    0.5623   -4.1260 N.2       1 ATP        -0.6101
     25 C5         -0.4120    0.7884   -4.0344 C.ar      1 ATP         0.2154
     26 C6         -1.4353    0.5283   -5.0204 C.ar      1 ATP         0.6130
     27 N6         -1.1199    0.0176   -6.1586 N.2       1 ATP        -0.8165
     28 N1         -2.6704    0.9095   -4.5147 N.pl3     1 ATP        -0.8617
     29 C2         -2.8863    1.4571   -3.2520 C.ar      1 ATP         0.6151
     30 N3         -1.9805    1.7017   -2.3442 N.2       1 ATP        -0.5797
     31 C4         -0.7561    1.3381   -2.8112 C.ar      1 ATP         0.0328
     32 HOG3        9.4555    0.3524    1.0620 H         1 ATP         0.4197
     33 HOA2        3.9301    4.6439    3.1187 H         1 ATP         0.4550
     34 H5'1        4.3175    1.3541   -0.6468 H         1 ATP         0.0431
     35 H5'2        4.6079    1.5730    1.0985 H         1 ATP         0.0431
     36 H4'         2.3752    2.7029    1.3156 H         1 ATP         0.1325
     37 H3'         2.4336   -0.1217   -0.0016 H         1 ATP         0.0782
     38 HO3'        1.7160   -0.6716    2.0397 H         1 ATP         0.4062
     39 H2'         0.0316    0.0155   -0.0339 H         1 ATP         0.0689
     40 HO2'       -0.1608    0.7921    2.1351 H         1 ATP         0.4089
     41 H1'        -0.1474    2.7798   -0.6651 H         1 ATP         0.1098
     42 H8          2.4466    0.9468   -2.6694 H         1 ATP         0.0929
     43 HN62       -1.9661   -0.0965   -6.7275 H         1 ATP         0.3678
     44 H2         -3.9481    1.6825   -3.0660 H         1 ATP         0.0383
     45 H45        -3.4814    0.7753   -5.1133 H         1 ATP         0.4286
@<TRIPOS>BOND
     1    1    2 2
     2    1    3 1
     3    1    4 1
     4    1    8 1
     5    4   32 1
     6    5    6 2
     7    5    7 1
     8    5    8 1
     9    5   12 1
    10    9   10 2
    11    9   11 1
    12    9   12 1
    13    9   13 1
    14   11   33 1
    15   13   14 1
    16   14   15 1
    17   14   34 1
    18   14   35 1
    19   15   16 1
    20   15   17 1
    21   15   36 1
    22   16   21 1
    23   17   18 1
    24   17   19 1
    25   17   37 1
    26   18   38 1
    27   19   20 1
    28   19   21 1
    29   19   39 1
    30   20   40 1
    31   21   22 1
    32   21   41 1
    33   22   23 ar
    34   22   31 ar
    35   23   24 ar
    36   23   42 1
    37   24   25 ar
    38   25   26 ar
    39   25   31 ar
    40   26   27 2
    41   26   28 ar
    42   27   43 1
    43   28   29 ar
    44   28   45 1
    45   29   30 ar
    46   29   44 1
    47   30   31 ar
@<TRIPOS>SUBSTRUCTURE
     1 ATP         1 GROUP 0 A     ****
@<TRIPOS>MOLECULE
[[[3,4-dihydroxy-5-(6-imino-1~{H}-purin-9-yl)tetrahydrofuran-2-yl]methoxy-hydroxy-phosphoryl]oxy-oxido-phosphoryl] hydrogen phosphate
   45    47     1     0     0
SMALL
USER_CHARGES

@<TRIPOS>ATOM
      1 PG          0.2705    7.8388   -1.1029 P.3       1 ATP         1.5414
      2 O1G         1.7433    8.0381   -1.3836 O.co2     1 ATP        -0.8562
      3 O2G        -0.6603    9.0219   -0.9569 O.co2     1 ATP        -0.8562
      4 O3G        -0.3415    6.8334   -2.2346 O.3       1 ATP        -0.7907
      5 PB         -1.2293    6.2027    0.8556 P.3       1 ATP         1.6574
      6 O1B        -2.0922    7.3071    1.4241 O.co2     1 ATP        -0.8530
      7 O2B        -1.7959    5.1926   -0.1173 O.co2     1 ATP        -0.8530
      8 O3B         0.1064    6.8707    0.1987 O.3       1 ATP        -0.8003
      9 PA         -1.1648    4.4707    3.2550 P.3       1 ATP         1.7415
     10 O1A        -2.1674    5.1697    4.1266 O.2       1 ATP        -0.8661
     11 O2A         0.1384    3.9257    4.0442 O.3       1 ATP        -0.8077
     12 O3A        -0.5308    5.4032    2.0951 O.3       1 ATP        -0.7685
     13 O5'        -1.7334    3.1724    2.4743 O.3       1 ATP        -0.5590
     14 C5'        -0.8811    2.4285    1.6206 C.3       1 ATP         0.1960
     15 C4'        -0.1994    1.3333    2.4288 C.3       1 ATP         0.0976
     16 O4'        -1.1285    0.2356    2.5840 O.3       1 ATP        -0.3865
     17 C3'         1.0324    0.7610    1.7344 C.3       1 ATP         0.0901
     18 O3'         1.9175    0.2377    2.7247 O.3       1 ATP        -0.5889
     19 C2'         0.4468   -0.3802    0.9263 C.3       1 ATP         0.0574
     20 O2'         1.3993   -1.3703    0.5961 O.3       1 ATP        -0.5923
     21 C1'        -0.6159   -0.9100    1.8769 C.3       1 ATP         0.2452
     22 N9         -1.7127   -1.6108    1.2130 N.pl3     1 ATP        -0.1834
     23 C8         -1.7690   -2.9583    0.9549 C.ar      1 ATP         0.4338
     24 N7         -2.8827   -3.3076    0.3418 N.2       1 ATP        -0.6101
     25 C5         -3.5683   -2.1351    0.2017 C.ar      1 ATP         0.2154
     26 C6         -4.8617   -1.9185   -0.4044 C.ar      1 ATP         0.6130
     27 N6         -5.5166   -2.9094   -0.8993 N.2       1 ATP        -0.8165
     28 N1         -5.1837   -0.5701   -0.3344 N.pl3     1 ATP        -0.8617
     29 C2         -4.3821    0.4180    0.2330 C.ar      1 ATP         0.6151
     30 N3         -3.2117    0.2488    0.7860 N.2       1 ATP        -0.5797
     31 C4         -2.8672   -1.0657    0.7327 C.ar      1 ATP         0.0328
     32 HOG3       -1.2942    6.6040   -2.1890 H         1 ATP         0.4197
     33 HOA2        0.0168    3.2726    4.7659 H         1 ATP         0.4550
     34 H5'1       -1.4795    1.9922    0.8142 H         1 ATP         0.0431
     35 H5'2       -0.1362    3.1035    1.1868 H         1 ATP         0.0431
     36 H4'         0.0402    1.7079    3.4342 H         1 ATP         0.1325
     37 H3'         1.5907    1.4859    1.1353 H         1 ATP         0.0782
     38 HO3'        2.6839   -0.1150    2.2479 H         1 ATP         0.4062
     39 H2'        -0.0017    0.0018    0.0005 H         1 ATP         0.0689
     40 HO2'        2.0953   -0.9375    0.0709 H         1 ATP         0.4089
     41 H1'        -0.1998   -1.6319    2.6178 H         1 ATP         0.1098
     42 H8         -0.9697   -3.6300    1.2371 H         1 ATP         0.0929
     43 HN62       -6.4060   -2.5723   -1.2840 H         1 ATP         0.3678
     44 H2         -4.8409    1.4176    0.1757 H         1 ATP         0.0383
     45 H45        -6.0768   -0.2826   -0.7263 H         1 ATP         0.4286
@<TRIPOS>BOND
     1    1    2 2
     2    1    3 1
     3    1    4 1
     4    1    8 1
     5    4   32 1
     6    5    6 2
     7    5    7 1
     8    5    8 1
     9    5   12 1
    10    9   10 2
    11    9   11 1
    12    9   12 1
    13    9   13 1
    14   11   33 1
    15   13   14 1
    16   14   15 1
    17   14   34 1
    18   14   35 1
    19   15   16 1
    20   15   17 1
    21   15   36 1
    22   16   21 1
    23   17   18 1
    24   17   19 1
    25   17   37 1
    26   18   38 1
    27   19   20 1
    28   19   21 1
    29   19   39 1
    30   20   40 1
    31   21   22 1
    32   21   41 1
    33   22   23 ar
    34   22   31 ar
    35   23   24 ar
    36   23   42 1
    37   24   25 ar
    38   25   26 ar
    39   25   31 ar
    40   26   27 2
    41   26   28 ar
    42   27   43 1
    43   28   29 ar
    44   28   45 1
    45   29   30 ar
    46   29   44 1
    47   30   31 ar
@<TRIPOS>SUBSTRUCTURE
     1 ATP         1 GROUP 0 A     ****
@<TRIPOS>MOLECULE
[[[3,4-dihydroxy-5-(6-imino-1~{H}-purin-9-yl)tetrahydrofuran-2-yl]methoxy-hydroxy-phosphoryl]oxy-oxido-phosphoryl] hydrogen phosphate
   45    47     1     0     0
SMALL
USER_CHARGES

@<TRIPOS>ATOM
      1 PG         -4.5455    5.5532   -2.2295 P.3       1 ATP         1.5414
      2 O1G        -5.4543    5.6262   -1.0227 O.co2     1 ATP        -0.8562
      3 O2G        -4.9985    4.8768   -3.5042 O.co2     1 ATP        -0.8562
      4 O3G        -4.0445    7.0641   -2.5934 O.3       1 ATP        -0.7907
      5 PB         -2.0954    5.3676   -0.5789 P.3       1 ATP         1.6574
      6 O1B        -1.5230    6.7275   -0.9118 O.co2     1 ATP        -0.8530
      7 O2B        -2.7674    5.1086    0.7512 O.co2     1 ATP        -0.8530
      8 O3B        -3.1120    4.9231   -1.7749 O.3       1 ATP        -0.8003
      9 PA          0.4610    3.9828   -0.0241 P.3       1 ATP         1.7415
     10 O1A         1.4152    5.1413   -0.0577 O.2       1 ATP        -0.8661
     11 O2A         1.0250    2.6353   -0.7201 O.3       1 ATP        -0.8077
     12 O3A        -0.9304    4.2474   -0.8055 O.3       1 ATP        -0.7685
     13 O5'         0.0171    3.5129    1.4593 O.3       1 ATP        -0.5590
     14 C5'        -0.8811    2.4285    1.6206 C.3       1 ATP         0.1960
     15 C4'        -0.1994    1.3333    2.4288 C.3       1 ATP         0.0976
     16 O4'        -1.1285    0.2356    2.5840 O.3       1 ATP        -0.3865
     17 C3'         1.0324    0.7610    1.7344 C.3       1 ATP         0.0901
     18 O3'         1.9175    0.2377    2.7247 O.3       1 ATP        -0.5889
     19 C2'         0.4468   -0.3802    0.9263 C.3       1 ATP         0.0574
     20 O2'         1.3993   -1.3703    0.5961 O.3       1 ATP        -0.5923
     21 C1'        -0.6159   -0.9100    1.8769 C.3       1 ATP         0.2452
     22 N9         -1.7127   -1.6108    1.2130 N.pl3     1 ATP        -0.1834
     23 C8         -2.8662   -1.0361    0.7388 C.ar      1 ATP         0.4338
     24 N7         -3.6774   -1.9166    0.1867 N.2       1 ATP        -0.6101
     25 C5         -3.0159   -3.1045    0.3122 C.ar      1 ATP         0.2154
     26 C6         -3.4377   -4.4169   -0.1199 C.ar      1 ATP         0.6130
     27 N6         -4.5720   -4.5691   -0.7080 N.2       1 ATP        -0.8165
     28 N1         -2.4600   -5.3463    0.2071 N.pl3     1 ATP        -0.8617
     29 C2         -1.2595   -5.0554    0.8515 C.ar      1 ATP         0.6151
     30 N3         -0.8555   -3.8803    1.2516 N.2       1 ATP        -0.5797
     31 C4         -1.7946   -2.9457    0.9448 C.ar      1 ATP         0.0328
     32 HOG3       -3.5401    7.5641   -1.9168 H         1 ATP         0.4197
     33 HOA2        1.2711    2.6593   -1.6693 H         1 ATP         0.4550
     34 H5'1       -1.7775    2.7843    2.1389 H         1 ATP         0.0431
     35 H5'2       -1.1658    2.0534    0.6322 H         1 ATP         0.0431
     36 H4'         0.0402    1.7079    3.4342 H         1 ATP         0.1325
     37 H3'         1.5907    1.4859    1.1353 H         1 ATP         0.0782
     38 HO3'        2.1521    0.9800    3.3017 H         1 ATP         0.4062
     39 H2'        -0.0017    0.0018    0.0005 H         1 ATP         0.0689
     40 HO2'        1.7495   -1.7243    1.4324 H         1 ATP         0.4089
     41 H1'        -0.1998   -1.6319    2.6178 H         1 ATP         0.1098
     42 H8         -3.0558    0.0252    0.8256 H         1 ATP         0.0929
     43 HN62       -4.7047   -5.5592   -0.9421 H         1 ATP         0.3678
     44 H2         -0.6372   -5.9505    1.0077 H         1 ATP         0.0383
     45 H45        -2.6338   -6.3155   -0.0469 H         1 ATP         0.4286
@<TRIPOS>BOND
     1    1    2 2
     2    1    3 1
     3    1    4 1
     4    1    8 1
     5    4   32 1
     6    5    6 2
     7    5    7 1
     8    5    8 1
     9    5   12 1
    10    9   10 2
    11    9   11 1
    12    9   12 1
    13    9   13 1
    14   11   33 1
    15   13   14 1
    16   14   15 1
    17   14   34 1
    18   14   35 1
    19   15   16 1
    20   15   17 1
    21   15   36 1
    22   16   21 1
    23   17   18 1
    24   17   19 1
    25   17   37 1
    26   18   38 1
    27   19   20 1
    28   19   21 1
    29   19   39 1
    30   20   40 1
    31   21   22 1
    32   21   41 1
    33   22   23 ar
    34   22   31 ar
    35   23   24 ar
    36   23   42 1
    37   24   25 ar
    38   25   26 ar
    39   25   31 ar
    40   26   27 2
    41   26   28 ar
    42   27   43 1
    43   28   29 ar
    44   28   45 1
    45   29   30 ar
    46   29   44 1
    47   30   31 ar
@<TRIPOS>SUBSTRUCTURE
     1 ATP         1 GROUP 0 A     ****
@<TRIPOS>MOLECULE
[[[3,4-dihydroxy-5-(6-imino-1~{H}-purin-9-yl)tetrahydrofuran-2-yl]methoxy-hydroxy-phosphoryl]oxy-oxido-phosphoryl] hydrogen phosphate
   45    47     1     0     0
SMALL
USER_CHARGES

@<TRIPOS>ATOM
      1 PG         -0.1977    5.1095   -3.4963 P.3       1 ATP         1.5414
      2 O1G        -1.4572    4.6135   -2.8216 O.co2     1 ATP        -0.8562
      3 O2G         0.1182    4.7328   -4.9266 O.co2     1 ATP        -0.8562
      4 O3G        -0.1449    6.7361   -3.3642 O.3       1 ATP        -0.7907
      5 PB          2.6538    5.1656   -2.7039 P.3       1 ATP         1.6574
      6 O1B         3.2198    4.4937   -3.9351 O.co2     1 ATP        -0.8530
      7 O2B         2.7782    6.6597   -2.5038 O.co2     1 ATP        -0.8530
      8 O3B         1.0841    4.7460   -2.5564 O.3       1 ATP        -0.8003
      9 PA          4.7462    4.3191   -0.7891 P.3       1 ATP         1.7415
     10 O1A         5.3452    5.6480   -0.4300 O.2       1 ATP        -0.8661
     11 O2A         5.5521    3.5142   -1.9383 O.3       1 ATP        -0.8077
     12 O3A         3.2448    4.4082   -1.3846 O.3       1 ATP        -0.7685
     13 O5'         4.6408    3.2692    0.4376 O.3       1 ATP        -0.5590
     14 C5'         4.0922    1.9801    0.2227 C.3       1 ATP         0.1960
     15 C4'         2.5944    2.0310    0.4653 C.3       1 ATP         0.0976
     16 O4'         1.9327    2.5740   -0.6889 O.3       1 ATP        -0.3865
     17 C3'         1.9685    0.6634    0.6767 C.3       1 ATP         0.0901
     18 O3'         2.1425    0.1975    1.9977 O.3       1 ATP        -0.5889
     19 C2'         0.5176    0.9128    0.3099 C.3       1 ATP         0.0574
     20 O2'        -0.2103    1.4454    1.4152 O.3       1 ATP        -0.5923
     21 C1'         0.6219    1.9765   -0.7844 C.3       1 ATP         0.2452
     22 N9          0.4237    1.4496   -2.1357 N.pl3     1 ATP        -0.1834
     23 C8          1.4069    0.9710   -2.9662 C.ar      1 ATP         0.4338
     24 N7          0.9316    0.5623   -4.1260 N.2       1 ATP        -0.6101
     25 C5         -0.4120    0.7884   -4.0344 C.ar      1 ATP         0.2154
     26 C6         -1.4353    0.5283   -5.0204 C.ar      1 ATP         0.6130
     27 N6         -1.1199    0.0176   -6.1586 N.2       1 ATP        -0.8165
     28 N1         -2.6704    0.9095   -4.5147 N.pl3     1 ATP        -0.8617
     29 C2         -2.8863    1.4571   -3.2520 C.ar      1 ATP         0.6151
     30 N3         -1.9805    1.7017   -2.3442 N.2       1 ATP        -0.5797
     31 C4         -0.7561    1.3381   -2.8112 C.ar      1 ATP         0.0328
     32 HOG3        0.6186    7.2116   -3.7557 H         1 ATP         0.4197
     33 HOA2        6.4887    3.2704   -1.7783 H         1 ATP         0.4550
     34 H5'1        4.3024    1.6722   -0.8067 H         1 ATP         0.0431
     35 H5'2        4.5673    1.2731    0.9105 H         1 ATP         0.0431
     36 H4'         2.3752    2.7029    1.3156 H         1 ATP         0.1325
     37 H3'         2.4336   -0.1217   -0.0016 H         1 ATP         0.0782
     38 HO3'        1.7160   -0.6716    2.0397 H         1 ATP         0.4062
     39 H2'         0.0316    0.0155   -0.0339 H         1 ATP         0.0689
     40 HO2'       -0.1608    0.7921    2.1351 H         1 ATP         0.4089
     41 H1'        -0.1474    2.7798   -0.6651 H         1 ATP         0.1098
     42 H8          2.4466    0.9468   -2.6694 H         1 ATP         0.0929
     43 HN62       -1.9661   -0.0965   -6.7275 H         1 ATP         0.3678
     44 H2         -3.9481    1.6825   -3.0660 H         1 ATP         0.0383
     45 H45        -3.4814    0.7753   -5.1133 H         1 ATP         0.4286
@<TRIPOS>BOND
     1    1    2 2
     2    1    3 1
     3    1    4 1
     4    1    8 1
     5    4   32 1
     6    5    6 2
     7    5    7 1
     8    5    8 1
     9    5   12 1
    10    9   10 2
    11    9   11 1
    12    9   12 1
    13    9   13 1
    14   11   33 1
    15   13   14 1
    16   14   15 1
    17   14   34 1
    18   14   35 1
    19   15   16 1
    20   15   17 1
    21   15   36 1
    22   16   21 1
    23   17   18 1
    24   17   19 1
    25   17   37 1
    26   18   38 1
    27   19   20 1
    28   19   21 1
    29   19   39 1
    30   20   40 1
    31   21   22 1
    32   21   41 1
    33   22   23 ar
    34   22   31 ar
    35   23   24 ar
    36   23   42 1
    37   24   25 ar
    38   25   26 ar
    39   25   31 ar
    40   26   27 2
    41   26   28 ar
    42   27   43 1
    43   28   29 ar
    44   28   45 1
    45   29   30 ar
    46   29   44 1
    47   30   31 ar
@<TRIPOS>SUBSTRUCTURE
     1 ATP         1 GROUP 0 A     ****
@<TRIPOS>MOLECULE
[[[3,4-dihydroxy-5-(6-imino-1~{H}-purin-9-yl)tetrahydrofuran-2-yl]methoxy-hydroxy-phosphoryl]oxy-oxido-phosphoryl] hydrogen phosphate
   45    47     1     0     0
SMALL
USER_CHARGES

@<TRIPOS>ATOM
      1 PG         -0.5235    7.2540   -0.6184 P.3       1 ATP         1.5414
      2 O1G        -1.2439    8.5662   -0.4025 O.co2     1 ATP        -0.8562
      3 O2G        -1.2938    5.9682   -0.8211 O.co2     1 ATP        -0.8562
      4 O3G         0.5213    7.4344   -1.8602 O.3       1 ATP        -0.7907
      5 PB          0.3285    6.7882    2.1779 P.3       1 ATP         1.6574
      6 O1B         1.6655    6.4845    2.8167 O.co2     1 ATP        -0.8530
      7 O2B        -0.5638    7.8829    2.7193 O.co2     1 ATP        -0.8530
      8 O3B         0.5585    7.0406    0.5825 O.3       1 ATP        -0.8003
      9 PA         -1.1648    4.4707    3.2550 P.3       1 ATP         1.7415
     10 O1A        -2.1674    5.1697    4.1266 O.2       1 ATP        -0.8661
     11 O2A         0.1384    3.9257    4.0442 O.3       1 ATP        -0.8077
     12 O3A        -0.5308    5.4032    2.0951 O.3       1 ATP        -0.7685
     13 O5'        -1.7334    3.1724    2.4743 O.3       1 ATP        -0.5590
     14 C5'        -0.8811    2.4285    1.6206 C.3       1 ATP         0.1960
     15 C4'        -0.1994    1.3333    2.4288 C.3       1 ATP         0.0976
     16 O4'        -1.1285    0.2356    2.5840 O.3       1 ATP        -0.3865
     17 C3'         1.0324    0.7610    1.7344 C.3       1 ATP         0.0901
     18 O3'         1.9175    0.2377    2.7247 O.3       1 ATP        -0.5889
     19 C2'         0.4468   -0.3802    0.9263 C.3       1 ATP         0.0574
     20 O2'         1.3993   -1.3703    0.5961 O.3       1 ATP        -0.5923
     21 C1'        -0.6159   -0.9100    1.8769 C.3       1 ATP         0.2452
     22 N9         -1.7127   -1.6108    1.2130 N.pl3     1 ATP        -0.1834
     23 C8         -3.0370   -1.2489    1.2455 C.ar      1 ATP         0.4338
     24 N7         -3.8008   -2.0709    0.5534 N.2       1 ATP        -0.6101
     25 C5         -2.9295   -2.9976    0.0567 C.ar      1 ATP         0.2154
     26 C6         -3.2152   -4.1411   -0.7786 C.ar      1 ATP         0.6130
     27 N6         -4.4238   -4.3865   -1.1456 N.2       1 ATP        -0.8165
     28 N1         -2.0349   -4.8186   -1.0521 N.pl3     1 ATP        -0.8617
     29 C2         -0.7728   -4.4501   -0.5916 C.ar      1 ATP         0.6151
     30 N3         -0.4885   -3.4234    0.1630 N.2       1 ATP        -0.5797
     31 C4         -1.6274   -2.7377    0.4492 C.ar      1 ATP         0.0328
     32 HOG3        1.0685    6.6645   -2.1253 H         1 ATP         0.4197
     33 HOA2        0.0168    3.2726    4.7659 H         1 ATP         0.4550
     34 H5'1       -1.4795    1.9922    0.8142 H         1 ATP         0.0431
     35 H5'2       -0.1362    3.1035    1.1868 H         1 ATP         0.0431
     36 H4'         0.0402    1.7079    3.4342 H         1 ATP         0.1325
     37 H3'         1.5907    1.4859    1.1353 H         1 ATP         0.0782
     38 HO3'        2.6839   -0.1150    2.2479 H         1 ATP         0.4062
     39 H2'        -0.0017    0.0018    0.0005 H         1 ATP         0.0689
     40 HO2'        2.0953   -0.9375    0.0709 H         1 ATP         0.4089
     41 H1'        -0.1998   -1.6319    2.6178 H         1 ATP         0.1098
     42 H8         -3.3806   -0.3795    1.7893 H         1 ATP         0.0929
     43 HN62       -4.4384   -5.2300   -1.7295 H         1 ATP         0.3678
     44 H2          0.0180   -5.1355   -0.9348 H         1 ATP         0.0383
     45 H45        -2.0977   -5.6477   -1.6374 H         1 ATP         0.4286
@<TRIPOS>BOND
     1    1    2 2
     2    1    3 1
     3    1    4 1
     4    1    8 1
     5    4   32 1
     6    5    6 2
     7    5    7 1
     8    5    8 1
     9    5   12 1
    10    9   10 2
    11    9   11 1
    12    9   12 1
    13    9   13 1
    14   11   33 1
    15   13   14 1
    16   14   15 1
    17   14   34 1
    18   14   35 1
    19   15   16 1
    20   15   17 1
    21   15   36 1
    22   16   21 1
    23   17   18 1
    24   17   19 1
    25   17   37 1
    26   18   38 1
    27   19   20 1
    28   19   21 1
    29   19   39 1
    30   20   40 1
    31   21   22 1
    32   21   41 1
    33   22   23 ar
    34   22   31 ar
    35   23   24 ar
    36   23   42 1
    37   24   25 ar
    38   25   26 ar
    39   25   31 ar
    40   26   27 2
    41   26   28 ar
    42   27   43 1
    43   28   29 ar
    44   28   45 1
    45   29   30 ar
    46   29   44 1
    47   30   31 ar
@<TRIPOS>SUBSTRUCTURE
     1 ATP         1 GROUP 0 A     ****
@<TRIPOS>MOLECULE
[[[3,4-dihydroxy-5-(6-imino-1~{H}-purin-9-yl)tetrahydrofuran-2-yl]methoxy-hydroxy-phosphoryl]oxy-oxido-phosphoryl] hydrogen phosphate
   45    47     1     0     0
SMALL
USER_CHARGES

@<TRIPOS>ATOM
      1 PG          8.9129    0.6823    2.0943 P.3       1 ATP         1.5414
      2 O1G        10.1600    1.4742    2.4186 O.co2     1 ATP        -0.8562
      3 O2G         8.2225    0.8322    0.7571 O.co2     1 ATP        -0.8562
      4 O3G         9.2250   -0.9011    2.3429 O.3       1 ATP        -0.7907
      5 PB          6.9989    2.2448    3.7245 P.3       1 ATP         1.6574
      6 O1B         5.9849    1.8640    4.7802 O.co2     1 ATP        -0.8530
      7 O2B         7.9871    3.3653    3.9603 O.co2     1 ATP        -0.8530
      8 O3B         7.8202    0.9058    3.2838 O.3       1 ATP        -0.8003
      9 PA          5.1622    3.6921    1.9099 P.3       1 ATP         1.7415
     10 O1A         5.7204    5.0825    2.0041 O.2       1 ATP        -0.8661
     11 O2A         3.8962    3.4158    2.8788 O.3       1 ATP        -0.8077
     12 O3A         6.2066    2.5291    2.3263 O.3       1 ATP        -0.7685
     13 O5'         4.6408    3.2692    0.4376 O.3       1 ATP        -0.5590
     14 C5'         4.0922    1.9801    0.2227 C.3       1 ATP         0.1960
     15 C4'         2.5944    2.0310    0.4653 C.3       1 ATP         0.0976
     16 O4'         1.9327    2.5740   -0.6889 O.3       1 ATP        -0.3865
     17 C3'         1.9685    0.6634    0.6767 C.3       1 ATP         0.0901
     18 O3'         2.1425    0.1975    1.9977 O.3       1 ATP        -0.5889
     19 C2'         0.5176    0.9128    0.3099 C.3       1 ATP         0.0574
     20 O2'        -0.2103    1.4454    1.4152 O.3       1 ATP        -0.5923
     21 C1'         0.6219    1.9765   -0.7844 C.3       1 ATP         0.2452
     22 N9          0.4237    1.4496   -2.1357 N.pl3     1 ATP        -0.1834
     23 C8          1.4069    0.9710   -2.9662 C.ar      1 ATP         0.4338
     24 N7          0.9316    0.5623   -4.1260 N.2       1 ATP        -0.6101
     25 C5         -0.4120    0.7884   -4.0344 C.ar      1 ATP         0.2154
     26 C6         -1.4353    0.5283   -5.0204 C.ar      1 ATP         0.6130
     27 N6         -1.1199    0.0176   -6.1586 N.2       1 ATP        -0.8165
     28 N1         -2.6704    0.9095   -4.5147 N.pl3     1 ATP        -0.8617
     29 C2         -2.8863    1.4571   -3.2520 C.ar      1 ATP         0.6151
     30 N3         -1.9805    1.7017   -2.3442 N.2       1 ATP        -0.5797
     31 C4         -0.7561    1.3381   -2.8112 C.ar      1 ATP         0.0328
     32 HOG3        8.5086   -1.5499    2.1748 H         1 ATP         0.4197
     33 HOA2        3.0873    3.9598    2.7689 H         1 ATP         0.4550
     34 H5'1        4.3024    1.6722   -0.8067 H         1 ATP         0.0431
     35 H5'2        4.5673    1.2731    0.9105 H         1 ATP         0.0431
     36 H4'         2.3752    2.7029    1.3156 H         1 ATP         0.1325
     37 H3'         2.4336   -0.1217   -0.0016 H         1 ATP         0.0782
     38 HO3'        1.7160   -0.6716    2.0397 H         1 ATP         0.4062
     39 H2'         0.0316    0.0155   -0.0339 H         1 ATP         0.0689
     40 HO2'       -0.1608    0.7921    2.1351 H         1 ATP         0.4089
     41 H1'        -0.1474    2.7798   -0.6651 H         1 ATP         0.1098
     42 H8          2.4466    0.9468   -2.6694 H         1 ATP         0.0929
     43 HN62       -1.9661   -0.0965   -6.7275 H         1 ATP         0.3678
     44 H2         -3.9481    1.6825   -3.0660 H         1 ATP         0.0383
     45 H45        -3.4814    0.7753   -5.1133 H         1 ATP         0.4286
@<TRIPOS>BOND
     1    1    2 2
     2    1    3 1
     3    1    4 1
     4    1    8 1
     5    4   32 1
     6    5    6 2
     7    5    7 1
     8    5    8 1
     9    5   12 1
    10    9   10 2
    11    9   11 1
    12    9   12 1
    13    9   13 1
    14   11   33 1
    15   13   14 1
    16   14   15 1
    17   14   34 1
    18   14   35 1
    19   15   16 1
    20   15   17 1
    21   15   36 1
    22   16   21 1
    23   17   18 1
    24   17   19 1
    25   17   37 1
    26   18   38 1
    27   19   20 1
    28   19   21 1
    29   19   39 1
    30   20   40 1
    31   21   22 1
    32   21   41 1
    33   22   23 ar
    34   22   31 ar
    35   23   24 ar
    36   23   42 1
    37   24   25 ar
    38   25   26 ar
    39   25   31 ar
    40   26   27 2
    41   26   28 ar
    42   27   43 1
    43   28   29 ar
    44   28   45 1
    45   29   30 ar
    46   29   44 1
    47   30   31 ar
@<TRIPOS>SUBSTRUCTURE
     1 ATP         1 GROUP 0 A     ****
@<TRIPOS>MOLECULE
[[[3,4-dihydroxy-5-(6-imino-1~{H}-purin-9-yl)tetrahydrofuran-2-yl]methoxy-hydroxy-phosphoryl]oxy-oxido-phosphoryl] hydrogen phosphate
   45    47     1     0     0
SMALL
USER_CHARGES

@<TRIPOS>ATOM
      1 PG          0.9807    5.3689   -4.1236 P.3       1 ATP         1.5414
      2 O1G         1.5350    6.7748   -4.0605 O.co2     1 ATP        -0.8562
      3 O2G        -0.0380    4.9810   -5.1720 O.co2     1 ATP        -0.8562
      4 O3G         2.2311    4.3218   -4.2022 O.3       1 ATP        -0.7907
      5 PB         -0.8563    5.5476   -1.8094 P.3       1 ATP         1.6574
      6 O1B        -0.5553    6.9782   -1.4213 O.co2     1 ATP        -0.8530
      7 O2B        -2.1329    5.1889   -2.5370 O.co2     1 ATP        -0.8530
      8 O3B         0.4104    4.9587   -2.6521 O.3       1 ATP        -0.8003
      9 PA          0.4650    4.4450    0.5988 P.3       1 ATP         1.7415
     10 O1A         1.1480    5.7304    0.9659 O.2       1 ATP        -0.8661
     11 O2A         1.4339    3.3508   -0.0954 O.3       1 ATP        -0.8077
     12 O3A        -0.7315    4.6139   -0.4766 O.3       1 ATP        -0.7685
     13 O5'        -0.2068    3.6554    1.8412 O.3       1 ATP        -0.5590
     14 C5'        -0.8811    2.4285    1.6206 C.3       1 ATP         0.1960
     15 C4'        -0.1994    1.3333    2.4288 C.3       1 ATP         0.0976
     16 O4'        -1.1285    0.2356    2.5840 O.3       1 ATP        -0.3865
     17 C3'         1.0324    0.7610    1.7344 C.3       1 ATP         0.0901
     18 O3'         1.9175    0.2377    2.7247 O.3       1 ATP        -0.5889
     19 C2'         0.4468   -0.3802    0.9263 C.3       1 ATP         0.0574
     20 O2'         1.3993   -1.3703    0.5961 O.3       1 ATP        -0.5923
     21 C1'        -0.6159   -0.9100    1.8769 C.3       1 ATP         0.2452
     22 N9         -1.7127   -1.6108    1.2130 N.pl3     1 ATP        -0.1834
     23 C8         -2.5485   -1.0808    0.2609 C.ar      1 ATP         0.4338
     24 N7         -3.4476   -1.9486   -0.1593 N.2       1 ATP        -0.6101
     25 C5         -3.1762   -3.0816    0.5530 C.ar      1 ATP         0.2154
     26 C6         -3.8510   -4.3579    0.5006 C.ar      1 ATP         0.6130
     27 N6         -4.8468   -4.5293   -0.2961 N.2       1 ATP        -0.8165
     28 N1         -3.2499   -5.2342    1.3937 N.pl3     1 ATP        -0.8617
     29 C2         -2.1646   -4.9275    2.2116 C.ar      1 ATP         0.6151
     30 N3         -1.5382   -3.7840    2.2778 N.2       1 ATP        -0.5797
     31 C4         -2.1054   -2.9018    1.4120 C.ar      1 ATP         0.0328
     32 HOG3        2.0338    3.3619   -4.2487 H         1 ATP         0.4197
     33 HOA2        1.8833    3.5812   -0.9363 H         1 ATP         0.4550
     34 H5'1       -1.9259    2.5372    1.9293 H         1 ATP         0.0431
     35 H5'2       -0.8477    2.1923    0.5521 H         1 ATP         0.0431
     36 H4'         0.0402    1.7079    3.4342 H         1 ATP         0.1325
     37 H3'         1.5907    1.4859    1.1353 H         1 ATP         0.0782
     38 HO3'        2.6839   -0.1150    2.2479 H         1 ATP         0.4062
     39 H2'        -0.0017    0.0018    0.0005 H         1 ATP         0.0689
     40 HO2'        2.0953   -0.9375    0.0709 H         1 ATP         0.4089
     41 H1'        -0.1998   -1.6319    2.6178 H         1 ATP         0.1098
     42 H8         -2.4515   -0.0599   -0.0829 H         1 ATP         0.0929
     43 HN62       -5.1990   -5.4882   -0.2005 H         1 ATP         0.3678
     44 H2         -1.8555   -5.7783    2.8388 H         1 ATP         0.0383
     45 H45        -3.6312   -6.1750    1.4526 H         1 ATP         0.4286
@<TRIPOS>BOND
     1    1    2 2
     2    1    3 1
     3    1    4 1
     4    1    8 1
     5    4   32 1
     6    5    6 2
     7    5    7 1
     8    5    8 1
     9    5   12 1
    10    9   10 2
    11    9   11 1
    12    9   12 1
    13    9   13 1
    14   11   33 1
    15   13   14 1
    16   14   15 1
    17   14   34 1
    18   14   35 1
    19   15   16 1
    20   15   17 1
    21   15   36 1
    22   16   21 1
    23   17   18 1
    24   17   19 1
    25   17   37 1
    26   18   38 1
    27   19   20 1
    28   19   21 1
    29   19   39 1
    30   20   40 1
    31   21   22 1
    32   21   41 1
    33   22   23 ar
    34   22   31 ar
    35   23   24 ar
    36   23   42 1
    37   24   25 ar
    38   25   26 ar
    39   25   31 ar
    40   26   27 2
    41   26   28 ar
    42   27   43 1
    43   28   29 ar
    44   28   45 1
    45   29   30 ar
    46   29   44 1
    47   30   31 ar
@<TRIPOS>SUBSTRUCTURE
     1 ATP         1 GROUP 0 A     ****
@<TRIPOS>MOLECULE
[[[3,4-dihydroxy-5-(6-imino-1~{H}-purin-9-yl)tetrahydrofuran-2-yl]methoxy-hydroxy-phosphoryl]oxy-oxido-phosphoryl] hydrogen phosphate
   45    47     1     0     0
SMALL
USER_CHARGES

@<TRIPOS>ATOM
      1 PG          0.5670    7.9874    2.1169 P.3       1 ATP         1.5414
      2 O1G         1.2840    6.9579    2.9617 O.co2     1 ATP        -0.8562
      3 O2G        -0.0728    9.2032    2.7493 O.co2     1 ATP        -0.8562
      4 O3G         1.5805    8.4879    0.9385 O.3       1 ATP        -0.7907
      5 PB         -1.9046    6.4433    1.5979 P.3       1 ATP         1.6574
      6 O1B        -2.7481    7.3579    2.4580 O.co2     1 ATP        -0.8530
      7 O2B        -2.4784    5.7861    0.3624 O.co2     1 ATP        -0.8530
      8 O3B        -0.5368    7.2311    1.1851 O.3       1 ATP        -0.8003
      9 PA         -1.9403    4.0773    3.3760 P.3       1 ATP         1.7415
     10 O1A        -3.2371    4.4398    4.0398 O.2       1 ATP        -0.8661
     11 O2A        -0.7734    3.6204    4.3995 O.3       1 ATP        -0.8077
     12 O3A        -1.2556    5.2898    2.5529 O.3       1 ATP        -0.7685
     13 O5'        -2.0397    2.8622    2.3122 O.3       1 ATP        -0.5590
     14 C5'        -0.8811    2.4285    1.6206 C.3       1 ATP         0.1960
     15 C4'        -0.1994    1.3333    2.4288 C.3       1 ATP         0.0976
     16 O4'        -1.1285    0.2356    2.5840 O.3       1 ATP        -0.3865
     17 C3'         1.0324    0.7610    1.7344 C.3       1 ATP         0.0901
     18 O3'         1.9175    0.2377    2.7247 O.3       1 ATP        -0.5889
     19 C2'         0.4468   -0.3802    0.9263 C.3       1 ATP         0.0574
     20 O2'         1.3993   -1.3703    0.5961 O.3       1 ATP        -0.5923
     21 C1'        -0.6159   -0.9100    1.8769 C.3       1 ATP         0.2452
     22 N9         -1.7127   -1.6108    1.2130 N.pl3     1 ATP        -0.1834
     23 C8         -2.0868   -2.9137    1.4327 C.ar      1 ATP         0.4338
     24 N7         -3.1125   -3.2756    0.6878 N.2       1 ATP        -0.6101
     25 C5         -3.4079   -2.1580   -0.0391 C.ar      1 ATP         0.2154
     26 C6         -4.4483   -1.9775   -1.0249 C.ar      1 ATP         0.6130
     27 N6         -5.2418   -2.9492   -1.3113 N.2       1 ATP        -0.8165
     28 N1         -4.3937   -0.6823   -1.5211 N.pl3     1 ATP        -0.8617
     29 C2         -3.4770    0.2901   -1.1271 C.ar      1 ATP         0.6151
     30 N3         -2.5289    0.1525   -0.2402 N.2       1 ATP        -0.5797
     31 C4         -2.5564   -1.1096    0.2655 C.ar      1 ATP         0.0328
     32 HOG3        1.2594    9.1618    0.3019 H         1 ATP         0.4197
     33 HOA2       -0.9250    2.8395    4.9734 H         1 ATP         0.4550
     34 H5'1       -1.1761    2.0499    0.6365 H         1 ATP         0.0431
     35 H5'2       -0.2073    3.2811    1.4874 H         1 ATP         0.0431
     36 H4'         0.0402    1.7079    3.4342 H         1 ATP         0.1325
     37 H3'         1.5907    1.4859    1.1353 H         1 ATP         0.0782
     38 HO3'        2.6839   -0.1150    2.2479 H         1 ATP         0.4062
     39 H2'        -0.0017    0.0018    0.0005 H         1 ATP         0.0689
     40 HO2'        1.7495   -1.7243    1.4324 H         1 ATP         0.4089
     41 H1'        -0.1998   -1.6319    2.6178 H         1 ATP         0.1098
     42 H8         -1.5740   -3.5449    2.1457 H         1 ATP         0.0929
     43 HN62       -5.9117   -2.6433   -2.0256 H         1 ATP         0.3678
     44 H2         -3.6225    1.2454   -1.6553 H         1 ATP         0.0383
     45 H45        -5.0794   -0.4231   -2.2258 H         1 ATP         0.4286
@<TRIPOS>BOND
     1    1    2 2
     2    1    3 1
     3    1    4 1
     4    1    8 1
     5    4   32 1
     6    5    6 2
     7    5    7 1
     8    5    8 1
     9    5   12 1
    10    9   10 2
    11    9   11 1
    12    9   12 1
    13    9   13 1
    14   11   33 1
    15   13   14 1
    16   14   15 1
    17   14   34 1
    18   14   35 1
    19   15   16 1
    20   15   17 1
    21   15   36 1
    22   16   21 1
    23   17   18 1
    24   17   19 1
    25   17   37 1
    26   18   38 1
    27   19   20 1
    28   19   21 1
    29   19   39 1
    30   20   40 1
    31   21   22 1
    32   21   41 1
    33   22   23 ar
    34   22   31 ar
    35   23   24 ar
    36   23   42 1
    37   24   25 ar
    38   25   26 ar
    39   25   31 ar
    40   26   27 2
    41   26   28 ar
    42   27   43 1
    43   28   29 ar
    44   28   45 1
    45   29   30 ar
    46   29   44 1
    47   30   31 ar
@<TRIPOS>SUBSTRUCTURE
     1 ATP         1 GROUP 0 A     ****
@<TRIPOS>MOLECULE
[[[3,4-dihydroxy-5-(6-imino-1~{H}-purin-9-yl)tetrahydrofuran-2-yl]methoxy-hydroxy-phosphoryl]oxy-oxido-phosphoryl] hydrogen phosphate
   45    47     1     0     0
SMALL
USER_CHARGES

@<TRIPOS>ATOM
      1 PG          8.9767    1.6734    4.4742 P.3       1 ATP         1.5414
      2 O1G         9.6441    0.4286    3.9332 O.co2     1 ATP        -0.8562
      3 O2G         8.3496    1.6838    5.8505 O.co2     1 ATP        -0.8562
      4 O3G        10.0348    2.9131    4.3764 O.3       1 ATP        -0.7907
      5 PB          6.9860    3.5647    3.3685 P.3       1 ATP         1.6574
      6 O1B         5.9973    3.5100    4.5118 O.co2     1 ATP        -0.8530
      7 O2B         7.9097    4.7494    3.1920 O.co2     1 ATP        -0.8530
      8 O3B         7.8811    2.2008    3.3879 O.3       1 ATP        -0.8003
      9 PA          5.0667    4.2152    1.2112 P.3       1 ATP         1.7415
     10 O1A         5.5454    5.5831    0.8194 O.2       1 ATP        -0.8661
     11 O2A         3.8203    4.2161    2.2428 O.3       1 ATP        -0.8077
     12 O3A         6.1762    3.3179    1.9732 O.3       1 ATP        -0.7685
     13 O5'         4.5673    3.2930   -0.0211 O.3       1 ATP        -0.5590
     14 C5'         4.0922    1.9801    0.2227 C.3       1 ATP         0.1960
     15 C4'         2.5944    2.0310    0.4653 C.3       1 ATP         0.0976
     16 O4'         1.9327    2.5740   -0.6889 O.3       1 ATP        -0.3865
     17 C3'         1.9685    0.6634    0.6767 C.3       1 ATP         0.0901
     18 O3'         2.1425    0.1975    1.9977 O.3       1 ATP        -0.5889
     19 C2'         0.5176    0.9128    0.3099 C.3       1 ATP         0.0574
     20 O2'        -0.2103    1.4454    1.4152 O.3       1 ATP        -0.5923
     21 C1'         0.6219    1.9765   -0.7844 C.3       1 ATP         0.2452
     22 N9          0.4237    1.4496   -2.1357 N.pl3     1 ATP        -0.1834
     23 C8          1.4069    0.9710   -2.9662 C.ar      1 ATP         0.4338
     24 N7          0.9316    0.5623   -4.1260 N.2       1 ATP        -0.6101
     25 C5         -0.4120    0.7884   -4.0344 C.ar      1 ATP         0.2154
     26 C6         -1.4353    0.5283   -5.0204 C.ar      1 ATP         0.6130
     27 N6         -1.1199    0.0176   -6.1586 N.2       1 ATP        -0.8165
     28 N1         -2.6704    0.9095   -4.5147 N.pl3     1 ATP        -0.8617
     29 C2         -2.8863    1.4571   -3.2520 C.ar      1 ATP         0.6151
     30 N3         -1.9805    1.7017   -2.3442 N.2       1 ATP        -0.5797
     31 C4         -0.7561    1.3381   -2.8112 C.ar      1 ATP         0.0328
     32 HOG3        9.7485    3.7970    4.6912 H         1 ATP         0.4197
     33 HOA2        2.9818    4.6476    1.9730 H         1 ATP         0.4550
     34 H5'1        4.3175    1.3541   -0.6468 H         1 ATP         0.0431
     35 H5'2        4.6079    1.5730    1.0985 H         1 ATP         0.0431
     36 H4'         2.3752    2.7029    1.3156 H         1 ATP         0.1325
     37 H3'         2.4336   -0.1217   -0.0016 H         1 ATP         0.0782
     38 HO3'        3.0987    0.1465    2.1461 H         1 ATP         0.4062
     39 H2'         0.0316    0.0155   -0.0339 H         1 ATP         0.0689
     40 HO2'       -0.1608    0.7921    2.1351 H         1 ATP         0.4089
     41 H1'        -0.1474    2.7798   -0.6651 H         1 ATP         0.1098
     42 H8          2.4466    0.9468   -2.6694 H         1 ATP         0.0929
     43 HN62       -1.9661   -0.0965   -6.7275 H         1 ATP         0.3678
     44 H2         -3.9481    1.6825   -3.0660 H         1 ATP         0.0383
     45 H45        -3.4814    0.7753   -5.1133 H         1 ATP         0.4286
@<TRIPOS>BOND
     1    1    2 2
     2    1    3 1
     3    1    4 1
     4    1    8 1
     5    4   32 1
     6    5    6 2
     7    5    7 1
     8    5    8 1
     9    5   12 1
    10    9   10 2
    11    9   11 1
    12    9   12 1
    13    9   13 1
    14   11   33 1
    15   13   14 1
    16   14   15 1
    17   14   34 1
    18   14   35 1
    19   15   16 1
    20   15   17 1
    21   15   36 1
    22   16   21 1
    23   17   18 1
    24   17   19 1
    25   17   37 1
    26   18   38 1
    27   19   20 1
    28   19   21 1
    29   19   39 1
    30   20   40 1
    31   21   22 1
    32   21   41 1
    33   22   23 ar
    34   22   31 ar
    35   23   24 ar
    36   23   42 1
    37   24   25 ar
    38   25   26 ar
    39   25   31 ar
    40   26   27 2
    41   26   28 ar
    42   27   43 1
    43   28   29 ar
    44   28   45 1
    45   29   30 ar
    46   29   44 1
    47   30   31 ar
@<TRIPOS>SUBSTRUCTURE
     1 ATP         1 GROUP 0 A     ****
@<TRIPOS>MOLECULE
[[[3,4-dihydroxy-5-(6-imino-1~{H}-purin-9-yl)tetrahydrofuran-2-yl]methoxy-hydroxy-phosphoryl]oxy-oxido-phosphoryl] hydrogen phosphate
   45    47     1     0     0
SMALL
USER_CHARGES

@<TRIPOS>ATOM
      1 PG         -3.1527    6.8354    1.4673 P.3       1 ATP         1.5414
      2 O1G        -4.5955    6.6467    1.0548 O.co2     1 ATP        -0.8562
      3 O2G        -2.4853    8.1887    1.3649 O.co2     1 ATP        -0.8562
      4 O3G        -2.9732    6.2822    2.9931 O.3       1 ATP        -0.7907
      5 PB         -1.8832    5.5698   -0.8883 P.3       1 ATP         1.6574
      6 O1B        -3.1500    5.2014   -1.6280 O.co2     1 ATP        -0.8530
      7 O2B        -1.0417    6.7494   -1.3221 O.co2     1 ATP        -0.8530
      8 O3B        -2.2335    5.7307    0.6970 O.3       1 ATP        -0.8003
      9 PA          0.4610    3.9828   -0.0241 P.3       1 ATP         1.7415
     10 O1A         1.4152    5.1413   -0.0577 O.2       1 ATP        -0.8661
     11 O2A         1.0250    2.6353   -0.7201 O.3       1 ATP        -0.8077
     12 O3A        -0.9304    4.2474   -0.8055 O.3       1 ATP        -0.7685
     13 O5'         0.0171    3.5129    1.4593 O.3       1 ATP        -0.5590
     14 C5'        -0.8811    2.4285    1.6206 C.3       1 ATP         0.1960
     15 C4'        -0.1994    1.3333    2.4288 C.3       1 ATP         0.0976
     16 O4'        -1.1285    0.2356    2.5840 O.3       1 ATP        -0.3865
     17 C3'         1.0324    0.7610    1.7344 C.3       1 ATP         0.0901
     18 O3'         1.9175    0.2377    2.7247 O.3       1 ATP        -0.5889
     19 C2'         0.4468   -0.3802    0.9263 C.3       1 ATP         0.0574
     20 O2'         1.3993   -1.3703    0.5961 O.3       1 ATP        -0.5923
     21 C1'        -0.6159   -0.9100    1.8769 C.3       1 ATP         0.2452
     22 N9         -1.7127   -1.6108    1.2130 N.pl3     1 ATP        -0.1834
     23 C8         -2.8662   -1.0361    0.7388 C.ar      1 ATP         0.4338
     24 N7         -3.6774   -1.9166    0.1867 N.2       1 ATP        -0.6101
     25 C5         -3.0159   -3.1045    0.3122 C.ar      1 ATP         0.2154
     26 C6         -3.4377   -4.4169   -0.1199 C.ar      1 ATP         0.6130
     27 N6         -4.5720   -4.5691   -0.7080 N.2       1 ATP        -0.8165
     28 N1         -2.4600   -5.3463    0.2071 N.pl3     1 ATP        -0.8617
     29 C2         -1.2595   -5.0554    0.8515 C.ar      1 ATP         0.6151
     30 N3         -0.8555   -3.8803    1.2516 N.2       1 ATP        -0.5797
     31 C4         -1.7946   -2.9457    0.9448 C.ar      1 ATP         0.0328
     32 HOG3       -2.0856    6.3355    3.4074 H         1 ATP         0.4197
     33 HOA2        0.4563    1.8363   -0.7361 H         1 ATP         0.4550
     34 H5'1       -1.7775    2.7843    2.1389 H         1 ATP         0.0431
     35 H5'2       -1.1658    2.0534    0.6322 H         1 ATP         0.0431
     36 H4'         0.0402    1.7079    3.4342 H         1 ATP         0.1325
     37 H3'         1.5907    1.4859    1.1353 H         1 ATP         0.0782
     38 HO3'        2.1521    0.9800    3.3017 H         1 ATP         0.4062
     39 H2'        -0.0017    0.0018    0.0005 H         1 ATP         0.0689
     40 HO2'        0.9369   -2.0558    0.0825 H         1 ATP         0.4089
     41 H1'        -0.1998   -1.6319    2.6178 H         1 ATP         0.1098
     42 H8         -3.0558    0.0252    0.8256 H         1 ATP         0.0929
     43 HN62       -4.7047   -5.5592   -0.9421 H         1 ATP         0.3678
     44 H2         -0.6372   -5.9505    1.0077 H         1 ATP         0.0383
     45 H45        -2.6338   -6.3155   -0.0469 H         1 ATP         0.4286
@<TRIPOS>BOND
     1    1    2 2
     2    1    3 1
     3    1    4 1
     4    1    8 1
     5    4   32 1
     6    5    6 2
     7    5    7 1
     8    5    8 1
     9    5   12 1
    10    9   10 2
    11    9   11 1
    12    9   12 1
    13    9   13 1
    14   11   33 1
    15   13   14 1
    16   14   15 1
    17   14   34 1
    18   14   35 1
    19   15   16 1
    20   15   17 1
    21   15   36 1
    22   16   21 1
    23   17   18 1
    24   17   19 1
    25   17   37 1
    26   18   38 1
    27   19   20 1
    28   19   21 1
    29   19   39 1
    30   20   40 1
    31   21   22 1
    32   21   41 1
    33   22   23 ar
    34   22   31 ar
    35   23   24 ar
    36   23   42 1
    37   24   25 ar
    38   25   26 ar
    39   25   31 ar
    40   26   27 2
    41   26   28 ar
    42   27   43 1
    43   28   29 ar
    44   28   45 1
    45   29   30 ar
    46   29   44 1
    47   30   31 ar
@<TRIPOS>SUBSTRUCTURE
     1 ATP         1 GROUP 0 A     ****
@<TRIPOS>MOLECULE
[[[3,4-dihydroxy-5-(6-imino-1~{H}-purin-9-yl)tetrahydrofuran-2-yl]methoxy-hydroxy-phosphoryl]oxy-oxido-phosphoryl] hydrogen phosphate
   45    47     1     0     0
SMALL
USER_CHARGES

@<TRIPOS>ATOM
      1 PG         -6.5574    0.3554    5.3227 P.3       1 ATP         1.5414
      2 O1G        -6.2342   -0.8510    6.1756 O.co2     1 ATP        -0.8562
      3 O2G        -7.7198    0.3349    4.3553 O.co2     1 ATP        -0.8562
      4 O3G        -6.7186    1.6533    6.3003 O.3       1 ATP        -0.7907
      5 PB         -4.3720    0.0599    3.3482 P.3       1 ATP         1.6574
      6 O1B        -3.7416   -1.1866    3.9283 O.co2     1 ATP        -0.8530
      7 O2B        -5.2309   -0.0067    2.1050 O.co2     1 ATP        -0.8530
      8 O3B        -5.2116    0.8155    4.5254 O.3       1 ATP        -0.8003
      9 PA         -3.2760    2.7242    2.6690 P.3       1 ATP         1.7415
     10 O1A        -4.0714    3.5946    3.5982 O.2       1 ATP        -0.8661
     11 O2A        -3.8642    2.6452    1.1638 O.3       1 ATP        -0.8077
     12 O3A        -3.1998    1.1719    3.1176 O.3       1 ATP        -0.7685
     13 O5'        -1.7334    3.1724    2.4743 O.3       1 ATP        -0.5590
     14 C5'        -0.8811    2.4285    1.6206 C.3       1 ATP         0.1960
     15 C4'        -0.1994    1.3333    2.4288 C.3       1 ATP         0.0976
     16 O4'        -1.1285    0.2356    2.5840 O.3       1 ATP        -0.3865
     17 C3'         1.0324    0.7610    1.7344 C.3       1 ATP         0.0901
     18 O3'         1.9175    0.2377    2.7247 O.3       1 ATP        -0.5889
     19 C2'         0.4468   -0.3802    0.9263 C.3       1 ATP         0.0574
     20 O2'         1.3993   -1.3703    0.5961 O.3       1 ATP        -0.5923
     21 C1'        -0.6159   -0.9100    1.8769 C.3       1 ATP         0.2452
     22 N9         -1.7127   -1.6108    1.2130 N.pl3     1 ATP        -0.1834
     23 C8         -2.0868   -2.9137    1.4327 C.ar      1 ATP         0.4338
     24 N7         -3.1125   -3.2756    0.6878 N.2       1 ATP        -0.6101
     25 C5         -3.4079   -2.1580   -0.0391 C.ar      1 ATP         0.2154
     26 C6         -4.4483   -1.9775   -1.0249 C.ar      1 ATP         0.6130
     27 N6         -5.2418   -2.9492   -1.3113 N.2       1 ATP        -0.8165
     28 N1         -4.3937   -0.6823   -1.5211 N.pl3     1 ATP        -0.8617
     29 C2         -3.4770    0.2901   -1.1271 C.ar      1 ATP         0.6151
     30 N3         -2.5289    0.1525   -0.2402 N.2       1 ATP        -0.5797
     31 C4         -2.5564   -1.1096    0.2655 C.ar      1 ATP         0.0328
     32 HOG3       -6.9306    2.5205    5.8936 H         1 ATP         0.4197
     33 HOA2       -4.7721    2.2999    1.0270 H         1 ATP         0.4550
     34 H5'1       -1.4795    1.9922    0.8142 H         1 ATP         0.0431
     35 H5'2       -0.1362    3.1035    1.1868 H         1 ATP         0.0431
     36 H4'         0.0402    1.7079    3.4342 H         1 ATP         0.1325
     37 H3'         1.5907    1.4859    1.1353 H         1 ATP         0.0782
     38 HO3'        2.6839   -0.1150    2.2479 H         1 ATP         0.4062
     39 H2'        -0.0017    0.0018    0.0005 H         1 ATP         0.0689
     40 HO2'        2.0953   -0.9375    0.0709 H         1 ATP         0.4089
     41 H1'        -0.1998   -1.6319    2.6178 H         1 ATP         0.1098
     42 H8         -1.5740   -3.5449    2.1457 H         1 ATP         0.0929
     43 HN62       -5.9117   -2.6433   -2.0256 H         1 ATP         0.3678
     44 H2         -3.6225    1.2454   -1.6553 H         1 ATP         0.0383
     45 H45        -5.0794   -0.4231   -2.2258 H         1 ATP         0.4286
@<TRIPOS>BOND
     1    1    2 2
     2    1    3 1
     3    1    4 1
     4    1    8 1
     5    4   32 1
     6    5    6 2
     7    5    7 1
     8    5    8 1
     9    5   12 1
    10    9   10 2
    11    9   11 1
    12    9   12 1
    13    9   13 1
    14   11   33 1
    15   13   14 1
    16   14   15 1
    17   14   34 1
    18   14   35 1
    19   15   16 1
    20   15   17 1
    21   15   36 1
    22   16   21 1
    23   17   18 1
    24   17   19 1
    25   17   37 1
    26   18   38 1
    27   19   20 1
    28   19   21 1
    29   19   39 1
    30   20   40 1
    31   21   22 1
    32   21   41 1
    33   22   23 ar
    34   22   31 ar
    35   23   24 ar
    36   23   42 1
    37   24   25 ar
    38   25   26 ar
    39   25   31 ar
    40   26   27 2
    41   26   28 ar
    42   27   43 1
    43   28   29 ar
    44   28   45 1
    45   29   30 ar
    46   29   44 1
    47   30   31 ar
@<TRIPOS>SUBSTRUCTURE
     1 ATP         1 GROUP 0 A     ****
@<TRIPOS>MOLECULE
[[[3,4-dihydroxy-5-(6-imino-1~{H}-purin-9-yl)tetrahydrofuran-2-yl]methoxy-hydroxy-phosphoryl]oxy-oxido-phosphoryl] hydrogen phosphate
   45    47     1     0     0
SMALL
USER_CHARGES

@<TRIPOS>ATOM
      1 PG         -2.5509    8.9697    2.1331 P.3       1 ATP         1.5414
      2 O1G        -3.9316    8.6927    1.5812 O.co2     1 ATP        -0.8562
      3 O2G        -1.6443    9.9911    1.4834 O.co2     1 ATP        -0.8562
      4 O3G        -2.6898    9.3331    3.7189 O.3       1 ATP        -0.7907
      5 PB         -1.2101    6.5293    1.1287 P.3       1 ATP         1.6574
      6 O1B        -2.4055    5.9101    0.4393 O.co2     1 ATP        -0.8530
      7 O2B        -0.1184    7.2113    0.3344 O.co2     1 ATP        -0.8530
      8 O3B        -1.7453    7.5592    2.2752 O.3       1 ATP        -0.8003
      9 PA         -1.1648    4.4707    3.2550 P.3       1 ATP         1.7415
     10 O1A        -2.1674    5.1697    4.1266 O.2       1 ATP        -0.8661
     11 O2A         0.1384    3.9257    4.0442 O.3       1 ATP        -0.8077
     12 O3A        -0.5308    5.4032    2.0951 O.3       1 ATP        -0.7685
     13 O5'        -1.7334    3.1724    2.4743 O.3       1 ATP        -0.5590
     14 C5'        -0.8811    2.4285    1.6206 C.3       1 ATP         0.1960
     15 C4'        -0.1994    1.3333    2.4288 C.3       1 ATP         0.0976
     16 O4'        -1.1285    0.2356    2.5840 O.3       1 ATP        -0.3865
     17 C3'         1.0324    0.7610    1.7344 C.3       1 ATP         0.0901
     18 O3'         1.9175    0.2377    2.7247 O.3       1 ATP        -0.5889
     19 C2'         0.4468   -0.3802    0.9263 C.3       1 ATP         0.0574
     20 O2'         1.3993   -1.3703    0.5961 O.3       1 ATP        -0.5923
     21 C1'        -0.6159   -0.9100    1.8769 C.3       1 ATP         0.2452
     22 N9         -1.7127   -1.6108    1.2130 N.pl3     1 ATP        -0.1834
     23 C8         -3.0370   -1.2489    1.2455 C.ar      1 ATP         0.4338
     24 N7         -3.8008   -2.0709    0.5534 N.2       1 ATP        -0.6101
     25 C5         -2.9295   -2.9976    0.0567 C.ar      1 ATP         0.2154
     26 C6         -3.2152   -4.1411   -0.7786 C.ar      1 ATP         0.6130
     27 N6         -4.4238   -4.3865   -1.1456 N.2       1 ATP        -0.8165
     28 N1         -2.0349   -4.8186   -1.0521 N.pl3     1 ATP        -0.8617
     29 C2         -0.7728   -4.4501   -0.5916 C.ar      1 ATP         0.6151
     30 N3         -0.4885   -3.4234    0.1630 N.2       1 ATP        -0.5797
     31 C4         -1.6274   -2.7377    0.4492 C.ar      1 ATP         0.0328
     32 HOG3       -1.8743    9.5393    4.2237 H         1 ATP         0.4197
     33 HOA2        0.0168    3.2726    4.7659 H         1 ATP         0.4550
     34 H5'1       -1.4795    1.9922    0.8142 H         1 ATP         0.0431
     35 H5'2       -0.1362    3.1035    1.1868 H         1 ATP         0.0431
     36 H4'         0.0402    1.7079    3.4342 H         1 ATP         0.1325
     37 H3'         1.5907    1.4859    1.1353 H         1 ATP         0.0782
     38 HO3'        2.6839   -0.1150    2.2479 H         1 ATP         0.4062
     39 H2'        -0.0017    0.0018    0.0005 H         1 ATP         0.0689
     40 HO2'        2.0953   -0.9375    0.0709 H         1 ATP         0.4089
     41 H1'        -0.1998   -1.6319    2.6178 H         1 ATP         0.1098
     42 H8         -3.3806   -0.3795    1.7893 H         1 ATP         0.0929
     43 HN62       -4.4384   -5.2300   -1.7295 H         1 ATP         0.3678
     44 H2          0.0180   -5.1355   -0.9348 H         1 ATP         0.0383
     45 H45        -2.0977   -5.6477   -1.6374 H         1 ATP         0.4286
@<TRIPOS>BOND
     1    1    2 2
     2    1    3 1
     3    1    4 1
     4    1    8 1
     5    4   32 1
     6    5    6 2
     7    5    7 1
     8    5    8 1
     9    5   12 1
    10    9   10 2
    11    9   11 1
    12    9   12 1
    13    9   13 1
    14   11   33 1
    15   13   14 1
    16   14   15 1
    17   14   34 1
    18   14   35 1
    19   15   16 1
    20   15   17 1
    21   15   36 1
    22   16   21 1
    23   17   18 1
    24   17   19 1
    25   17   37 1
    26   18   38 1
    27   19   20 1
    28   19   21 1
    29   19   39 1
    30   20   40 1
    31   21   22 1
    32   21   41 1
    33   22   23 ar
    34   22   31 ar
    35   23   24 ar
    36   23   42 1
    37   24   25 ar
    38   25   26 ar
    39   25   31 ar
    40   26   27 2
    41   26   28 ar
    42   27   43 1
    43   28   29 ar
    44   28   45 1
    45   29   30 ar
    46   29   44 1
    47   30   31 ar
@<TRIPOS>SUBSTRUCTURE
     1 ATP         1 GROUP 0 A     ****
@<TRIPOS>MOLECULE
[[[3,4-dihydroxy-5-(6-imino-1~{H}-purin-9-yl)tetrahydrofuran-2-yl]methoxy-hydroxy-phosphoryl]oxy-oxido-phosphoryl] hydrogen phosphate
   45    47     1     0     0
SMALL
USER_CHARGES

@<TRIPOS>ATOM
      1 PG         -4.1048    5.5464   -2.6104 P.3       1 ATP         1.5414
      2 O1G        -4.0359    7.0281   -2.9063 O.co2     1 ATP        -0.8562
      3 O2G        -5.2752    4.9581   -1.8545 O.co2     1 ATP        -0.8562
      4 O3G        -3.9289    4.7290   -4.0130 O.3       1 ATP        -0.7907
      5 PB         -2.1180    5.4727   -0.4174 P.3       1 ATP         1.6574
      6 O1B        -1.7694    6.9445   -0.4099 O.co2     1 ATP        -0.8530
      7 O2B        -3.0138    4.8780    0.6464 O.co2     1 ATP        -0.8530
      8 O3B        -2.7191    5.0870   -1.8842 O.3       1 ATP        -0.8003
      9 PA          0.4650    4.4450    0.5988 P.3       1 ATP         1.7415
     10 O1A         1.1480    5.7304    0.9659 O.2       1 ATP        -0.8661
     11 O2A         1.4339    3.3508   -0.0954 O.3       1 ATP        -0.8077
     12 O3A        -0.7315    4.6139   -0.4766 O.3       1 ATP        -0.7685
     13 O5'        -0.2068    3.6554    1.8412 O.3       1 ATP        -0.5590
     14 C5'        -0.8811    2.4285    1.6206 C.3       1 ATP         0.1960
     15 C4'        -0.1994    1.3333    2.4288 C.3       1 ATP         0.0976
     16 O4'        -1.1285    0.2356    2.5840 O.3       1 ATP        -0.3865
     17 C3'         1.0324    0.7610    1.7344 C.3       1 ATP         0.0901
     18 O3'         1.9175    0.2377    2.7247 O.3       1 ATP        -0.5889
     19 C2'         0.4468   -0.3802    0.9263 C.3       1 ATP         0.0574
     20 O2'         1.3993   -1.3703    0.5961 O.3       1 ATP        -0.5923
     21 C1'        -0.6159   -0.9100    1.8769 C.3       1 ATP         0.2452
     22 N9         -1.7127   -1.6108    1.2130 N.pl3     1 ATP        -0.1834
     23 C8         -2.8662   -1.0361    0.7388 C.ar      1 ATP         0.4338
     24 N7         -3.6774   -1.9166    0.1867 N.2       1 ATP        -0.6101
     25 C5         -3.0159   -3.1045    0.3122 C.ar      1 ATP         0.2154
     26 C6         -3.4377   -4.4169   -0.1199 C.ar      1 ATP         0.6130
     27 N6         -4.5720   -4.5691   -0.7080 N.2       1 ATP        -0.8165
     28 N1         -2.4600   -5.3463    0.2071 N.pl3     1 ATP        -0.8617
     29 C2         -1.2595   -5.0554    0.8515 C.ar      1 ATP         0.6151
     30 N3         -0.8555   -3.8803    1.2516 N.2       1 ATP        -0.5797
     31 C4         -1.7946   -2.9457    0.9448 C.ar      1 ATP         0.0328
     32 HOG3       -3.9513    3.7485   -3.9877 H         1 ATP         0.4197
     33 HOA2        2.2131    3.0237    0.4025 H         1 ATP         0.4550
     34 H5'1       -1.9259    2.5372    1.9293 H         1 ATP         0.0431
     35 H5'2       -0.8477    2.1923    0.5521 H         1 ATP         0.0431
     36 H4'         0.0402    1.7079    3.4342 H         1 ATP         0.1325
     37 H3'         1.5907    1.4859    1.1353 H         1 ATP         0.0782
     38 HO3'        2.6839   -0.1150    2.2479 H         1 ATP         0.4062
     39 H2'        -0.0017    0.0018    0.0005 H         1 ATP         0.0689
     40 HO2'        0.9369   -2.0558    0.0825 H         1 ATP         0.4089
     41 H1'        -0.1998   -1.6319    2.6178 H         1 ATP         0.1098
     42 H8         -3.0558    0.0252    0.8256 H         1 ATP         0.0929
     43 HN62       -4.7047   -5.5592   -0.9421 H         1 ATP         0.3678
     44 H2         -0.6372   -5.9505    1.0077 H         1 ATP         0.0383
     45 H45        -2.6338   -6.3155   -0.0469 H         1 ATP         0.4286
@<TRIPOS>BOND
     1    1    2 2
     2    1    3 1
     3    1    4 1
     4    1    8 1
     5    4   32 1
     6    5    6 2
     7    5    7 1
     8    5    8 1
     9    5   12 1
    10    9   10 2
    11    9   11 1
    12    9   12 1
    13    9   13 1
    14   11   33 1
    15   13   14 1
    16   14   15 1
    17   14   34 1
    18   14   35 1
    19   15   16 1
    20   15   17 1
    21   15   36 1
    22   16   21 1
    23   17   18 1
    24   17   19 1
    25   17   37 1
    26   18   38 1
    27   19   20 1
    28   19   21 1
    29   19   39 1
    30   20   40 1
    31   21   22 1
    32   21   41 1
    33   22   23 ar
    34   22   31 ar
    35   23   24 ar
    36   23   42 1
    37   24   25 ar
    38   25   26 ar
    39   25   31 ar
    40   26   27 2
    41   26   28 ar
    42   27   43 1
    43   28   29 ar
    44   28   45 1
    45   29   30 ar
    46   29   44 1
    47   30   31 ar
@<TRIPOS>SUBSTRUCTURE
     1 ATP         1 GROUP 0 A     ****
@<TRIPOS>MOLECULE
[[[3,4-dihydroxy-5-(6-imino-1~{H}-purin-9-yl)tetrahydrofuran-2-yl]methoxy-hydroxy-phosphoryl]oxy-oxido-phosphoryl] hydrogen phosphate
   45    47     1     0     0
SMALL
USER_CHARGES

@<TRIPOS>ATOM
      1 PG          4.0715    4.6842   -1.5296 P.3       1 ATP         1.5414
      2 O1G         4.2582    4.8975   -3.0153 O.co2     1 ATP        -0.8562
      3 O2G         4.9145    3.6795   -0.7763 O.co2     1 ATP        -0.8562
      4 O3G         4.1922    6.1294   -0.7792 O.3       1 ATP        -0.7907
      5 PB          1.5664    3.1121   -1.6519 P.3       1 ATP         1.6574
      6 O1B         1.4019    3.1092   -3.1555 O.co2     1 ATP        -0.8530
      7 O2B         2.0621    1.8853   -0.9192 O.co2     1 ATP        -0.8530
      8 O3B         2.4966    4.3849   -1.2319 O.3       1 ATP        -0.8003
      9 PA         -1.2970    2.8890   -0.9362 P.3       1 ATP         1.7415
     10 O1A        -1.6943    2.2183   -2.2191 O.2       1 ATP        -0.8661
     11 O2A        -2.2764    4.0950   -0.4842 O.3       1 ATP        -0.8077
     12 O3A         0.1591    3.5924   -0.9794 O.3       1 ATP        -0.7685
     13 O5'        -1.2435    1.9111    0.3519 O.3       1 ATP        -0.5590
     14 C5'        -0.8811    2.4285    1.6206 C.3       1 ATP         0.1960
     15 C4'        -0.1994    1.3333    2.4288 C.3       1 ATP         0.0976
     16 O4'        -1.1285    0.2356    2.5840 O.3       1 ATP        -0.3865
     17 C3'         1.0324    0.7610    1.7344 C.3       1 ATP         0.0901
     18 O3'         1.9175    0.2377    2.7247 O.3       1 ATP        -0.5889
     19 C2'         0.4468   -0.3802    0.9263 C.3       1 ATP         0.0574
     20 O2'         1.3993   -1.3703    0.5961 O.3       1 ATP        -0.5923
     21 C1'        -0.6159   -0.9100    1.8769 C.3       1 ATP         0.2452
     22 N9         -1.7127   -1.6108    1.2130 N.pl3     1 ATP        -0.1834
     23 C8         -2.8662   -1.0361    0.7388 C.ar      1 ATP         0.4338
     24 N7         -3.6774   -1.9166    0.1867 N.2       1 ATP        -0.6101
     25 C5         -3.0159   -3.1045    0.3122 C.ar      1 ATP         0.2154
     26 C6         -3.4377   -4.4169   -0.1199 C.ar      1 ATP         0.6130
     27 N6         -4.5720   -4.5691   -0.7080 N.2       1 ATP        -0.8165
     28 N1         -2.4600   -5.3463    0.2071 N.pl3     1 ATP        -0.8617
     29 C2         -1.2595   -5.0554    0.8515 C.ar      1 ATP         0.6151
     30 N3         -0.8555   -3.8803    1.2516 N.2       1 ATP        -0.5797
     31 C4         -1.7946   -2.9457    0.9448 C.ar      1 ATP         0.0328
     32 HOG3        4.0931    6.1585    0.1963 H         1 ATP         0.4197
     33 HOA2       -2.3876    4.8648   -1.0818 H         1 ATP         0.4550
     34 H5'1       -0.2031    3.2762    1.4776 H         1 ATP         0.0431
     35 H5'2       -1.7839    2.7764    2.1331 H         1 ATP         0.0431
     36 H4'         0.0402    1.7079    3.4342 H         1 ATP         0.1325
     37 H3'         1.5907    1.4859    1.1353 H         1 ATP         0.0782
     38 HO3'        2.6839   -0.1150    2.2479 H         1 ATP         0.4062
     39 H2'        -0.0017    0.0018    0.0005 H         1 ATP         0.0689
     40 HO2'        2.0953   -0.9375    0.0709 H         1 ATP         0.4089
     41 H1'        -0.1998   -1.6319    2.6178 H         1 ATP         0.1098
     42 H8         -3.0558    0.0252    0.8256 H         1 ATP         0.0929
     43 HN62       -4.7047   -5.5592   -0.9421 H         1 ATP         0.3678
     44 H2         -0.6372   -5.9505    1.0077 H         1 ATP         0.0383
     45 H45        -2.6338   -6.3155   -0.0469 H         1 ATP         0.4286
@<TRIPOS>BOND
     1    1    2 2
     2    1    3 1
     3    1    4 1
     4    1    8 1
     5    4   32 1
     6    5    6 2
     7    5    7 1
     8    5    8 1
     9    5   12 1
    10    9   10 2
    11    9   11 1
    12    9   12 1
    13    9   13 1
    14   11   33 1
    15   13   14 1
    16   14   15 1
    17   14   34 1
    18   14   35 1
    19   15   16 1
    20   15   17 1
    21   15   36 1
    22   16   21 1
    23   17   18 1
    24   17   19 1
    25   17   37 1
    26   18   38 1
    27   19   20 1
    28   19   21 1
    29   19   39 1
    30   20   40 1
    31   21   22 1
    32   21   41 1
    33   22   23 ar
    34   22   31 ar
    35   23   24 ar
    36   23   42 1
    37   24   25 ar
    38   25   26 ar
    39   25   31 ar
    40   26   27 2
    41   26   28 ar
    42   27   43 1
    43   28   29 ar
    44   28   45 1
    45   29   30 ar
    46   29   44 1
    47   30   31 ar
@<TRIPOS>SUBSTRUCTURE
     1 ATP         1 GROUP 0 A     ****
@<TRIPOS>MOLECULE
[[[3,4-dihydroxy-5-(6-imino-1~{H}-purin-9-yl)tetrahydrofuran-2-yl]methoxy-hydroxy-phosphoryl]oxy-oxido-phosphoryl] hydrogen phosphate
   45    47     1     0     0
SMALL
USER_CHARGES

@<TRIPOS>ATOM
      1 PG         -5.9218    3.9192   -2.5599 P.3       1 ATP         1.5414
      2 O1G        -7.2823    4.2079   -1.9655 O.co2     1 ATP        -0.8562
      3 O2G        -5.7759    3.0230   -3.7695 O.co2     1 ATP        -0.8562
      4 O3G        -5.1814    5.3402   -2.8744 O.3       1 ATP        -0.7907
      5 PB         -4.9764    2.0039   -0.5106 P.3       1 ATP         1.6574
      6 O1B        -6.2046    2.0282    0.3719 O.co2     1 ATP        -0.8530
      7 O2B        -4.7030    0.8382   -1.4348 O.co2     1 ATP        -0.8530
      8 O3B        -4.9320    3.3836   -1.3801 O.3       1 ATP        -0.8003
      9 PA         -3.3138    3.4214    1.4862 P.3       1 ATP         1.7415
     10 O1A        -4.4758    3.8483    2.3355 O.2       1 ATP        -0.8661
     11 O2A        -2.7042    4.5947    0.5537 O.3       1 ATP        -0.8077
     12 O3A        -3.6627    2.2507    0.4259 O.3       1 ATP        -0.7685
     13 O5'        -2.0397    2.8622    2.3122 O.3       1 ATP        -0.5590
     14 C5'        -0.8811    2.4285    1.6206 C.3       1 ATP         0.1960
     15 C4'        -0.1994    1.3333    2.4288 C.3       1 ATP         0.0976
     16 O4'        -1.1285    0.2356    2.5840 O.3       1 ATP        -0.3865
     17 C3'         1.0324    0.7610    1.7344 C.3       1 ATP         0.0901
     18 O3'         1.9175    0.2377    2.7247 O.3       1 ATP        -0.5889
     19 C2'         0.4468   -0.3802    0.9263 C.3       1 ATP         0.0574
     20 O2'         1.3993   -1.3703    0.5961 O.3       1 ATP        -0.5923
     21 C1'        -0.6159   -0.9100    1.8769 C.3       1 ATP         0.2452
     22 N9         -1.7127   -1.6108    1.2130 N.pl3     1 ATP        -0.1834
     23 C8         -1.5982   -2.7455    0.4481 C.ar      1 ATP         0.4338
     24 N7         -2.7593   -3.1533   -0.0249 N.2       1 ATP        -0.6101
     25 C5         -3.6547   -2.2420    0.4573 C.ar      1 ATP         0.2154
     26 C6         -5.0842   -2.1942    0.2543 C.ar      1 ATP         0.6130
     27 N6         -5.6648   -3.0919   -0.4618 N.2       1 ATP        -0.8165
     28 N1         -5.6087   -1.0978    0.9248 N.pl3     1 ATP        -0.8617
     29 C2         -4.8689   -0.1873    1.6760 C.ar      1 ATP         0.6151
     30 N3         -3.5787   -0.2081    1.8745 N.2       1 ATP        -0.5797
     31 C4         -3.0344   -1.2737    1.2284 C.ar      1 ATP         0.0328
     32 HOG3       -4.2822    5.3212   -3.2662 H         1 ATP         0.4197
     33 HOA2       -3.2856    5.0230   -0.1102 H         1 ATP         0.4550
     34 H5'1       -1.1761    2.0499    0.6365 H         1 ATP         0.0431
     35 H5'2       -0.2073    3.2811    1.4874 H         1 ATP         0.0431
     36 H4'         0.0402    1.7079    3.4342 H         1 ATP         0.1325
     37 H3'         1.5907    1.4859    1.1353 H         1 ATP         0.0782
     38 HO3'        2.1521    0.9800    3.3017 H         1 ATP         0.4062
     39 H2'        -0.0017    0.0018    0.0005 H         1 ATP         0.0689
     40 HO2'        2.0953   -0.9375    0.0709 H         1 ATP         0.4089
     41 H1'        -0.1998   -1.6319    2.6178 H         1 ATP         0.1098
     42 H8         -0.6448   -3.2254    0.2735 H         1 ATP         0.0929
     43 HN62       -6.6723   -2.9015   -0.4966 H         1 ATP         0.3678
     44 H2         -5.4961    0.6026    2.1183 H         1 ATP         0.0383
     45 H45        -6.6130   -0.9504    0.8642 H         1 ATP         0.4286
@<TRIPOS>BOND
     1    1    2 2
     2    1    3 1
     3    1    4 1
     4    1    8 1
     5    4   32 1
     6    5    6 2
     7    5    7 1
     8    5    8 1
     9    5   12 1
    10    9   10 2
    11    9   11 1
    12    9   12 1
    13    9   13 1
    14   11   33 1
    15   13   14 1
    16   14   15 1
    17   14   34 1
    18   14   35 1
    19   15   16 1
    20   15   17 1
    21   15   36 1
    22   16   21 1
    23   17   18 1
    24   17   19 1
    25   17   37 1
    26   18   38 1
    27   19   20 1
    28   19   21 1
    29   19   39 1
    30   20   40 1
    31   21   22 1
    32   21   41 1
    33   22   23 ar
    34   22   31 ar
    35   23   24 ar
    36   23   42 1
    37   24   25 ar
    38   25   26 ar
    39   25   31 ar
    40   26   27 2
    41   26   28 ar
    42   27   43 1
    43   28   29 ar
    44   28   45 1
    45   29   30 ar
    46   29   44 1
    47   30   31 ar
@<TRIPOS>SUBSTRUCTURE
     1 ATP         1 GROUP 0 A     ****
@<TRIPOS>MOLECULE
[[[3,4-dihydroxy-5-(6-imino-1~{H}-purin-9-yl)tetrahydrofuran-2-yl]methoxy-hydroxy-phosphoryl]oxy-oxido-phosphoryl] hydrogen phosphate
   45    47     1     0     0
SMALL
USER_CHARGES

@<TRIPOS>ATOM
      1 PG         -2.2219    8.4120   -0.0825 P.3       1 ATP         1.5414
      2 O1G        -2.9803    8.4474    1.2256 O.co2     1 ATP        -0.8562
      3 O2G        -2.9073    8.7489   -1.3880 O.co2     1 ATP        -0.8562
      4 O3G        -0.8930    9.3494    0.0632 O.3       1 ATP        -0.7907
      5 PB         -2.1180    5.4727   -0.4174 P.3       1 ATP         1.6574
      6 O1B        -2.8594    5.0981    0.8467 O.co2     1 ATP        -0.8530
      7 O2B        -2.7937    5.3996   -1.7686 O.co2     1 ATP        -0.8530
      8 O3B        -1.4854    6.9646   -0.2279 O.3       1 ATP        -0.8003
      9 PA          0.4650    4.4450    0.5988 P.3       1 ATP         1.7415
     10 O1A         1.1480    5.7304    0.9659 O.2       1 ATP        -0.8661
     11 O2A         1.4339    3.3508   -0.0954 O.3       1 ATP        -0.8077
     12 O3A        -0.7315    4.6139   -0.4766 O.3       1 ATP        -0.7685
     13 O5'        -0.2068    3.6554    1.8412 O.3       1 ATP        -0.5590
     14 C5'        -0.8811    2.4285    1.6206 C.3       1 ATP         0.1960
     15 C4'        -0.1994    1.3333    2.4288 C.3       1 ATP         0.0976
     16 O4'        -1.1285    0.2356    2.5840 O.3       1 ATP        -0.3865
     17 C3'         1.0324    0.7610    1.7344 C.3       1 ATP         0.0901
     18 O3'         1.9175    0.2377    2.7247 O.3       1 ATP        -0.5889
     19 C2'         0.4468   -0.3802    0.9263 C.3       1 ATP         0.0574
     20 O2'         1.3993   -1.3703    0.5961 O.3       1 ATP        -0.5923
     21 C1'        -0.6159   -0.9100    1.8769 C.3       1 ATP         0.2452
     22 N9         -1.7127   -1.6108    1.2130 N.pl3     1 ATP        -0.1834
     23 C8         -2.5485   -1.0808    0.2609 C.ar      1 ATP         0.4338
     24 N7         -3.4476   -1.9486   -0.1593 N.2       1 ATP        -0.6101
     25 C5         -3.1762   -3.0816    0.5530 C.ar      1 ATP         0.2154
     26 C6         -3.8510   -4.3579    0.5006 C.ar      1 ATP         0.6130
     27 N6         -4.8468   -4.5293   -0.2961 N.2       1 ATP        -0.8165
     28 N1         -3.2499   -5.2342    1.3937 N.pl3     1 ATP        -0.8617
     29 C2         -2.1646   -4.9275    2.2116 C.ar      1 ATP         0.6151
     30 N3         -1.5382   -3.7840    2.2778 N.2       1 ATP        -0.5797
     31 C4         -2.1054   -2.9018    1.4120 C.ar      1 ATP         0.0328
     32 HOG3       -0.2920    9.4302   -0.7080 H         1 ATP         0.4197
     33 HOA2        2.2131    3.0237    0.4025 H         1 ATP         0.4550
     34 H5'1       -1.9259    2.5372    1.9293 H         1 ATP         0.0431
     35 H5'2       -0.8477    2.1923    0.5521 H         1 ATP         0.0431
     36 H4'         0.0402    1.7079    3.4342 H         1 ATP         0.1325
     37 H3'         1.5907    1.4859    1.1353 H         1 ATP         0.0782
     38 HO3'        2.6839   -0.1150    2.2479 H         1 ATP         0.4062
     39 H2'        -0.0017    0.0018    0.0005 H         1 ATP         0.0689
     40 HO2'        0.9369   -2.0558    0.0825 H         1 ATP         0.4089
     41 H1'        -0.1998   -1.6319    2.6178 H         1 ATP         0.1098
     42 H8         -2.4515   -0.0599   -0.0829 H         1 ATP         0.0929
     43 HN62       -5.1990   -5.4882   -0.2005 H         1 ATP         0.3678
     44 H2         -1.8555   -5.7783    2.8388 H         1 ATP         0.0383
     45 H45        -3.6312   -6.1750    1.4526 H         1 ATP         0.4286
@<TRIPOS>BOND
     1    1    2 2
     2    1    3 1
     3    1    4 1
     4    1    8 1
     5    4   32 1
     6    5    6 2
     7    5    7 1
     8    5    8 1
     9    5   12 1
    10    9   10 2
    11    9   11 1
    12    9   12 1
    13    9   13 1
    14   11   33 1
    15   13   14 1
    16   14   15 1
    17   14   34 1
    18   14   35 1
    19   15   16 1
    20   15   17 1
    21   15   36 1
    22   16   21 1
    23   17   18 1
    24   17   19 1
    25   17   37 1
    26   18   38 1
    27   19   20 1
    28   19   21 1
    29   19   39 1
    30   20   40 1
    31   21   22 1
    32   21   41 1
    33   22   23 ar
    34   22   31 ar
    35   23   24 ar
    36   23   42 1
    37   24   25 ar
    38   25   26 ar
    39   25   31 ar
    40   26   27 2
    41   26   28 ar
    42   27   43 1
    43   28   29 ar
    44   28   45 1
    45   29   30 ar
    46   29   44 1
    47   30   31 ar
@<TRIPOS>SUBSTRUCTURE
     1 ATP         1 GROUP 0 A     ****
@<TRIPOS>MOLECULE
[[[3,4-dihydroxy-5-(6-imino-1~{H}-purin-9-yl)tetrahydrofuran-2-yl]methoxy-hydroxy-phosphoryl]oxy-oxido-phosphoryl] hydrogen phosphate
   45    47     1     0     0
SMALL
USER_CHARGES

@<TRIPOS>ATOM
      1 PG         -3.7849    5.2306   -1.5182 P.3       1 ATP         1.5414
      2 O1G        -4.1408    6.6934   -1.3727 O.co2     1 ATP        -0.8562
      3 O2G        -3.7791    4.3089   -0.3191 O.co2     1 ATP        -0.8562
      4 O3G        -4.7392    4.5770   -2.6708 O.3       1 ATP        -0.7907
      5 PB         -0.8563    5.5476   -1.8094 P.3       1 ATP         1.6574
      6 O1B         0.1423    5.0558   -2.8334 O.co2     1 ATP        -0.8530
      7 O2B        -0.8880    6.9991   -1.3854 O.co2     1 ATP        -0.8530
      8 O3B        -2.3529    5.1087   -2.2883 O.3       1 ATP        -0.8003
      9 PA          0.4650    4.4450    0.5988 P.3       1 ATP         1.7415
     10 O1A         1.1480    5.7304    0.9659 O.2       1 ATP        -0.8661
     11 O2A         1.4339    3.3508   -0.0954 O.3       1 ATP        -0.8077
     12 O3A        -0.7315    4.6139   -0.4766 O.3       1 ATP        -0.7685
     13 O5'        -0.2068    3.6554    1.8412 O.3       1 ATP        -0.5590
     14 C5'        -0.8811    2.4285    1.6206 C.3       1 ATP         0.1960
     15 C4'        -0.1994    1.3333    2.4288 C.3       1 ATP         0.0976
     16 O4'        -1.1285    0.2356    2.5840 O.3       1 ATP        -0.3865
     17 C3'         1.0324    0.7610    1.7344 C.3       1 ATP         0.0901
     18 O3'         1.9175    0.2377    2.7247 O.3       1 ATP        -0.5889
     19 C2'         0.4468   -0.3802    0.9263 C.3       1 ATP         0.0574
     20 O2'         1.3993   -1.3703    0.5961 O.3       1 ATP        -0.5923
     21 C1'        -0.6159   -0.9100    1.8769 C.3       1 ATP         0.2452
     22 N9         -1.7127   -1.6108    1.2130 N.pl3     1 ATP        -0.1834
     23 C8         -2.0868   -2.9137    1.4327 C.ar      1 ATP         0.4338
     24 N7         -3.1125   -3.2756    0.6878 N.2       1 ATP        -0.6101
     25 C5         -3.4079   -2.1580   -0.0391 C.ar      1 ATP         0.2154
     26 C6         -4.4483   -1.9775   -1.0249 C.ar      1 ATP         0.6130
     27 N6         -5.2418   -2.9492   -1.3113 N.2       1 ATP        -0.8165
     28 N1         -4.3937   -0.6823   -1.5211 N.pl3     1 ATP        -0.8617
     29 C2         -3.4770    0.2901   -1.1271 C.ar      1 ATP         0.6151
     30 N3         -2.5289    0.1525   -0.2402 N.2       1 ATP        -0.5797
     31 C4         -2.5564   -1.1096    0.2655 C.ar      1 ATP         0.0328
     32 HOG3       -4.6289    3.6258   -2.8838 H         1 ATP         0.4197
     33 HOA2        2.2131    3.0237    0.4025 H         1 ATP         0.4550
     34 H5'1       -1.9259    2.5372    1.9293 H         1 ATP         0.0431
     35 H5'2       -0.8477    2.1923    0.5521 H         1 ATP         0.0431
     36 H4'         0.0402    1.7079    3.4342 H         1 ATP         0.1325
     37 H3'         1.5907    1.4859    1.1353 H         1 ATP         0.0782
     38 HO3'        2.6839   -0.1150    2.2479 H         1 ATP         0.4062
     39 H2'        -0.0017    0.0018    0.0005 H         1 ATP         0.0689
     40 HO2'        0.9369   -2.0558    0.0825 H         1 ATP         0.4089
     41 H1'        -0.1998   -1.6319    2.6178 H         1 ATP         0.1098
     42 H8         -1.5740   -3.5449    2.1457 H         1 ATP         0.0929
     43 HN62       -5.9117   -2.6433   -2.0256 H         1 ATP         0.3678
     44 H2         -3.6225    1.2454   -1.6553 H         1 ATP         0.0383
     45 H45        -5.0794   -0.4231   -2.2258 H         1 ATP         0.4286
@<TRIPOS>BOND
     1    1    2 2
     2    1    3 1
     3    1    4 1
     4    1    8 1
     5    4   32 1
     6    5    6 2
     7    5    7 1
     8    5    8 1
     9    5   12 1
    10    9   10 2
    11    9   11 1
    12    9   12 1
    13    9   13 1
    14   11   33 1
    15   13   14 1
    16   14   15 1
    17   14   34 1
    18   14   35 1
    19   15   16 1
    20   15   17 1
    21   15   36 1
    22   16   21 1
    23   17   18 1
    24   17   19 1
    25   17   37 1
    26   18   38 1
    27   19   20 1
    28   19   21 1
    29   19   39 1
    30   20   40 1
    31   21   22 1
    32   21   41 1
    33   22   23 ar
    34   22   31 ar
    35   23   24 ar
    36   23   42 1
    37   24   25 ar
    38   25   26 ar
    39   25   31 ar
    40   26   27 2
    41   26   28 ar
    42   27   43 1
    43   28   29 ar
    44   28   45 1
    45   29   30 ar
    46   29   44 1
    47   30   31 ar
@<TRIPOS>SUBSTRUCTURE
     1 ATP         1 GROUP 0 A     ****
@<TRIPOS>MOLECULE
[[[3,4-dihydroxy-5-(6-imino-1~{H}-purin-9-yl)tetrahydrofuran-2-yl]methoxy-hydroxy-phosphoryl]oxy-oxido-phosphoryl] hydrogen phosphate
   45    47     1     0     0
SMALL
USER_CHARGES

@<TRIPOS>ATOM
      1 PG         -3.1512    5.3514   -3.7020 P.3       1 ATP         1.5414
      2 O1G        -2.6927    4.4284   -4.8090 O.co2     1 ATP        -0.8562
      3 O2G        -3.1711    6.8509   -3.8981 O.co2     1 ATP        -0.8562
      4 O3G        -4.6321    4.8728   -3.2080 O.3       1 ATP        -0.7907
      5 PB         -0.7321    5.1893   -2.0039 P.3       1 ATP         1.6574
      6 O1B         0.0628    4.2403   -2.8730 O.co2     1 ATP        -0.8530
      7 O2B        -0.4119    6.6671   -1.9672 O.co2     1 ATP        -0.8530
      8 O3B        -2.3168    5.0047   -2.3447 O.3       1 ATP        -0.8003
      9 PA          0.4650    4.4450    0.5988 P.3       1 ATP         1.7415
     10 O1A         1.1480    5.7304    0.9659 O.2       1 ATP        -0.8661
     11 O2A         1.4339    3.3508   -0.0954 O.3       1 ATP        -0.8077
     12 O3A        -0.7315    4.6139   -0.4766 O.3       1 ATP        -0.7685
     13 O5'        -0.2068    3.6554    1.8412 O.3       1 ATP        -0.5590
     14 C5'        -0.8811    2.4285    1.6206 C.3       1 ATP         0.1960
     15 C4'        -0.1994    1.3333    2.4288 C.3       1 ATP         0.0976
     16 O4'        -1.1285    0.2356    2.5840 O.3       1 ATP        -0.3865
     17 C3'         1.0324    0.7610    1.7344 C.3       1 ATP         0.0901
     18 O3'         1.9175    0.2377    2.7247 O.3       1 ATP        -0.5889
     19 C2'         0.4468   -0.3802    0.9263 C.3       1 ATP         0.0574
     20 O2'         1.3993   -1.3703    0.5961 O.3       1 ATP        -0.5923
     21 C1'        -0.6159   -0.9100    1.8769 C.3       1 ATP         0.2452
     22 N9         -1.7127   -1.6108    1.2130 N.pl3     1 ATP        -0.1834
     23 C8         -2.5485   -1.0808    0.2609 C.ar      1 ATP         0.4338
     24 N7         -3.4476   -1.9486   -0.1593 N.2       1 ATP        -0.6101
     25 C5         -3.1762   -3.0816    0.5530 C.ar      1 ATP         0.2154
     26 C6         -3.8510   -4.3579    0.5006 C.ar      1 ATP         0.6130
     27 N6         -4.8468   -4.5293   -0.2961 N.2       1 ATP        -0.8165
     28 N1         -3.2499   -5.2342    1.3937 N.pl3     1 ATP        -0.8617
     29 C2         -2.1646   -4.9275    2.2116 C.ar      1 ATP         0.6151
     30 N3         -1.5382   -3.7840    2.2778 N.2       1 ATP        -0.5797
     31 C4         -2.1054   -2.9018    1.4120 C.ar      1 ATP         0.0328
     32 HOG3       -5.0692    5.3760   -2.4882 H         1 ATP         0.4197
     33 HOA2        2.2131    3.0237    0.4025 H         1 ATP         0.4550
     34 H5'1       -1.9259    2.5372    1.9293 H         1 ATP         0.0431
     35 H5'2       -0.8477    2.1923    0.5521 H         1 ATP         0.0431
     36 H4'         0.0402    1.7079    3.4342 H         1 ATP         0.1325
     37 H3'         1.5907    1.4859    1.1353 H         1 ATP         0.0782
     38 HO3'        2.6839   -0.1150    2.2479 H         1 ATP         0.4062
     39 H2'        -0.0017    0.0018    0.0005 H         1 ATP         0.0689
     40 HO2'        0.9369   -2.0558    0.0825 H         1 ATP         0.4089
     41 H1'        -0.1998   -1.6319    2.6178 H         1 ATP         0.1098
     42 H8         -2.4515   -0.0599   -0.0829 H         1 ATP         0.0929
     43 HN62       -5.1990   -5.4882   -0.2005 H         1 ATP         0.3678
     44 H2         -1.8555   -5.7783    2.8388 H         1 ATP         0.0383
     45 H45        -3.6312   -6.1750    1.4526 H         1 ATP         0.4286
@<TRIPOS>BOND
     1    1    2 2
     2    1    3 1
     3    1    4 1
     4    1    8 1
     5    4   32 1
     6    5    6 2
     7    5    7 1
     8    5    8 1
     9    5   12 1
    10    9   10 2
    11    9   11 1
    12    9   12 1
    13    9   13 1
    14   11   33 1
    15   13   14 1
    16   14   15 1
    17   14   34 1
    18   14   35 1
    19   15   16 1
    20   15   17 1
    21   15   36 1
    22   16   21 1
    23   17   18 1
    24   17   19 1
    25   17   37 1
    26   18   38 1
    27   19   20 1
    28   19   21 1
    29   19   39 1
    30   20   40 1
    31   21   22 1
    32   21   41 1
    33   22   23 ar
    34   22   31 ar
    35   23   24 ar
    36   23   42 1
    37   24   25 ar
    38   25   26 ar
    39   25   31 ar
    40   26   27 2
    41   26   28 ar
    42   27   43 1
    43   28   29 ar
    44   28   45 1
    45   29   30 ar
    46   29   44 1
    47   30   31 ar
@<TRIPOS>SUBSTRUCTURE
     1 ATP         1 GROUP 0 A     ****
@<TRIPOS>MOLECULE
[[[3,4-dihydroxy-5-(6-imino-1~{H}-purin-9-yl)tetrahydrofuran-2-yl]methoxy-hydroxy-phosphoryl]oxy-oxido-phosphoryl] hydrogen phosphate
   45    47     1     0     0
SMALL
USER_CHARGES

@<TRIPOS>ATOM
      1 PG         -3.1512    5.3514   -3.7020 P.3       1 ATP         1.5414
      2 O1G        -2.6927    4.4284   -4.8090 O.co2     1 ATP        -0.8562
      3 O2G        -3.1711    6.8509   -3.8981 O.co2     1 ATP        -0.8562
      4 O3G        -4.6321    4.8728   -3.2080 O.3       1 ATP        -0.7907
      5 PB         -0.7321    5.1893   -2.0039 P.3       1 ATP         1.6574
      6 O1B         0.0628    4.2403   -2.8730 O.co2     1 ATP        -0.8530
      7 O2B        -0.4119    6.6671   -1.9672 O.co2     1 ATP        -0.8530
      8 O3B        -2.3168    5.0047   -2.3447 O.3       1 ATP        -0.8003
      9 PA          0.4650    4.4450    0.5988 P.3       1 ATP         1.7415
     10 O1A         1.1480    5.7304    0.9659 O.2       1 ATP        -0.8661
     11 O2A         1.4339    3.3508   -0.0954 O.3       1 ATP        -0.8077
     12 O3A        -0.7315    4.6139   -0.4766 O.3       1 ATP        -0.7685
     13 O5'        -0.2068    3.6554    1.8412 O.3       1 ATP        -0.5590
     14 C5'        -0.8811    2.4285    1.6206 C.3       1 ATP         0.1960
     15 C4'        -0.1994    1.3333    2.4288 C.3       1 ATP         0.0976
     16 O4'        -1.1285    0.2356    2.5840 O.3       1 ATP        -0.3865
     17 C3'         1.0324    0.7610    1.7344 C.3       1 ATP         0.0901
     18 O3'         1.9175    0.2377    2.7247 O.3       1 ATP        -0.5889
     19 C2'         0.4468   -0.3802    0.9263 C.3       1 ATP         0.0574
     20 O2'         1.3993   -1.3703    0.5961 O.3       1 ATP        -0.5923
     21 C1'        -0.6159   -0.9100    1.8769 C.3       1 ATP         0.2452
     22 N9         -1.7127   -1.6108    1.2130 N.pl3     1 ATP        -0.1834
     23 C8         -1.7690   -2.9583    0.9549 C.ar      1 ATP         0.4338
     24 N7         -2.8827   -3.3076    0.3418 N.2       1 ATP        -0.6101
     25 C5         -3.5683   -2.1351    0.2017 C.ar      1 ATP         0.2154
     26 C6         -4.8617   -1.9185   -0.4044 C.ar      1 ATP         0.6130
     27 N6         -5.5166   -2.9094   -0.8993 N.2       1 ATP        -0.8165
     28 N1         -5.1837   -0.5701   -0.3344 N.pl3     1 ATP        -0.8617
     29 C2         -4.3821    0.4180    0.2330 C.ar      1 ATP         0.6151
     30 N3         -3.2117    0.2488    0.7860 N.2       1 ATP        -0.5797
     31 C4         -2.8672   -1.0657    0.7327 C.ar      1 ATP         0.0328
     32 HOG3       -5.0692    5.3760   -2.4882 H         1 ATP         0.4197
     33 HOA2        2.2131    3.0237    0.4025 H         1 ATP         0.4550
     34 H5'1       -1.9259    2.5372    1.9293 H         1 ATP         0.0431
     35 H5'2       -0.8477    2.1923    0.5521 H         1 ATP         0.0431
     36 H4'         0.0402    1.7079    3.4342 H         1 ATP         0.1325
     37 H3'         1.5907    1.4859    1.1353 H         1 ATP         0.0782
     38 HO3'        2.1521    0.9800    3.3017 H         1 ATP         0.4062
     39 H2'        -0.0017    0.0018    0.0005 H         1 ATP         0.0689
     40 HO2'        2.0953   -0.9375    0.0709 H         1 ATP         0.4089
     41 H1'        -0.1998   -1.6319    2.6178 H         1 ATP         0.1098
     42 H8         -0.9697   -3.6300    1.2371 H         1 ATP         0.0929
     43 HN62       -6.4060   -2.5723   -1.2840 H         1 ATP         0.3678
     44 H2         -4.8409    1.4176    0.1757 H         1 ATP         0.0383
     45 H45        -6.0768   -0.2826   -0.7263 H         1 ATP         0.4286
@<TRIPOS>BOND
     1    1    2 2
     2    1    3 1
     3    1    4 1
     4    1    8 1
     5    4   32 1
     6    5    6 2
     7    5    7 1
     8    5    8 1
     9    5   12 1
    10    9   10 2
    11    9   11 1
    12    9   12 1
    13    9   13 1
    14   11   33 1
    15   13   14 1
    16   14   15 1
    17   14   34 1
    18   14   35 1
    19   15   16 1
    20   15   17 1
    21   15   36 1
    22   16   21 1
    23   17   18 1
    24   17   19 1
    25   17   37 1
    26   18   38 1
    27   19   20 1
    28   19   21 1
    29   19   39 1
    30   20   40 1
    31   21   22 1
    32   21   41 1
    33   22   23 ar
    34   22   31 ar
    35   23   24 ar
    36   23   42 1
    37   24   25 ar
    38   25   26 ar
    39   25   31 ar
    40   26   27 2
    41   26   28 ar
    42   27   43 1
    43   28   29 ar
    44   28   45 1
    45   29   30 ar
    46   29   44 1
    47   30   31 ar
@<TRIPOS>SUBSTRUCTURE
     1 ATP         1 GROUP 0 A     ****
@<TRIPOS>MOLECULE
[[[3,4-dihydroxy-5-(6-imino-1~{H}-purin-9-yl)tetrahydrofuran-2-yl]methoxy-hydroxy-phosphoryl]oxy-oxido-phosphoryl] hydrogen phosphate
   45    47     1     0     0
SMALL
USER_CHARGES

@<TRIPOS>ATOM
      1 PG          2.8271    8.0880   -3.1414 P.3       1 ATP         1.5414
      2 O1G         1.3441    8.3816   -3.1873 O.co2     1 ATP        -0.8562
      3 O2G         3.6544    8.0631   -4.4072 O.co2     1 ATP        -0.8562
      4 O3G         3.5268    9.1171   -2.0842 O.3       1 ATP        -0.7907
      5 PB          2.6538    5.1656   -2.7039 P.3       1 ATP         1.6574
      6 O1B         1.1456    5.0523   -2.6853 O.co2     1 ATP        -0.8530
      7 O2B         3.4537    4.7329   -3.9125 O.co2     1 ATP        -0.8530
      8 O3B         3.0660    6.6977   -2.3238 O.3       1 ATP        -0.8003
      9 PA          4.7462    4.3191   -0.7891 P.3       1 ATP         1.7415
     10 O1A         5.3452    5.6480   -0.4300 O.2       1 ATP        -0.8661
     11 O2A         5.5521    3.5142   -1.9383 O.3       1 ATP        -0.8077
     12 O3A         3.2448    4.4082   -1.3846 O.3       1 ATP        -0.7685
     13 O5'         4.6408    3.2692    0.4376 O.3       1 ATP        -0.5590
     14 C5'         4.0922    1.9801    0.2227 C.3       1 ATP         0.1960
     15 C4'         2.5944    2.0310    0.4653 C.3       1 ATP         0.0976
     16 O4'         1.9327    2.5740   -0.6889 O.3       1 ATP        -0.3865
     17 C3'         1.9685    0.6634    0.6767 C.3       1 ATP         0.0901
     18 O3'         2.1425    0.1975    1.9977 O.3       1 ATP        -0.5889
     19 C2'         0.5176    0.9128    0.3099 C.3       1 ATP         0.0574
     20 O2'        -0.2103    1.4454    1.4152 O.3       1 ATP        -0.5923
     21 C1'         0.6219    1.9765   -0.7844 C.3       1 ATP         0.2452
     22 N9          0.4237    1.4496   -2.1357 N.pl3     1 ATP        -0.1834
     23 C8          1.4069    0.9710   -2.9662 C.ar      1 ATP         0.4338
     24 N7          0.9316    0.5623   -4.1260 N.2       1 ATP        -0.6101
     25 C5         -0.4120    0.7884   -4.0344 C.ar      1 ATP         0.2154
     26 C6         -1.4353    0.5283   -5.0204 C.ar      1 ATP         0.6130
     27 N6         -1.1199    0.0176   -6.1586 N.2       1 ATP        -0.8165
     28 N1         -2.6704    0.9095   -4.5147 N.pl3     1 ATP        -0.8617
     29 C2         -2.8863    1.4571   -3.2520 C.ar      1 ATP         0.6151
     30 N3         -1.9805    1.7017   -2.3442 N.2       1 ATP        -0.5797
     31 C4         -0.7561    1.3381   -2.8112 C.ar      1 ATP         0.0328
     32 HOG3        4.4952    9.0525   -1.9414 H         1 ATP         0.4197
     33 HOA2        6.4887    3.2704   -1.7783 H         1 ATP         0.4550
     34 H5'1        4.3024    1.6722   -0.8067 H         1 ATP         0.0431
     35 H5'2        4.5673    1.2731    0.9105 H         1 ATP         0.0431
     36 H4'         2.3752    2.7029    1.3156 H         1 ATP         0.1325
     37 H3'         2.4336   -0.1217   -0.0016 H         1 ATP         0.0782
     38 HO3'        1.7160   -0.6716    2.0397 H         1 ATP         0.4062
     39 H2'         0.0316    0.0155   -0.0339 H         1 ATP         0.0689
     40 HO2'       -1.1270    1.5823    1.1180 H         1 ATP         0.4089
     41 H1'        -0.1474    2.7798   -0.6651 H         1 ATP         0.1098
     42 H8          2.4466    0.9468   -2.6694 H         1 ATP         0.0929
     43 HN62       -1.9661   -0.0965   -6.7275 H         1 ATP         0.3678
     44 H2         -3.9481    1.6825   -3.0660 H         1 ATP         0.0383
     45 H45        -3.4814    0.7753   -5.1133 H         1 ATP         0.4286
@<TRIPOS>BOND
     1    1    2 2
     2    1    3 1
     3    1    4 1
     4    1    8 1
     5    4   32 1
     6    5    6 2
     7    5    7 1
     8    5    8 1
     9    5   12 1
    10    9   10 2
    11    9   11 1
    12    9   12 1
    13    9   13 1
    14   11   33 1
    15   13   14 1
    16   14   15 1
    17   14   34 1
    18   14   35 1
    19   15   16 1
    20   15   17 1
    21   15   36 1
    22   16   21 1
    23   17   18 1
    24   17   19 1
    25   17   37 1
    26   18   38 1
    27   19   20 1
    28   19   21 1
    29   19   39 1
    30   20   40 1
    31   21   22 1
    32   21   41 1
    33   22   23 ar
    34   22   31 ar
    35   23   24 ar
    36   23   42 1
    37   24   25 ar
    38   25   26 ar
    39   25   31 ar
    40   26   27 2
    41   26   28 ar
    42   27   43 1
    43   28   29 ar
    44   28   45 1
    45   29   30 ar
    46   29   44 1
    47   30   31 ar
@<TRIPOS>SUBSTRUCTURE
     1 ATP         1 GROUP 0 A     ****
@<TRIPOS>MOLECULE
[[[3,4-dihydroxy-5-(6-imino-1~{H}-purin-9-yl)tetrahydrofuran-2-yl]methoxy-hydroxy-phosphoryl]oxy-oxido-phosphoryl] hydrogen phosphate
   45    47     1     0     0
SMALL
USER_CHARGES

@<TRIPOS>ATOM
      1 PG          3.5092    5.9194   -5.1857 P.3       1 ATP         1.5414
      2 O1G         3.8698    7.3817   -5.0476 O.co2     1 ATP        -0.8562
      3 O2G         2.2529    5.4936   -5.9123 O.co2     1 ATP        -0.8562
      4 O3G         4.7803    5.1316   -5.8412 O.3       1 ATP        -0.7907
      5 PB          2.5587    5.4679   -2.4189 P.3       1 ATP         1.6574
      6 O1B         2.7904    6.8673   -1.8939 O.co2     1 ATP        -0.8530
      7 O2B         1.1672    4.9833   -2.7602 O.co2     1 ATP        -0.8530
      8 O3B         3.5282    5.2282   -3.7090 O.3       1 ATP        -0.8003
      9 PA          4.7462    4.3191   -0.7891 P.3       1 ATP         1.7415
     10 O1A         5.3452    5.6480   -0.4300 O.2       1 ATP        -0.8661
     11 O2A         5.5521    3.5142   -1.9383 O.3       1 ATP        -0.8077
     12 O3A         3.2448    4.4082   -1.3846 O.3       1 ATP        -0.7685
     13 O5'         4.6408    3.2692    0.4376 O.3       1 ATP        -0.5590
     14 C5'         4.0922    1.9801    0.2227 C.3       1 ATP         0.1960
     15 C4'         2.5944    2.0310    0.4653 C.3       1 ATP         0.0976
     16 O4'         1.9327    2.5740   -0.6889 O.3       1 ATP        -0.3865
     17 C3'         1.9685    0.6634    0.6767 C.3       1 ATP         0.0901
     18 O3'         2.1425    0.1975    1.9977 O.3       1 ATP        -0.5889
     19 C2'         0.5176    0.9128    0.3099 C.3       1 ATP         0.0574
     20 O2'        -0.2103    1.4454    1.4152 O.3       1 ATP        -0.5923
     21 C1'         0.6219    1.9765   -0.7844 C.3       1 ATP         0.2452
     22 N9          0.4237    1.4496   -2.1357 N.pl3     1 ATP        -0.1834
     23 C8          1.4069    0.9710   -2.9662 C.ar      1 ATP         0.4338
     24 N7          0.9316    0.5623   -4.1260 N.2       1 ATP        -0.6101
     25 C5         -0.4120    0.7884   -4.0344 C.ar      1 ATP         0.2154
     26 C6         -1.4353    0.5283   -5.0204 C.ar      1 ATP         0.6130
     27 N6         -1.1199    0.0176   -6.1586 N.2       1 ATP        -0.8165
     28 N1         -2.6704    0.9095   -4.5147 N.pl3     1 ATP        -0.8617
     29 C2         -2.8863    1.4571   -3.2520 C.ar      1 ATP         0.6151
     30 N3         -1.9805    1.7017   -2.3442 N.2       1 ATP        -0.5797
     31 C4         -0.7561    1.3381   -2.8112 C.ar      1 ATP         0.0328
     32 HOG3        4.7017    4.1660   -5.9956 H         1 ATP         0.4197
     33 HOA2        5.6569    3.9274   -2.8218 H         1 ATP         0.4550
     34 H5'1        4.3024    1.6722   -0.8067 H         1 ATP         0.0431
     35 H5'2        4.5673    1.2731    0.9105 H         1 ATP         0.0431
     36 H4'         2.3752    2.7029    1.3156 H         1 ATP         0.1325
     37 H3'         2.4336   -0.1217   -0.0016 H         1 ATP         0.0782
     38 HO3'        1.7160   -0.6716    2.0397 H         1 ATP         0.4062
     39 H2'         0.0316    0.0155   -0.0339 H         1 ATP         0.0689
     40 HO2'       -0.1608    0.7921    2.1351 H         1 ATP         0.4089
     41 H1'        -0.1474    2.7798   -0.6651 H         1 ATP         0.1098
     42 H8          2.4466    0.9468   -2.6694 H         1 ATP         0.0929
     43 HN62       -1.9661   -0.0965   -6.7275 H         1 ATP         0.3678
     44 H2         -3.9481    1.6825   -3.0660 H         1 ATP         0.0383
     45 H45        -3.4814    0.7753   -5.1133 H         1 ATP         0.4286
@<TRIPOS>BOND
     1    1    2 2
     2    1    3 1
     3    1    4 1
     4    1    8 1
     5    4   32 1
     6    5    6 2
     7    5    7 1
     8    5    8 1
     9    5   12 1
    10    9   10 2
    11    9   11 1
    12    9   12 1
    13    9   13 1
    14   11   33 1
    15   13   14 1
    16   14   15 1
    17   14   34 1
    18   14   35 1
    19   15   16 1
    20   15   17 1
    21   15   36 1
    22   16   21 1
    23   17   18 1
    24   17   19 1
    25   17   37 1
    26   18   38 1
    27   19   20 1
    28   19   21 1
    29   19   39 1
    30   20   40 1
    31   21   22 1
    32   21   41 1
    33   22   23 ar
    34   22   31 ar
    35   23   24 ar
    36   23   42 1
    37   24   25 ar
    38   25   26 ar
    39   25   31 ar
    40   26   27 2
    41   26   28 ar
    42   27   43 1
    43   28   29 ar
    44   28   45 1
    45   29   30 ar
    46   29   44 1
    47   30   31 ar
@<TRIPOS>SUBSTRUCTURE
     1 ATP         1 GROUP 0 A     ****
@<TRIPOS>MOLECULE
[[[3,4-dihydroxy-5-(6-imino-1~{H}-purin-9-yl)tetrahydrofuran-2-yl]methoxy-hydroxy-phosphoryl]oxy-oxido-phosphoryl] hydrogen phosphate
   45    47     1     0     0
SMALL
USER_CHARGES

@<TRIPOS>ATOM
      1 PG          0.7076    1.7676    6.6670 P.3       1 ATP         1.5414
      2 O1G         1.6112    2.5509    7.5930 O.co2     1 ATP        -0.8562
      3 O2G         1.1649    1.3806    5.2782 O.co2     1 ATP        -0.8562
      4 O3G         0.2111    0.4202    7.4443 O.3       1 ATP        -0.7907
      5 PB         -1.1102    3.9752    5.9027 P.3       1 ATP         1.6574
      6 O1B        -2.6146    4.1308    5.9175 O.co2     1 ATP        -0.8530
      7 O2B        -0.2106    5.0336    6.5014 O.co2     1 ATP        -0.8530
      8 O3B        -0.7291    2.5311    6.5591 O.3       1 ATP        -0.8003
      9 PA         -0.6691    4.6275    3.0494 P.3       1 ATP         1.7415
     10 O1A         0.1253    5.8950    3.1759 O.2       1 ATP        -0.8661
     11 O2A        -2.2512    4.8554    2.7984 O.3       1 ATP        -0.8077
     12 O3A        -0.6357    3.6902    4.3674 O.3       1 ATP        -0.7685
     13 O5'        -0.2068    3.6554    1.8412 O.3       1 ATP        -0.5590
     14 C5'        -0.8811    2.4285    1.6206 C.3       1 ATP         0.1960
     15 C4'        -0.1994    1.3333    2.4288 C.3       1 ATP         0.0976
     16 O4'        -1.1285    0.2356    2.5840 O.3       1 ATP        -0.3865
     17 C3'         1.0324    0.7610    1.7344 C.3       1 ATP         0.0901
     18 O3'         1.9175    0.2377    2.7247 O.3       1 ATP        -0.5889
     19 C2'         0.4468   -0.3802    0.9263 C.3       1 ATP         0.0574
     20 O2'         1.3993   -1.3703    0.5961 O.3       1 ATP        -0.5923
     21 C1'        -0.6159   -0.9100    1.8769 C.3       1 ATP         0.2452
     22 N9         -1.7127   -1.6108    1.2130 N.pl3     1 ATP        -0.1834
     23 C8         -2.5485   -1.0808    0.2609 C.ar      1 ATP         0.4338
     24 N7         -3.4476   -1.9486   -0.1593 N.2       1 ATP        -0.6101
     25 C5         -3.1762   -3.0816    0.5530 C.ar      1 ATP         0.2154
     26 C6         -3.8510   -4.3579    0.5006 C.ar      1 ATP         0.6130
     27 N6         -4.8468   -4.5293   -0.2961 N.2       1 ATP        -0.8165
     28 N1         -3.2499   -5.2342    1.3937 N.pl3     1 ATP        -0.8617
     29 C2         -2.1646   -4.9275    2.2116 C.ar      1 ATP         0.6151
     30 N3         -1.5382   -3.7840    2.2778 N.2       1 ATP        -0.5797
     31 C4         -2.1054   -2.9018    1.4120 C.ar      1 ATP         0.0328
     32 HOG3       -0.3866   -0.1977    6.9718 H         1 ATP         0.4197
     33 HOA2       -2.7716    5.3471    3.4689 H         1 ATP         0.4550
     34 H5'1       -1.9259    2.5372    1.9293 H         1 ATP         0.0431
     35 H5'2       -0.8477    2.1923    0.5521 H         1 ATP         0.0431
     36 H4'         0.0402    1.7079    3.4342 H         1 ATP         0.1325
     37 H3'         1.5907    1.4859    1.1353 H         1 ATP         0.0782
     38 HO3'        2.1521    0.9800    3.3017 H         1 ATP         0.4062
     39 H2'        -0.0017    0.0018    0.0005 H         1 ATP         0.0689
     40 HO2'        2.0953   -0.9375    0.0709 H         1 ATP         0.4089
     41 H1'        -0.1998   -1.6319    2.6178 H         1 ATP         0.1098
     42 H8         -2.4515   -0.0599   -0.0829 H         1 ATP         0.0929
     43 HN62       -5.1990   -5.4882   -0.2005 H         1 ATP         0.3678
     44 H2         -1.8555   -5.7783    2.8388 H         1 ATP         0.0383
     45 H45        -3.6312   -6.1750    1.4526 H         1 ATP         0.4286
@<TRIPOS>BOND
     1    1    2 2
     2    1    3 1
     3    1    4 1
     4    1    8 1
     5    4   32 1
     6    5    6 2
     7    5    7 1
     8    5    8 1
     9    5   12 1
    10    9   10 2
    11    9   11 1
    12    9   12 1
    13    9   13 1
    14   11   33 1
    15   13   14 1
    16   14   15 1
    17   14   34 1
    18   14   35 1
    19   15   16 1
    20   15   17 1
    21   15   36 1
    22   16   21 1
    23   17   18 1
    24   17   19 1
    25   17   37 1
    26   18   38 1
    27   19   20 1
    28   19   21 1
    29   19   39 1
    30   20   40 1
    31   21   22 1
    32   21   41 1
    33   22   23 ar
    34   22   31 ar
    35   23   24 ar
    36   23   42 1
    37   24   25 ar
    38   25   26 ar
    39   25   31 ar
    40   26   27 2
    41   26   28 ar
    42   27   43 1
    43   28   29 ar
    44   28   45 1
    45   29   30 ar
    46   29   44 1
    47   30   31 ar
@<TRIPOS>SUBSTRUCTURE
     1 ATP         1 GROUP 0 A     ****
@<TRIPOS>MOLECULE
[[[3,4-dihydroxy-5-(6-imino-1~{H}-purin-9-yl)tetrahydrofuran-2-yl]methoxy-hydroxy-phosphoryl]oxy-oxido-phosphoryl] hydrogen phosphate
   45    47     1     0     0
SMALL
USER_CHARGES

@<TRIPOS>ATOM
      1 PG         -4.8932    3.7727   -2.2961 P.3       1 ATP         1.5414
      2 O1G        -3.5443    4.4543   -2.3550 O.co2     1 ATP        -0.8562
      3 O2G        -6.1721    4.5799   -2.2781 O.co2     1 ATP        -0.8562
      4 O3G        -4.9803    2.6893   -3.5146 O.3       1 ATP        -0.7907
      5 PB         -4.8447    3.0127    0.5644 P.3       1 ATP         1.6574
      6 O1B        -5.9345    3.9980    0.9237 O.co2     1 ATP        -0.8530
      7 O2B        -4.7214    1.6887    1.2853 O.co2     1 ATP        -0.8530
      8 O3B        -4.9053    2.7313   -1.0415 O.3       1 ATP        -0.8003
      9 PA         -2.5925    4.4094    1.8827 P.3       1 ATP         1.7415
     10 O1A        -3.4550    5.1144    2.8891 O.2       1 ATP        -0.8661
     11 O2A        -1.4926    5.3570    1.1685 O.3       1 ATP        -0.8077
     12 O3A        -3.4080    3.7839    0.6336 O.3       1 ATP        -0.7685
     13 O5'        -1.7334    3.1724    2.4743 O.3       1 ATP        -0.5590
     14 C5'        -0.8811    2.4285    1.6206 C.3       1 ATP         0.1960
     15 C4'        -0.1994    1.3333    2.4288 C.3       1 ATP         0.0976
     16 O4'        -1.1285    0.2356    2.5840 O.3       1 ATP        -0.3865
     17 C3'         1.0324    0.7610    1.7344 C.3       1 ATP         0.0901
     18 O3'         1.9175    0.2377    2.7247 O.3       1 ATP        -0.5889
     19 C2'         0.4468   -0.3802    0.9263 C.3       1 ATP         0.0574
     20 O2'         1.3993   -1.3703    0.5961 O.3       1 ATP        -0.5923
     21 C1'        -0.6159   -0.9100    1.8769 C.3       1 ATP         0.2452
     22 N9         -1.7127   -1.6108    1.2130 N.pl3     1 ATP        -0.1834
     23 C8         -2.0868   -2.9137    1.4327 C.ar      1 ATP         0.4338
     24 N7         -3.1125   -3.2756    0.6878 N.2       1 ATP        -0.6101
     25 C5         -3.4079   -2.1580   -0.0391 C.ar      1 ATP         0.2154
     26 C6         -4.4483   -1.9775   -1.0249 C.ar      1 ATP         0.6130
     27 N6         -5.2418   -2.9492   -1.3113 N.2       1 ATP        -0.8165
     28 N1         -4.3937   -0.6823   -1.5211 N.pl3     1 ATP        -0.8617
     29 C2         -3.4770    0.2901   -1.1271 C.ar      1 ATP         0.6151
     30 N3         -2.5289    0.1525   -0.2402 N.2       1 ATP        -0.5797
     31 C4         -2.5564   -1.1096    0.2655 C.ar      1 ATP         0.0328
     32 HOG3       -5.8013    2.1612   -3.6118 H         1 ATP         0.4197
     33 HOA2       -0.8196    5.8045    1.7244 H         1 ATP         0.4550
     34 H5'1       -1.4795    1.9922    0.8142 H         1 ATP         0.0431
     35 H5'2       -0.1362    3.1035    1.1868 H         1 ATP         0.0431
     36 H4'         0.0402    1.7079    3.4342 H         1 ATP         0.1325
     37 H3'         1.5907    1.4859    1.1353 H         1 ATP         0.0782
     38 HO3'        2.6839   -0.1150    2.2479 H         1 ATP         0.4062
     39 H2'        -0.0017    0.0018    0.0005 H         1 ATP         0.0689
     40 HO2'        2.0953   -0.9375    0.0709 H         1 ATP         0.4089
     41 H1'        -0.1998   -1.6319    2.6178 H         1 ATP         0.1098
     42 H8         -1.5740   -3.5449    2.1457 H         1 ATP         0.0929
     43 HN62       -5.9117   -2.6433   -2.0256 H         1 ATP         0.3678
     44 H2         -3.6225    1.2454   -1.6553 H         1 ATP         0.0383
     45 H45        -5.0794   -0.4231   -2.2258 H         1 ATP         0.4286
@<TRIPOS>BOND
     1    1    2 2
     2    1    3 1
     3    1    4 1
     4    1    8 1
     5    4   32 1
     6    5    6 2
     7    5    7 1
     8    5    8 1
     9    5   12 1
    10    9   10 2
    11    9   11 1
    12    9   12 1
    13    9   13 1
    14   11   33 1
    15   13   14 1
    16   14   15 1
    17   14   34 1
    18   14   35 1
    19   15   16 1
    20   15   17 1
    21   15   36 1
    22   16   21 1
    23   17   18 1
    24   17   19 1
    25   17   37 1
    26   18   38 1
    27   19   20 1
    28   19   21 1
    29   19   39 1
    30   20   40 1
    31   21   22 1
    32   21   41 1
    33   22   23 ar
    34   22   31 ar
    35   23   24 ar
    36   23   42 1
    37   24   25 ar
    38   25   26 ar
    39   25   31 ar
    40   26   27 2
    41   26   28 ar
    42   27   43 1
    43   28   29 ar
    44   28   45 1
    45   29   30 ar
    46   29   44 1
    47   30   31 ar
@<TRIPOS>SUBSTRUCTURE
     1 ATP         1 GROUP 0 A     ****
@<TRIPOS>MOLECULE
[[[3,4-dihydroxy-5-(6-imino-1~{H}-purin-9-yl)tetrahydrofuran-2-yl]methoxy-hydroxy-phosphoryl]oxy-oxido-phosphoryl] hydrogen phosphate
   45    47     1     0     0
SMALL
USER_CHARGES

@<TRIPOS>ATOM
      1 PG         -3.8524   -2.7320    4.1834 P.3       1 ATP         1.5414
      2 O1G        -2.6189   -3.4635    4.6640 O.co2     1 ATP        -0.8562
      3 O2G        -4.7244   -3.3117    3.0920 O.co2     1 ATP        -0.8562
      4 O3G        -4.7925   -2.3963    5.4756 O.3       1 ATP        -0.7907
      5 PB         -4.3720    0.0599    3.3482 P.3       1 ATP         1.6574
      6 O1B        -5.0129   -0.2439    2.0123 O.co2     1 ATP        -0.8530
      7 O2B        -5.2084    0.4742    4.5383 O.co2     1 ATP        -0.8530
      8 O3B        -3.4392   -1.2074    3.7789 O.3       1 ATP        -0.8003
      9 PA         -3.2760    2.7242    2.6690 P.3       1 ATP         1.7415
     10 O1A        -4.0714    3.5946    3.5982 O.2       1 ATP        -0.8661
     11 O2A        -3.8642    2.6452    1.1638 O.3       1 ATP        -0.8077
     12 O3A        -3.1998    1.1719    3.1176 O.3       1 ATP        -0.7685
     13 O5'        -1.7334    3.1724    2.4743 O.3       1 ATP        -0.5590
     14 C5'        -0.8811    2.4285    1.6206 C.3       1 ATP         0.1960
     15 C4'        -0.1994    1.3333    2.4288 C.3       1 ATP         0.0976
     16 O4'        -1.1285    0.2356    2.5840 O.3       1 ATP        -0.3865
     17 C3'         1.0324    0.7610    1.7344 C.3       1 ATP         0.0901
     18 O3'         1.9175    0.2377    2.7247 O.3       1 ATP        -0.5889
     19 C2'         0.4468   -0.3802    0.9263 C.3       1 ATP         0.0574
     20 O2'         1.3993   -1.3703    0.5961 O.3       1 ATP        -0.5923
     21 C1'        -0.6159   -0.9100    1.8769 C.3       1 ATP         0.2452
     22 N9         -1.7127   -1.6108    1.2130 N.pl3     1 ATP        -0.1834
     23 C8         -2.0868   -2.9137    1.4327 C.ar      1 ATP         0.4338
     24 N7         -3.1125   -3.2756    0.6878 N.2       1 ATP        -0.6101
     25 C5         -3.4079   -2.1580   -0.0391 C.ar      1 ATP         0.2154
     26 C6         -4.4483   -1.9775   -1.0249 C.ar      1 ATP         0.6130
     27 N6         -5.2418   -2.9492   -1.3113 N.2       1 ATP        -0.8165
     28 N1         -4.3937   -0.6823   -1.5211 N.pl3     1 ATP        -0.8617
     29 C2         -3.4770    0.2901   -1.1271 C.ar      1 ATP         0.6151
     30 N3         -2.5289    0.1525   -0.2402 N.2       1 ATP        -0.5797
     31 C4         -2.5564   -1.1096    0.2655 C.ar      1 ATP         0.0328
     32 HOG3       -5.6369   -1.9196    5.3271 H         1 ATP         0.4197
     33 HOA2       -3.9412    3.4715    0.6408 H         1 ATP         0.4550
     34 H5'1       -1.4795    1.9922    0.8142 H         1 ATP         0.0431
     35 H5'2       -0.1362    3.1035    1.1868 H         1 ATP         0.0431
     36 H4'         0.0402    1.7079    3.4342 H         1 ATP         0.1325
     37 H3'         1.5907    1.4859    1.1353 H         1 ATP         0.0782
     38 HO3'        2.6839   -0.1150    2.2479 H         1 ATP         0.4062
     39 H2'        -0.0017    0.0018    0.0005 H         1 ATP         0.0689
     40 HO2'        2.0953   -0.9375    0.0709 H         1 ATP         0.4089
     41 H1'        -0.1998   -1.6319    2.6178 H         1 ATP         0.1098
     42 H8         -1.5740   -3.5449    2.1457 H         1 ATP         0.0929
     43 HN62       -5.9117   -2.6433   -2.0256 H         1 ATP         0.3678
     44 H2         -3.6225    1.2454   -1.6553 H         1 ATP         0.0383
     45 H45        -5.0794   -0.4231   -2.2258 H         1 ATP         0.4286
@<TRIPOS>BOND
     1    1    2 2
     2    1    3 1
     3    1    4 1
     4    1    8 1
     5    4   32 1
     6    5    6 2
     7    5    7 1
     8    5    8 1
     9    5   12 1
    10    9   10 2
    11    9   11 1
    12    9   12 1
    13    9   13 1
    14   11   33 1
    15   13   14 1
    16   14   15 1
    17   14   34 1
    18   14   35 1
    19   15   16 1
    20   15   17 1
    21   15   36 1
    22   16   21 1
    23   17   18 1
    24   17   19 1
    25   17   37 1
    26   18   38 1
    27   19   20 1
    28   19   21 1
    29   19   39 1
    30   20   40 1
    31   21   22 1
    32   21   41 1
    33   22   23 ar
    34   22   31 ar
    35   23   24 ar
    36   23   42 1
    37   24   25 ar
    38   25   26 ar
    39   25   31 ar
    40   26   27 2
    41   26   28 ar
    42   27   43 1
    43   28   29 ar
    44   28   45 1
    45   29   30 ar
    46   29   44 1
    47   30   31 ar
@<TRIPOS>SUBSTRUCTURE
     1 ATP         1 GROUP 0 A     ****
@<TRIPOS>MOLECULE
[[[3,4-dihydroxy-5-(6-imino-1~{H}-purin-9-yl)tetrahydrofuran-2-yl]methoxy-hydroxy-phosphoryl]oxy-oxido-phosphoryl] hydrogen phosphate
   45    47     1     0     0
SMALL
USER_CHARGES

@<TRIPOS>ATOM
      1 PG          0.4869    8.7527    1.2208 P.3       1 ATP         1.5414
      2 O1G        -0.4069    9.8705    1.7100 O.co2     1 ATP        -0.8562
      3 O2G         0.9573    8.7054   -0.2158 O.co2     1 ATP        -0.8562
      4 O3G         1.7926    8.6678    2.1976 O.3       1 ATP        -0.7907
      5 PB         -0.7353    6.7594    3.0360 P.3       1 ATP         1.6574
      6 O1B         0.4502    6.5687    3.9558 O.co2     1 ATP        -0.8530
      7 O2B        -1.9302    7.5821    3.4640 O.co2     1 ATP        -0.8530
      8 O3B        -0.1974    7.3228    1.6025 O.3       1 ATP        -0.8003
      9 PA         -1.9403    4.0773    3.3760 P.3       1 ATP         1.7415
     10 O1A        -3.2371    4.4398    4.0398 O.2       1 ATP        -0.8661
     11 O2A        -0.7734    3.6204    4.3995 O.3       1 ATP        -0.8077
     12 O3A        -1.2556    5.2898    2.5529 O.3       1 ATP        -0.7685
     13 O5'        -2.0397    2.8622    2.3122 O.3       1 ATP        -0.5590
     14 C5'        -0.8811    2.4285    1.6206 C.3       1 ATP         0.1960
     15 C4'        -0.1994    1.3333    2.4288 C.3       1 ATP         0.0976
     16 O4'        -1.1285    0.2356    2.5840 O.3       1 ATP        -0.3865
     17 C3'         1.0324    0.7610    1.7344 C.3       1 ATP         0.0901
     18 O3'         1.9175    0.2377    2.7247 O.3       1 ATP        -0.5889
     19 C2'         0.4468   -0.3802    0.9263 C.3       1 ATP         0.0574
     20 O2'         1.3993   -1.3703    0.5961 O.3       1 ATP        -0.5923
     21 C1'        -0.6159   -0.9100    1.8769 C.3       1 ATP         0.2452
     22 N9         -1.7127   -1.6108    1.2130 N.pl3     1 ATP        -0.1834
     23 C8         -1.7690   -2.9583    0.9549 C.ar      1 ATP         0.4338
     24 N7         -2.8827   -3.3076    0.3418 N.2       1 ATP        -0.6101
     25 C5         -3.5683   -2.1351    0.2017 C.ar      1 ATP         0.2154
     26 C6         -4.8617   -1.9185   -0.4044 C.ar      1 ATP         0.6130
     27 N6         -5.5166   -2.9094   -0.8993 N.2       1 ATP        -0.8165
     28 N1         -5.1837   -0.5701   -0.3344 N.pl3     1 ATP        -0.8617
     29 C2         -4.3821    0.4180    0.2330 C.ar      1 ATP         0.6151
     30 N3         -3.2117    0.2488    0.7860 N.2       1 ATP        -0.5797
     31 C4         -2.8672   -1.0657    0.7327 C.ar      1 ATP         0.0328
     32 HOG3        1.6508    8.4899    3.1519 H         1 ATP         0.4197
     33 HOA2        0.1029    3.3685    4.0375 H         1 ATP         0.4550
     34 H5'1       -1.1761    2.0499    0.6365 H         1 ATP         0.0431
     35 H5'2       -0.2073    3.2811    1.4874 H         1 ATP         0.0431
     36 H4'         0.0402    1.7079    3.4342 H         1 ATP         0.1325
     37 H3'         1.5907    1.4859    1.1353 H         1 ATP         0.0782
     38 HO3'        2.6839   -0.1150    2.2479 H         1 ATP         0.4062
     39 H2'        -0.0017    0.0018    0.0005 H         1 ATP         0.0689
     40 HO2'        0.9369   -2.0558    0.0825 H         1 ATP         0.4089
     41 H1'        -0.1998   -1.6319    2.6178 H         1 ATP         0.1098
     42 H8         -0.9697   -3.6300    1.2371 H         1 ATP         0.0929
     43 HN62       -6.4060   -2.5723   -1.2840 H         1 ATP         0.3678
     44 H2         -4.8409    1.4176    0.1757 H         1 ATP         0.0383
     45 H45        -6.0768   -0.2826   -0.7263 H         1 ATP         0.4286
@<TRIPOS>BOND
     1    1    2 2
     2    1    3 1
     3    1    4 1
     4    1    8 1
     5    4   32 1
     6    5    6 2
     7    5    7 1
     8    5    8 1
     9    5   12 1
    10    9   10 2
    11    9   11 1
    12    9   12 1
    13    9   13 1
    14   11   33 1
    15   13   14 1
    16   14   15 1
    17   14   34 1
    18   14   35 1
    19   15   16 1
    20   15   17 1
    21   15   36 1
    22   16   21 1
    23   17   18 1
    24   17   19 1
    25   17   37 1
    26   18   38 1
    27   19   20 1
    28   19   21 1
    29   19   39 1
    30   20   40 1
    31   21   22 1
    32   21   41 1
    33   22   23 ar
    34   22   31 ar
    35   23   24 ar
    36   23   42 1
    37   24   25 ar
    38   25   26 ar
    39   25   31 ar
    40   26   27 2
    41   26   28 ar
    42   27   43 1
    43   28   29 ar
    44   28   45 1
    45   29   30 ar
    46   29   44 1
    47   30   31 ar
@<TRIPOS>SUBSTRUCTURE
     1 ATP         1 GROUP 0 A     ****
@<TRIPOS>MOLECULE
[[[3,4-dihydroxy-5-(6-imino-1~{H}-purin-9-yl)tetrahydrofuran-2-yl]methoxy-hydroxy-phosphoryl]oxy-oxido-phosphoryl] hydrogen phosphate
   45    47     1     0     0
SMALL
USER_CHARGES

@<TRIPOS>ATOM
      1 PG         -1.0261    0.9424    6.1240 P.3       1 ATP         1.5414
      2 O1G        -0.0183   -0.1170    5.7370 O.co2     1 ATP        -0.8562
      3 O2G        -2.2303    1.2249    5.2537 O.co2     1 ATP        -0.8562
      4 O3G        -1.5433    0.6358    7.6422 O.3       1 ATP        -0.7907
      5 PB          0.5777    3.3209    5.3945 P.3       1 ATP         1.6574
      6 O1B         0.9696    4.5756    6.1429 O.co2     1 ATP        -0.8530
      7 O2B         1.6098    2.5003    4.6535 O.co2     1 ATP        -0.8530
      8 O3B        -0.2392    2.3412    6.4116 O.3       1 ATP        -0.8003
      9 PA         -0.6691    4.6275    3.0494 P.3       1 ATP         1.7415
     10 O1A         0.1253    5.8950    3.1759 O.2       1 ATP        -0.8661
     11 O2A        -2.2512    4.8554    2.7984 O.3       1 ATP        -0.8077
     12 O3A        -0.6357    3.6902    4.3674 O.3       1 ATP        -0.7685
     13 O5'        -0.2068    3.6554    1.8412 O.3       1 ATP        -0.5590
     14 C5'        -0.8811    2.4285    1.6206 C.3       1 ATP         0.1960
     15 C4'        -0.1994    1.3333    2.4288 C.3       1 ATP         0.0976
     16 O4'        -1.1285    0.2356    2.5840 O.3       1 ATP        -0.3865
     17 C3'         1.0324    0.7610    1.7344 C.3       1 ATP         0.0901
     18 O3'         1.9175    0.2377    2.7247 O.3       1 ATP        -0.5889
     19 C2'         0.4468   -0.3802    0.9263 C.3       1 ATP         0.0574
     20 O2'         1.3993   -1.3703    0.5961 O.3       1 ATP        -0.5923
     21 C1'        -0.6159   -0.9100    1.8769 C.3       1 ATP         0.2452
     22 N9         -1.7127   -1.6108    1.2130 N.pl3     1 ATP        -0.1834
     23 C8         -2.5485   -1.0808    0.2609 C.ar      1 ATP         0.4338
     24 N7         -3.4476   -1.9486   -0.1593 N.2       1 ATP        -0.6101
     25 C5         -3.1762   -3.0816    0.5530 C.ar      1 ATP         0.2154
     26 C6         -3.8510   -4.3579    0.5006 C.ar      1 ATP         0.6130
     27 N6         -4.8468   -4.5293   -0.2961 N.2       1 ATP        -0.8165
     28 N1         -3.2499   -5.2342    1.3937 N.pl3     1 ATP        -0.8617
     29 C2         -2.1646   -4.9275    2.2116 C.ar      1 ATP         0.6151
     30 N3         -1.5382   -3.7840    2.2778 N.2       1 ATP        -0.5797
     31 C4         -2.1054   -2.9018    1.4120 C.ar      1 ATP         0.0328
     32 HOG3       -2.2060    1.2398    8.0403 H         1 ATP         0.4197
     33 HOA2       -2.5385    5.3476    2.0000 H         1 ATP         0.4550
     34 H5'1       -1.9259    2.5372    1.9293 H         1 ATP         0.0431
     35 H5'2       -0.8477    2.1923    0.5521 H         1 ATP         0.0431
     36 H4'         0.0402    1.7079    3.4342 H         1 ATP         0.1325
     37 H3'         1.5907    1.4859    1.1353 H         1 ATP         0.0782
     38 HO3'        2.1521    0.9800    3.3017 H         1 ATP         0.4062
     39 H2'        -0.0017    0.0018    0.0005 H         1 ATP         0.0689
     40 HO2'        0.9369   -2.0558    0.0825 H         1 ATP         0.4089
     41 H1'        -0.1998   -1.6319    2.6178 H         1 ATP         0.1098
     42 H8         -2.4515   -0.0599   -0.0829 H         1 ATP         0.0929
     43 HN62       -5.1990   -5.4882   -0.2005 H         1 ATP         0.3678
     44 H2         -1.8555   -5.7783    2.8388 H         1 ATP         0.0383
     45 H45        -3.6312   -6.1750    1.4526 H         1 ATP         0.4286
@<TRIPOS>BOND
     1    1    2 2
     2    1    3 1
     3    1    4 1
     4    1    8 1
     5    4   32 1
     6    5    6 2
     7    5    7 1
     8    5    8 1
     9    5   12 1
    10    9   10 2
    11    9   11 1
    12    9   12 1
    13    9   13 1
    14   11   33 1
    15   13   14 1
    16   14   15 1
    17   14   34 1
    18   14   35 1
    19   15   16 1
    20   15   17 1
    21   15   36 1
    22   16   21 1
    23   17   18 1
    24   17   19 1
    25   17   37 1
    26   18   38 1
    27   19   20 1
    28   19   21 1
    29   19   39 1
    30   20   40 1
    31   21   22 1
    32   21   41 1
    33   22   23 ar
    34   22   31 ar
    35   23   24 ar
    36   23   42 1
    37   24   25 ar
    38   25   26 ar
    39   25   31 ar
    40   26   27 2
    41   26   28 ar
    42   27   43 1
    43   28   29 ar
    44   28   45 1
    45   29   30 ar
    46   29   44 1
    47   30   31 ar
@<TRIPOS>SUBSTRUCTURE
     1 ATP         1 GROUP 0 A     ****
@<TRIPOS>MOLECULE
[[[3,4-dihydroxy-5-(6-imino-1~{H}-purin-9-yl)tetrahydrofuran-2-yl]methoxy-hydroxy-phosphoryl]oxy-oxido-phosphoryl] hydrogen phosphate
   45    47     1     0     0
SMALL
USER_CHARGES

@<TRIPOS>ATOM
      1 PG          1.6607    2.1320    7.3644 P.3       1 ATP         1.5414
      2 O1G         2.4382    3.1766    8.1338 O.co2     1 ATP        -0.8562
      3 O2G         2.3157    0.8408    6.9271 O.co2     1 ATP        -0.8562
      4 O3G         0.3082    1.7694    8.2043 O.3       1 ATP        -0.7907
      5 PB          1.6348    3.4928    4.7358 P.3       1 ATP         1.6574
      6 O1B         2.4062    4.7295    5.1399 O.co2     1 ATP        -0.8530
      7 O2B         2.2911    2.3921    3.9323 O.co2     1 ATP        -0.8530
      8 O3B         0.9633    2.8381    6.0707 O.3       1 ATP        -0.8003
      9 PA          0.0493    4.7068    2.5510 P.3       1 ATP         1.7415
     10 O1A         1.0439    5.7943    2.2646 O.2       1 ATP        -0.8661
     11 O2A        -1.4849    5.2135    2.6372 O.3       1 ATP        -0.8077
     12 O3A         0.2724    3.9615    3.9692 O.3       1 ATP        -0.7685
     13 O5'         0.0171    3.5129    1.4593 O.3       1 ATP        -0.5590
     14 C5'        -0.8811    2.4285    1.6206 C.3       1 ATP         0.1960
     15 C4'        -0.1994    1.3333    2.4288 C.3       1 ATP         0.0976
     16 O4'        -1.1285    0.2356    2.5840 O.3       1 ATP        -0.3865
     17 C3'         1.0324    0.7610    1.7344 C.3       1 ATP         0.0901
     18 O3'         1.9175    0.2377    2.7247 O.3       1 ATP        -0.5889
     19 C2'         0.4468   -0.3802    0.9263 C.3       1 ATP         0.0574
     20 O2'         1.3993   -1.3703    0.5961 O.3       1 ATP        -0.5923
     21 C1'        -0.6159   -0.9100    1.8769 C.3       1 ATP         0.2452
     22 N9         -1.7127   -1.6108    1.2130 N.pl3     1 ATP        -0.1834
     23 C8         -2.8662   -1.0361    0.7388 C.ar      1 ATP         0.4338
     24 N7         -3.6774   -1.9166    0.1867 N.2       1 ATP        -0.6101
     25 C5         -3.0159   -3.1045    0.3122 C.ar      1 ATP         0.2154
     26 C6         -3.4377   -4.4169   -0.1199 C.ar      1 ATP         0.6130
     27 N6         -4.5720   -4.5691   -0.7080 N.2       1 ATP        -0.8165
     28 N1         -2.4600   -5.3463    0.2071 N.pl3     1 ATP        -0.8617
     29 C2         -1.2595   -5.0554    0.8515 C.ar      1 ATP         0.6151
     30 N3         -0.8555   -3.8803    1.2516 N.2       1 ATP        -0.5797
     31 C4         -1.7946   -2.9457    0.9448 C.ar      1 ATP         0.0328
     32 HOG3       -0.3068    1.1015    7.8329 H         1 ATP         0.4197
     33 HOA2       -1.7259    5.8827    3.3127 H         1 ATP         0.4550
     34 H5'1       -1.7775    2.7843    2.1389 H         1 ATP         0.0431
     35 H5'2       -1.1658    2.0534    0.6322 H         1 ATP         0.0431
     36 H4'         0.0402    1.7079    3.4342 H         1 ATP         0.1325
     37 H3'         1.5907    1.4859    1.1353 H         1 ATP         0.0782
     38 HO3'        2.6839   -0.1150    2.2479 H         1 ATP         0.4062
     39 H2'        -0.0017    0.0018    0.0005 H         1 ATP         0.0689
     40 HO2'        1.7495   -1.7243    1.4324 H         1 ATP         0.4089
     41 H1'        -0.1998   -1.6319    2.6178 H         1 ATP         0.1098
     42 H8         -3.0558    0.0252    0.8256 H         1 ATP         0.0929
     43 HN62       -4.7047   -5.5592   -0.9421 H         1 ATP         0.3678
     44 H2         -0.6372   -5.9505    1.0077 H         1 ATP         0.0383
     45 H45        -2.6338   -6.3155   -0.0469 H         1 ATP         0.4286
@<TRIPOS>BOND
     1    1    2 2
     2    1    3 1
     3    1    4 1
     4    1    8 1
     5    4   32 1
     6    5    6 2
     7    5    7 1
     8    5    8 1
     9    5   12 1
    10    9   10 2
    11    9   11 1
    12    9   12 1
    13    9   13 1
    14   11   33 1
    15   13   14 1
    16   14   15 1
    17   14   34 1
    18   14   35 1
    19   15   16 1
    20   15   17 1
    21   15   36 1
    22   16   21 1
    23   17   18 1
    24   17   19 1
    25   17   37 1
    26   18   38 1
    27   19   20 1
    28   19   21 1
    29   19   39 1
    30   20   40 1
    31   21   22 1
    32   21   41 1
    33   22   23 ar
    34   22   31 ar
    35   23   24 ar
    36   23   42 1
    37   24   25 ar
    38   25   26 ar
    39   25   31 ar
    40   26   27 2
    41   26   28 ar
    42   27   43 1
    43   28   29 ar
    44   28   45 1
    45   29   30 ar
    46   29   44 1
    47   30   31 ar
@<TRIPOS>SUBSTRUCTURE
     1 ATP         1 GROUP 0 A     ****
@<TRIPOS>MOLECULE
[[[3,4-dihydroxy-5-(6-imino-1~{H}-purin-9-yl)tetrahydrofuran-2-yl]methoxy-hydroxy-phosphoryl]oxy-oxido-phosphoryl] hydrogen phosphate
   45    47     1     0     0
SMALL
USER_CHARGES

@<TRIPOS>ATOM
      1 PG         -4.9202    0.8702    6.8259 P.3       1 ATP         1.5414
      2 O1G        -3.9635    1.5172    7.8025 O.co2     1 ATP        -0.8562
      3 O2G        -5.3451   -0.5717    6.9933 O.co2     1 ATP        -0.8562
      4 O3G        -6.2601    1.7975    6.7213 O.3       1 ATP        -0.7907
      5 PB         -3.0227    0.4841    4.5870 P.3       1 ATP         1.6574
      6 O1B        -1.8016    1.0809    5.2507 O.co2     1 ATP        -0.8530
      7 O2B        -3.1799   -1.0136    4.4454 O.co2     1 ATP        -0.8530
      8 O3B        -4.3555    1.0847    5.3114 O.3       1 ATP        -0.8003
      9 PA         -3.2760    2.7242    2.6690 P.3       1 ATP         1.7415
     10 O1A        -4.0714    3.5946    3.5982 O.2       1 ATP        -0.8661
     11 O2A        -3.8642    2.6452    1.1638 O.3       1 ATP        -0.8077
     12 O3A        -3.1998    1.1719    3.1176 O.3       1 ATP        -0.7685
     13 O5'        -1.7334    3.1724    2.4743 O.3       1 ATP        -0.5590
     14 C5'        -0.8811    2.4285    1.6206 C.3       1 ATP         0.1960
     15 C4'        -0.1994    1.3333    2.4288 C.3       1 ATP         0.0976
     16 O4'        -1.1285    0.2356    2.5840 O.3       1 ATP        -0.3865
     17 C3'         1.0324    0.7610    1.7344 C.3       1 ATP         0.0901
     18 O3'         1.9175    0.2377    2.7247 O.3       1 ATP        -0.5889
     19 C2'         0.4468   -0.3802    0.9263 C.3       1 ATP         0.0574
     20 O2'         1.3993   -1.3703    0.5961 O.3       1 ATP        -0.5923
     21 C1'        -0.6159   -0.9100    1.8769 C.3       1 ATP         0.2452
     22 N9         -1.7127   -1.6108    1.2130 N.pl3     1 ATP        -0.1834
     23 C8         -2.5485   -1.0808    0.2609 C.ar      1 ATP         0.4338
     24 N7         -3.4476   -1.9486   -0.1593 N.2       1 ATP        -0.6101
     25 C5         -3.1762   -3.0816    0.5530 C.ar      1 ATP         0.2154
     26 C6         -3.8510   -4.3579    0.5006 C.ar      1 ATP         0.6130
     27 N6         -4.8468   -4.5293   -0.2961 N.2       1 ATP        -0.8165
     28 N1         -3.2499   -5.2342    1.3937 N.pl3     1 ATP        -0.8617
     29 C2         -2.1646   -4.9275    2.2116 C.ar      1 ATP         0.6151
     30 N3         -1.5382   -3.7840    2.2778 N.2       1 ATP        -0.5797
     31 C4         -2.1054   -2.9018    1.4120 C.ar      1 ATP         0.0328
     32 HOG3       -6.9816    1.5091    6.1223 H         1 ATP         0.4197
     33 HOA2       -3.9412    3.4715    0.6408 H         1 ATP         0.4550
     34 H5'1       -1.4795    1.9922    0.8142 H         1 ATP         0.0431
     35 H5'2       -0.1362    3.1035    1.1868 H         1 ATP         0.0431
     36 H4'         0.0402    1.7079    3.4342 H         1 ATP         0.1325
     37 H3'         1.5907    1.4859    1.1353 H         1 ATP         0.0782
     38 HO3'        2.6839   -0.1150    2.2479 H         1 ATP         0.4062
     39 H2'        -0.0017    0.0018    0.0005 H         1 ATP         0.0689
     40 HO2'        2.0953   -0.9375    0.0709 H         1 ATP         0.4089
     41 H1'        -0.1998   -1.6319    2.6178 H         1 ATP         0.1098
     42 H8         -2.4515   -0.0599   -0.0829 H         1 ATP         0.0929
     43 HN62       -5.1990   -5.4882   -0.2005 H         1 ATP         0.3678
     44 H2         -1.8555   -5.7783    2.8388 H         1 ATP         0.0383
     45 H45        -3.6312   -6.1750    1.4526 H         1 ATP         0.4286
@<TRIPOS>BOND
     1    1    2 2
     2    1    3 1
     3    1    4 1
     4    1    8 1
     5    4   32 1
     6    5    6 2
     7    5    7 1
     8    5    8 1
     9    5   12 1
    10    9   10 2
    11    9   11 1
    12    9   12 1
    13    9   13 1
    14   11   33 1
    15   13   14 1
    16   14   15 1
    17   14   34 1
    18   14   35 1
    19   15   16 1
    20   15   17 1
    21   15   36 1
    22   16   21 1
    23   17   18 1
    24   17   19 1
    25   17   37 1
    26   18   38 1
    27   19   20 1
    28   19   21 1
    29   19   39 1
    30   20   40 1
    31   21   22 1
    32   21   41 1
    33   22   23 ar
    34   22   31 ar
    35   23   24 ar
    36   23   42 1
    37   24   25 ar
    38   25   26 ar
    39   25   31 ar
    40   26   27 2
    41   26   28 ar
    42   27   43 1
    43   28   29 ar
    44   28   45 1
    45   29   30 ar
    46   29   44 1
    47   30   31 ar
@<TRIPOS>SUBSTRUCTURE
     1 ATP         1 GROUP 0 A     ****
@<TRIPOS>MOLECULE
[[[3,4-dihydroxy-5-(6-imino-1~{H}-purin-9-yl)tetrahydrofuran-2-yl]methoxy-hydroxy-phosphoryl]oxy-oxido-phosphoryl] hydrogen phosphate
   45    47     1     0     0
SMALL
USER_CHARGES

@<TRIPOS>ATOM
      1 PG          1.6607    2.1320    7.3644 P.3       1 ATP         1.5414
      2 O1G         2.4382    3.1766    8.1338 O.co2     1 ATP        -0.8562
      3 O2G         2.3157    0.8408    6.9271 O.co2     1 ATP        -0.8562
      4 O3G         0.3082    1.7694    8.2043 O.3       1 ATP        -0.7907
      5 PB          1.6348    3.4928    4.7358 P.3       1 ATP         1.6574
      6 O1B         2.4062    4.7295    5.1399 O.co2     1 ATP        -0.8530
      7 O2B         2.2911    2.3921    3.9323 O.co2     1 ATP        -0.8530
      8 O3B         0.9633    2.8381    6.0707 O.3       1 ATP        -0.8003
      9 PA          0.0493    4.7068    2.5510 P.3       1 ATP         1.7415
     10 O1A         1.0439    5.7943    2.2646 O.2       1 ATP        -0.8661
     11 O2A        -1.4849    5.2135    2.6372 O.3       1 ATP        -0.8077
     12 O3A         0.2724    3.9615    3.9692 O.3       1 ATP        -0.7685
     13 O5'         0.0171    3.5129    1.4593 O.3       1 ATP        -0.5590
     14 C5'        -0.8811    2.4285    1.6206 C.3       1 ATP         0.1960
     15 C4'        -0.1994    1.3333    2.4288 C.3       1 ATP         0.0976
     16 O4'        -1.1285    0.2356    2.5840 O.3       1 ATP        -0.3865
     17 C3'         1.0324    0.7610    1.7344 C.3       1 ATP         0.0901
     18 O3'         1.9175    0.2377    2.7247 O.3       1 ATP        -0.5889
     19 C2'         0.4468   -0.3802    0.9263 C.3       1 ATP         0.0574
     20 O2'         1.3993   -1.3703    0.5961 O.3       1 ATP        -0.5923
     21 C1'        -0.6159   -0.9100    1.8769 C.3       1 ATP         0.2452
     22 N9         -1.7127   -1.6108    1.2130 N.pl3     1 ATP        -0.1834
     23 C8         -1.7690   -2.9583    0.9549 C.ar      1 ATP         0.4338
     24 N7         -2.8827   -3.3076    0.3418 N.2       1 ATP        -0.6101
     25 C5         -3.5683   -2.1351    0.2017 C.ar      1 ATP         0.2154
     26 C6         -4.8617   -1.9185   -0.4044 C.ar      1 ATP         0.6130
     27 N6         -5.5166   -2.9094   -0.8993 N.2       1 ATP        -0.8165
     28 N1         -5.1837   -0.5701   -0.3344 N.pl3     1 ATP        -0.8617
     29 C2         -4.3821    0.4180    0.2330 C.ar      1 ATP         0.6151
     30 N3         -3.2117    0.2488    0.7860 N.2       1 ATP        -0.5797
     31 C4         -2.8672   -1.0657    0.7327 C.ar      1 ATP         0.0328
     32 HOG3       -0.3068    1.1015    7.8329 H         1 ATP         0.4197
     33 HOA2       -1.8864    5.6452    1.8533 H         1 ATP         0.4550
     34 H5'1       -1.7775    2.7843    2.1389 H         1 ATP         0.0431
     35 H5'2       -1.1658    2.0534    0.6322 H         1 ATP         0.0431
     36 H4'         0.0402    1.7079    3.4342 H         1 ATP         0.1325
     37 H3'         1.5907    1.4859    1.1353 H         1 ATP         0.0782
     38 HO3'        2.6839   -0.1150    2.2479 H         1 ATP         0.4062
     39 H2'        -0.0017    0.0018    0.0005 H         1 ATP         0.0689
     40 HO2'        2.0953   -0.9375    0.0709 H         1 ATP         0.4089
     41 H1'        -0.1998   -1.6319    2.6178 H         1 ATP         0.1098
     42 H8         -0.9697   -3.6300    1.2371 H         1 ATP         0.0929
     43 HN62       -6.4060   -2.5723   -1.2840 H         1 ATP         0.3678
     44 H2         -4.8409    1.4176    0.1757 H         1 ATP         0.0383
     45 H45        -6.0768   -0.2826   -0.7263 H         1 ATP         0.4286
@<TRIPOS>BOND
     1    1    2 2
     2    1    3 1
     3    1    4 1
     4    1    8 1
     5    4   32 1
     6    5    6 2
     7    5    7 1
     8    5    8 1
     9    5   12 1
    10    9   10 2
    11    9   11 1
    12    9   12 1
    13    9   13 1
    14   11   33 1
    15   13   14 1
    16   14   15 1
    17   14   34 1
    18   14   35 1
    19   15   16 1
    20   15   17 1
    21   15   36 1
    22   16   21 1
    23   17   18 1
    24   17   19 1
    25   17   37 1
    26   18   38 1
    27   19   20 1
    28   19   21 1
    29   19   39 1
    30   20   40 1
    31   21   22 1
    32   21   41 1
    33   22   23 ar
    34   22   31 ar
    35   23   24 ar
    36   23   42 1
    37   24   25 ar
    38   25   26 ar
    39   25   31 ar
    40   26   27 2
    41   26   28 ar
    42   27   43 1
    43   28   29 ar
    44   28   45 1
    45   29   30 ar
    46   29   44 1
    47   30   31 ar
@<TRIPOS>SUBSTRUCTURE
     1 ATP         1 GROUP 0 A     ****
@<TRIPOS>MOLECULE
[[[3,4-dihydroxy-5-(6-imino-1~{H}-purin-9-yl)tetrahydrofuran-2-yl]methoxy-hydroxy-phosphoryl]oxy-oxido-phosphoryl] hydrogen phosphate
   45    47     1     0     0
SMALL
USER_CHARGES

@<TRIPOS>ATOM
      1 PG         -0.5121    2.0719    6.5388 P.3       1 ATP         1.5414
      2 O1G        -0.8816    1.4150    5.2275 O.co2     1 ATP        -0.8562
      3 O2G        -1.5665    2.7195    7.4084 O.co2     1 ATP        -0.8562
      4 O3G         0.3163    0.9939    7.4432 O.3       1 ATP        -0.7907
      5 PB          0.6884    4.5428    5.4364 P.3       1 ATP         1.6574
      6 O1B        -0.4413    5.4103    5.9454 O.co2     1 ATP        -0.8530
      7 O2B         2.1052    5.0681    5.3678 O.co2     1 ATP        -0.8530
      8 O3B         0.6886    3.1428    6.2741 O.3       1 ATP        -0.8003
      9 PA          0.0493    4.7068    2.5510 P.3       1 ATP         1.7415
     10 O1A         1.0439    5.7943    2.2646 O.2       1 ATP        -0.8661
     11 O2A        -1.4849    5.2135    2.6372 O.3       1 ATP        -0.8077
     12 O3A         0.2724    3.9615    3.9692 O.3       1 ATP        -0.7685
     13 O5'         0.0171    3.5129    1.4593 O.3       1 ATP        -0.5590
     14 C5'        -0.8811    2.4285    1.6206 C.3       1 ATP         0.1960
     15 C4'        -0.1994    1.3333    2.4288 C.3       1 ATP         0.0976
     16 O4'        -1.1285    0.2356    2.5840 O.3       1 ATP        -0.3865
     17 C3'         1.0324    0.7610    1.7344 C.3       1 ATP         0.0901
     18 O3'         1.9175    0.2377    2.7247 O.3       1 ATP        -0.5889
     19 C2'         0.4468   -0.3802    0.9263 C.3       1 ATP         0.0574
     20 O2'         1.3993   -1.3703    0.5961 O.3       1 ATP        -0.5923
     21 C1'        -0.6159   -0.9100    1.8769 C.3       1 ATP         0.2452
     22 N9         -1.7127   -1.6108    1.2130 N.pl3     1 ATP        -0.1834
     23 C8         -2.8662   -1.0361    0.7388 C.ar      1 ATP         0.4338
     24 N7         -3.6774   -1.9166    0.1867 N.2       1 ATP        -0.6101
     25 C5         -3.0159   -3.1045    0.3122 C.ar      1 ATP         0.2154
     26 C6         -3.4377   -4.4169   -0.1199 C.ar      1 ATP         0.6130
     27 N6         -4.5720   -4.5691   -0.7080 N.2       1 ATP        -0.8165
     28 N1         -2.4600   -5.3463    0.2071 N.pl3     1 ATP        -0.8617
     29 C2         -1.2595   -5.0554    0.8515 C.ar      1 ATP         0.6151
     30 N3         -0.8555   -3.8803    1.2516 N.2       1 ATP        -0.5797
     31 C4         -1.7946   -2.9457    0.9448 C.ar      1 ATP         0.0328
     32 HOG3        0.6289    1.2717    8.3306 H         1 ATP         0.4197
     33 HOA2       -1.8864    5.6452    1.8533 H         1 ATP         0.4550
     34 H5'1       -1.7775    2.7843    2.1389 H         1 ATP         0.0431
     35 H5'2       -1.1658    2.0534    0.6322 H         1 ATP         0.0431
     36 H4'         0.0402    1.7079    3.4342 H         1 ATP         0.1325
     37 H3'         1.5907    1.4859    1.1353 H         1 ATP         0.0782
     38 HO3'        2.6839   -0.1150    2.2479 H         1 ATP         0.4062
     39 H2'        -0.0017    0.0018    0.0005 H         1 ATP         0.0689
     40 HO2'        2.0953   -0.9375    0.0709 H         1 ATP         0.4089
     41 H1'        -0.1998   -1.6319    2.6178 H         1 ATP         0.1098
     42 H8         -3.0558    0.0252    0.8256 H         1 ATP         0.0929
     43 HN62       -4.7047   -5.5592   -0.9421 H         1 ATP         0.3678
     44 H2         -0.6372   -5.9505    1.0077 H         1 ATP         0.0383
     45 H45        -2.6338   -6.3155   -0.0469 H         1 ATP         0.4286
@<TRIPOS>BOND
     1    1    2 2
     2    1    3 1
     3    1    4 1
     4    1    8 1
     5    4   32 1
     6    5    6 2
     7    5    7 1
     8    5    8 1
     9    5   12 1
    10    9   10 2
    11    9   11 1
    12    9   12 1
    13    9   13 1
    14   11   33 1
    15   13   14 1
    16   14   15 1
    17   14   34 1
    18   14   35 1
    19   15   16 1
    20   15   17 1
    21   15   36 1
    22   16   21 1
    23   17   18 1
    24   17   19 1
    25   17   37 1
    26   18   38 1
    27   19   20 1
    28   19   21 1
    29   19   39 1
    30   20   40 1
    31   21   22 1
    32   21   41 1
    33   22   23 ar
    34   22   31 ar
    35   23   24 ar
    36   23   42 1
    37   24   25 ar
    38   25   26 ar
    39   25   31 ar
    40   26   27 2
    41   26   28 ar
    42   27   43 1
    43   28   29 ar
    44   28   45 1
    45   29   30 ar
    46   29   44 1
    47   30   31 ar
@<TRIPOS>SUBSTRUCTURE
     1 ATP         1 GROUP 0 A     ****
@<TRIPOS>MOLECULE
[[[3,4-dihydroxy-5-(6-imino-1~{H}-purin-9-yl)tetrahydrofuran-2-yl]methoxy-hydroxy-phosphoryl]oxy-oxido-phosphoryl] hydrogen phosphate
   45    47     1     0     0
SMALL
USER_CHARGES

@<TRIPOS>ATOM
      1 PG         -4.2964   -0.3673    3.8842 P.3       1 ATP         1.5414
      2 O1G        -4.5150   -1.6380    3.0935 O.co2     1 ATP        -0.8562
      3 O2G        -5.3149    0.1019    4.8991 O.co2     1 ATP        -0.8562
      4 O3G        -2.8386   -0.4555    4.6144 O.3       1 ATP        -0.7907
      5 PB         -4.9323    1.5676    1.7362 P.3       1 ATP         1.6574
      6 O1B        -5.2364    0.5660    0.6444 O.co2     1 ATP        -0.8530
      7 O2B        -6.0436    2.3041    2.4506 O.co2     1 ATP        -0.8530
      8 O3B        -3.9781    0.8516    2.8491 O.3       1 ATP        -0.8003
      9 PA         -3.0705    3.8640    1.8808 P.3       1 ATP         1.7415
     10 O1A        -3.8861    4.6226    2.8874 O.2       1 ATP        -0.8661
     11 O2A        -2.5428    4.7593    0.6407 O.3       1 ATP        -0.8077
     12 O3A        -3.8686    2.6596    1.1535 O.3       1 ATP        -0.7685
     13 O5'        -1.7334    3.1724    2.4743 O.3       1 ATP        -0.5590
     14 C5'        -0.8811    2.4285    1.6206 C.3       1 ATP         0.1960
     15 C4'        -0.1994    1.3333    2.4288 C.3       1 ATP         0.0976
     16 O4'        -1.1285    0.2356    2.5840 O.3       1 ATP        -0.3865
     17 C3'         1.0324    0.7610    1.7344 C.3       1 ATP         0.0901
     18 O3'         1.9175    0.2377    2.7247 O.3       1 ATP        -0.5889
     19 C2'         0.4468   -0.3802    0.9263 C.3       1 ATP         0.0574
     20 O2'         1.3993   -1.3703    0.5961 O.3       1 ATP        -0.5923
     21 C1'        -0.6159   -0.9100    1.8769 C.3       1 ATP         0.2452
     22 N9         -1.7127   -1.6108    1.2130 N.pl3     1 ATP        -0.1834
     23 C8         -2.0868   -2.9137    1.4327 C.ar      1 ATP         0.4338
     24 N7         -3.1125   -3.2756    0.6878 N.2       1 ATP        -0.6101
     25 C5         -3.4079   -2.1580   -0.0391 C.ar      1 ATP         0.2154
     26 C6         -4.4483   -1.9775   -1.0249 C.ar      1 ATP         0.6130
     27 N6         -5.2418   -2.9492   -1.3113 N.2       1 ATP        -0.8165
     28 N1         -4.3937   -0.6823   -1.5211 N.pl3     1 ATP        -0.8617
     29 C2         -3.4770    0.2901   -1.1271 C.ar      1 ATP         0.6151
     30 N3         -2.5289    0.1525   -0.2402 N.2       1 ATP        -0.5797
     31 C4         -2.5564   -1.1096    0.2655 C.ar      1 ATP         0.0328
     32 HOG3       -2.5483    0.2993    5.1696 H         1 ATP         0.4197
     33 HOA2       -1.9622    5.5283    0.8243 H         1 ATP         0.4550
     34 H5'1       -1.4795    1.9922    0.8142 H         1 ATP         0.0431
     35 H5'2       -0.1362    3.1035    1.1868 H         1 ATP         0.0431
     36 H4'         0.0402    1.7079    3.4342 H         1 ATP         0.1325
     37 H3'         1.5907    1.4859    1.1353 H         1 ATP         0.0782
     38 HO3'        2.6839   -0.1150    2.2479 H         1 ATP         0.4062
     39 H2'        -0.0017    0.0018    0.0005 H         1 ATP         0.0689
     40 HO2'        2.0953   -0.9375    0.0709 H         1 ATP         0.4089
     41 H1'        -0.1998   -1.6319    2.6178 H         1 ATP         0.1098
     42 H8         -1.5740   -3.5449    2.1457 H         1 ATP         0.0929
     43 HN62       -5.9117   -2.6433   -2.0256 H         1 ATP         0.3678
     44 H2         -3.6225    1.2454   -1.6553 H         1 ATP         0.0383
     45 H45        -5.0794   -0.4231   -2.2258 H         1 ATP         0.4286
@<TRIPOS>BOND
     1    1    2 2
     2    1    3 1
     3    1    4 1
     4    1    8 1
     5    4   32 1
     6    5    6 2
     7    5    7 1
     8    5    8 1
     9    5   12 1
    10    9   10 2
    11    9   11 1
    12    9   12 1
    13    9   13 1
    14   11   33 1
    15   13   14 1
    16   14   15 1
    17   14   34 1
    18   14   35 1
    19   15   16 1
    20   15   17 1
    21   15   36 1
    22   16   21 1
    23   17   18 1
    24   17   19 1
    25   17   37 1
    26   18   38 1
    27   19   20 1
    28   19   21 1
    29   19   39 1
    30   20   40 1
    31   21   22 1
    32   21   41 1
    33   22   23 ar
    34   22   31 ar
    35   23   24 ar
    36   23   42 1
    37   24   25 ar
    38   25   26 ar
    39   25   31 ar
    40   26   27 2
    41   26   28 ar
    42   27   43 1
    43   28   29 ar
    44   28   45 1
    45   29   30 ar
    46   29   44 1
    47   30   31 ar
@<TRIPOS>SUBSTRUCTURE
     1 ATP         1 GROUP 0 A     ****
@<TRIPOS>MOLECULE
[[[3,4-dihydroxy-5-(6-imino-1~{H}-purin-9-yl)tetrahydrofuran-2-yl]methoxy-hydroxy-phosphoryl]oxy-oxido-phosphoryl] hydrogen phosphate
   45    47     1     0     0
SMALL
USER_CHARGES

@<TRIPOS>ATOM
      1 PG         -4.9202    0.8702    6.8259 P.3       1 ATP         1.5414
      2 O1G        -3.9635    1.5172    7.8025 O.co2     1 ATP        -0.8562
      3 O2G        -5.3451   -0.5717    6.9933 O.co2     1 ATP        -0.8562
      4 O3G        -6.2601    1.7975    6.7213 O.3       1 ATP        -0.7907
      5 PB         -3.0227    0.4841    4.5870 P.3       1 ATP         1.6574
      6 O1B        -1.8016    1.0809    5.2507 O.co2     1 ATP        -0.8530
      7 O2B        -3.1799   -1.0136    4.4454 O.co2     1 ATP        -0.8530
      8 O3B        -4.3555    1.0847    5.3114 O.3       1 ATP        -0.8003
      9 PA         -3.2760    2.7242    2.6690 P.3       1 ATP         1.7415
     10 O1A        -4.0714    3.5946    3.5982 O.2       1 ATP        -0.8661
     11 O2A        -3.8642    2.6452    1.1638 O.3       1 ATP        -0.8077
     12 O3A        -3.1998    1.1719    3.1176 O.3       1 ATP        -0.7685
     13 O5'        -1.7334    3.1724    2.4743 O.3       1 ATP        -0.5590
     14 C5'        -0.8811    2.4285    1.6206 C.3       1 ATP         0.1960
     15 C4'        -0.1994    1.3333    2.4288 C.3       1 ATP         0.0976
     16 O4'        -1.1285    0.2356    2.5840 O.3       1 ATP        -0.3865
     17 C3'         1.0324    0.7610    1.7344 C.3       1 ATP         0.0901
     18 O3'         1.9175    0.2377    2.7247 O.3       1 ATP        -0.5889
     19 C2'         0.4468   -0.3802    0.9263 C.3       1 ATP         0.0574
     20 O2'         1.3993   -1.3703    0.5961 O.3       1 ATP        -0.5923
     21 C1'        -0.6159   -0.9100    1.8769 C.3       1 ATP         0.2452
     22 N9         -1.7127   -1.6108    1.2130 N.pl3     1 ATP        -0.1834
     23 C8         -2.0868   -2.9137    1.4327 C.ar      1 ATP         0.4338
     24 N7         -3.1125   -3.2756    0.6878 N.2       1 ATP        -0.6101
     25 C5         -3.4079   -2.1580   -0.0391 C.ar      1 ATP         0.2154
     26 C6         -4.4483   -1.9775   -1.0249 C.ar      1 ATP         0.6130
     27 N6         -5.2418   -2.9492   -1.3113 N.2       1 ATP        -0.8165
     28 N1         -4.3937   -0.6823   -1.5211 N.pl3     1 ATP        -0.8617
     29 C2         -3.4770    0.2901   -1.1271 C.ar      1 ATP         0.6151
     30 N3         -2.5289    0.1525   -0.2402 N.2       1 ATP        -0.5797
     31 C4         -2.5564   -1.1096    0.2655 C.ar      1 ATP         0.0328
     32 HOG3       -6.9816    1.5091    6.1223 H         1 ATP         0.4197
     33 HOA2       -3.9412    3.4715    0.6408 H         1 ATP         0.4550
     34 H5'1       -1.4795    1.9922    0.8142 H         1 ATP         0.0431
     35 H5'2       -0.1362    3.1035    1.1868 H         1 ATP         0.0431
     36 H4'         0.0402    1.7079    3.4342 H         1 ATP         0.1325
     37 H3'         1.5907    1.4859    1.1353 H         1 ATP         0.0782
     38 HO3'        2.6839   -0.1150    2.2479 H         1 ATP         0.4062
     39 H2'        -0.0017    0.0018    0.0005 H         1 ATP         0.0689
     40 HO2'        2.0953   -0.9375    0.0709 H         1 ATP         0.4089
     41 H1'        -0.1998   -1.6319    2.6178 H         1 ATP         0.1098
     42 H8         -1.5740   -3.5449    2.1457 H         1 ATP         0.0929
     43 HN62       -5.9117   -2.6433   -2.0256 H         1 ATP         0.3678
     44 H2         -3.6225    1.2454   -1.6553 H         1 ATP         0.0383
     45 H45        -5.0794   -0.4231   -2.2258 H         1 ATP         0.4286
@<TRIPOS>BOND
     1    1    2 2
     2    1    3 1
     3    1    4 1
     4    1    8 1
     5    4   32 1
     6    5    6 2
     7    5    7 1
     8    5    8 1
     9    5   12 1
    10    9   10 2
    11    9   11 1
    12    9   12 1
    13    9   13 1
    14   11   33 1
    15   13   14 1
    16   14   15 1
    17   14   34 1
    18   14   35 1
    19   15   16 1
    20   15   17 1
    21   15   36 1
    22   16   21 1
    23   17   18 1
    24   17   19 1
    25   17   37 1
    26   18   38 1
    27   19   20 1
    28   19   21 1
    29   19   39 1
    30   20   40 1
    31   21   22 1
    32   21   41 1
    33   22   23 ar
    34   22   31 ar
    35   23   24 ar
    36   23   42 1
    37   24   25 ar
    38   25   26 ar
    39   25   31 ar
    40   26   27 2
    41   26   28 ar
    42   27   43 1
    43   28   29 ar
    44   28   45 1
    45   29   30 ar
    46   29   44 1
    47   30   31 ar
@<TRIPOS>SUBSTRUCTURE
     1 ATP         1 GROUP 0 A     ****
@<TRIPOS>MOLECULE
[[[3,4-dihydroxy-5-(6-imino-1~{H}-purin-9-yl)tetrahydrofuran-2-yl]methoxy-hydroxy-phosphoryl]oxy-oxido-phosphoryl] hydrogen phosphate
   45    47     1     0     0
SMALL
USER_CHARGES

@<TRIPOS>ATOM
      1 PG         -2.9240   -2.4401    5.0358 P.3       1 ATP         1.5414
      2 O1G        -4.1477   -2.5586    5.9169 O.co2     1 ATP        -0.8562
      3 O2G        -1.5325   -2.5165    5.6233 O.co2     1 ATP        -0.8562
      4 O3G        -3.0415   -3.5401    3.8348 O.3       1 ATP        -0.7907
      5 PB         -3.0227    0.4841    4.5870 P.3       1 ATP         1.6574
      6 O1B        -4.2629    0.7729    5.4032 O.co2     1 ATP        -0.8530
      7 O2B        -1.6455    0.8161    5.1169 O.co2     1 ATP        -0.8530
      8 O3B        -3.0476   -1.0843    4.1385 O.3       1 ATP        -0.8003
      9 PA         -3.2760    2.7242    2.6690 P.3       1 ATP         1.7415
     10 O1A        -4.0714    3.5946    3.5982 O.2       1 ATP        -0.8661
     11 O2A        -3.8642    2.6452    1.1638 O.3       1 ATP        -0.8077
     12 O3A        -3.1998    1.1719    3.1176 O.3       1 ATP        -0.7685
     13 O5'        -1.7334    3.1724    2.4743 O.3       1 ATP        -0.5590
     14 C5'        -0.8811    2.4285    1.6206 C.3       1 ATP         0.1960
     15 C4'        -0.1994    1.3333    2.4288 C.3       1 ATP         0.0976
     16 O4'        -1.1285    0.2356    2.5840 O.3       1 ATP        -0.3865
     17 C3'         1.0324    0.7610    1.7344 C.3       1 ATP         0.0901
     18 O3'         1.9175    0.2377    2.7247 O.3       1 ATP        -0.5889
     19 C2'         0.4468   -0.3802    0.9263 C.3       1 ATP         0.0574
     20 O2'         1.3993   -1.3703    0.5961 O.3       1 ATP        -0.5923
     21 C1'        -0.6159   -0.9100    1.8769 C.3       1 ATP         0.2452
     22 N9         -1.7127   -1.6108    1.2130 N.pl3     1 ATP        -0.1834
     23 C8         -2.8662   -1.0361    0.7388 C.ar      1 ATP         0.4338
     24 N7         -3.6774   -1.9166    0.1867 N.2       1 ATP        -0.6101
     25 C5         -3.0159   -3.1045    0.3122 C.ar      1 ATP         0.2154
     26 C6         -3.4377   -4.4169   -0.1199 C.ar      1 ATP         0.6130
     27 N6         -4.5720   -4.5691   -0.7080 N.2       1 ATP        -0.8165
     28 N1         -2.4600   -5.3463    0.2071 N.pl3     1 ATP        -0.8617
     29 C2         -1.2595   -5.0554    0.8515 C.ar      1 ATP         0.6151
     30 N3         -0.8555   -3.8803    1.2516 N.2       1 ATP        -0.5797
     31 C4         -1.7946   -2.9457    0.9448 C.ar      1 ATP         0.0328
     32 HOG3       -3.8082   -3.4855    3.2253 H         1 ATP         0.4197
     33 HOA2       -3.9412    3.4715    0.6408 H         1 ATP         0.4550
     34 H5'1       -1.4795    1.9922    0.8142 H         1 ATP         0.0431
     35 H5'2       -0.1362    3.1035    1.1868 H         1 ATP         0.0431
     36 H4'         0.0402    1.7079    3.4342 H         1 ATP         0.1325
     37 H3'         1.5907    1.4859    1.1353 H         1 ATP         0.0782
     38 HO3'        2.6839   -0.1150    2.2479 H         1 ATP         0.4062
     39 H2'        -0.0017    0.0018    0.0005 H         1 ATP         0.0689
     40 HO2'        2.0953   -0.9375    0.0709 H         1 ATP         0.4089
     41 H1'        -0.1998   -1.6319    2.6178 H         1 ATP         0.1098
     42 H8         -3.0558    0.0252    0.8256 H         1 ATP         0.0929
     43 HN62       -4.7047   -5.5592   -0.9421 H         1 ATP         0.3678
     44 H2         -0.6372   -5.9505    1.0077 H         1 ATP         0.0383
     45 H45        -2.6338   -6.3155   -0.0469 H         1 ATP         0.4286
@<TRIPOS>BOND
     1    1    2 2
     2    1    3 1
     3    1    4 1
     4    1    8 1
     5    4   32 1
     6    5    6 2
     7    5    7 1
     8    5    8 1
     9    5   12 1
    10    9   10 2
    11    9   11 1
    12    9   12 1
    13    9   13 1
    14   11   33 1
    15   13   14 1
    16   14   15 1
    17   14   34 1
    18   14   35 1
    19   15   16 1
    20   15   17 1
    21   15   36 1
    22   16   21 1
    23   17   18 1
    24   17   19 1
    25   17   37 1
    26   18   38 1
    27   19   20 1
    28   19   21 1
    29   19   39 1
    30   20   40 1
    31   21   22 1
    32   21   41 1
    33   22   23 ar
    34   22   31 ar
    35   23   24 ar
    36   23   42 1
    37   24   25 ar
    38   25   26 ar
    39   25   31 ar
    40   26   27 2
    41   26   28 ar
    42   27   43 1
    43   28   29 ar
    44   28   45 1
    45   29   30 ar
    46   29   44 1
    47   30   31 ar
@<TRIPOS>SUBSTRUCTURE
     1 ATP         1 GROUP 0 A     ****
@<TRIPOS>MOLECULE
[[[3,4-dihydroxy-5-(6-imino-1~{H}-purin-9-yl)tetrahydrofuran-2-yl]methoxy-hydroxy-phosphoryl]oxy-oxido-phosphoryl] hydrogen phosphate
   45    47     1     0     0
SMALL
USER_CHARGES

@<TRIPOS>ATOM
      1 PG         -5.8744    1.7503   -1.9323 P.3       1 ATP         1.5414
      2 O1G        -5.5703    1.9698   -3.3975 O.co2     1 ATP        -0.8562
      3 O2G        -7.2733    1.9434   -1.3910 O.co2     1 ATP        -0.8562
      4 O3G        -5.3568    0.2594   -1.5131 O.3       1 ATP        -0.7907
      5 PB         -4.5962    2.6666    0.5755 P.3       1 ATP         1.6574
      6 O1B        -5.8297    3.2452    1.2323 O.co2     1 ATP        -0.8530
      7 O2B        -4.0321    1.3332    1.0133 O.co2     1 ATP        -0.8530
      8 O3B        -4.8332    2.6309   -1.0383 O.3       1 ATP        -0.8003
      9 PA         -2.5925    4.4094    1.8827 P.3       1 ATP         1.7415
     10 O1A        -3.4550    5.1144    2.8891 O.2       1 ATP        -0.8661
     11 O2A        -1.4926    5.3570    1.1685 O.3       1 ATP        -0.8077
     12 O3A        -3.4080    3.7839    0.6336 O.3       1 ATP        -0.7685
     13 O5'        -1.7334    3.1724    2.4743 O.3       1 ATP        -0.5590
     14 C5'        -0.8811    2.4285    1.6206 C.3       1 ATP         0.1960
     15 C4'        -0.1994    1.3333    2.4288 C.3       1 ATP         0.0976
     16 O4'        -1.1285    0.2356    2.5840 O.3       1 ATP        -0.3865
     17 C3'         1.0324    0.7610    1.7344 C.3       1 ATP         0.0901
     18 O3'         1.9175    0.2377    2.7247 O.3       1 ATP        -0.5889
     19 C2'         0.4468   -0.3802    0.9263 C.3       1 ATP         0.0574
     20 O2'         1.3993   -1.3703    0.5961 O.3       1 ATP        -0.5923
     21 C1'        -0.6159   -0.9100    1.8769 C.3       1 ATP         0.2452
     22 N9         -1.7127   -1.6108    1.2130 N.pl3     1 ATP        -0.1834
     23 C8         -3.0370   -1.2489    1.2455 C.ar      1 ATP         0.4338
     24 N7         -3.8008   -2.0709    0.5534 N.2       1 ATP        -0.6101
     25 C5         -2.9295   -2.9976    0.0567 C.ar      1 ATP         0.2154
     26 C6         -3.2152   -4.1411   -0.7786 C.ar      1 ATP         0.6130
     27 N6         -4.4238   -4.3865   -1.1456 N.2       1 ATP        -0.8165
     28 N1         -2.0349   -4.8186   -1.0521 N.pl3     1 ATP        -0.8617
     29 C2         -0.7728   -4.4501   -0.5916 C.ar      1 ATP         0.6151
     30 N3         -0.4885   -3.4234    0.1630 N.2       1 ATP        -0.5797
     31 C4         -1.6274   -2.7377    0.4492 C.ar      1 ATP         0.0328
     32 HOG3       -5.4834   -0.0350   -0.5860 H         1 ATP         0.4197
     33 HOA2       -1.7986    6.1343    0.6543 H         1 ATP         0.4550
     34 H5'1       -1.4795    1.9922    0.8142 H         1 ATP         0.0431
     35 H5'2       -0.1362    3.1035    1.1868 H         1 ATP         0.0431
     36 H4'         0.0402    1.7079    3.4342 H         1 ATP         0.1325
     37 H3'         1.5907    1.4859    1.1353 H         1 ATP         0.0782
     38 HO3'        2.6839   -0.1150    2.2479 H         1 ATP         0.4062
     39 H2'        -0.0017    0.0018    0.0005 H         1 ATP         0.0689
     40 HO2'        2.0953   -0.9375    0.0709 H         1 ATP         0.4089
     41 H1'        -0.1998   -1.6319    2.6178 H         1 ATP         0.1098
     42 H8         -3.3806   -0.3795    1.7893 H         1 ATP         0.0929
     43 HN62       -4.4384   -5.2300   -1.7295 H         1 ATP         0.3678
     44 H2          0.0180   -5.1355   -0.9348 H         1 ATP         0.0383
     45 H45        -2.0977   -5.6477   -1.6374 H         1 ATP         0.4286
@<TRIPOS>BOND
     1    1    2 2
     2    1    3 1
     3    1    4 1
     4    1    8 1
     5    4   32 1
     6    5    6 2
     7    5    7 1
     8    5    8 1
     9    5   12 1
    10    9   10 2
    11    9   11 1
    12    9   12 1
    13    9   13 1
    14   11   33 1
    15   13   14 1
    16   14   15 1
    17   14   34 1
    18   14   35 1
    19   15   16 1
    20   15   17 1
    21   15   36 1
    22   16   21 1
    23   17   18 1
    24   17   19 1
    25   17   37 1
    26   18   38 1
    27   19   20 1
    28   19   21 1
    29   19   39 1
    30   20   40 1
    31   21   22 1
    32   21   41 1
    33   22   23 ar
    34   22   31 ar
    35   23   24 ar
    36   23   42 1
    37   24   25 ar
    38   25   26 ar
    39   25   31 ar
    40   26   27 2
    41   26   28 ar
    42   27   43 1
    43   28   29 ar
    44   28   45 1
    45   29   30 ar
    46   29   44 1
    47   30   31 ar
@<TRIPOS>SUBSTRUCTURE
     1 ATP         1 GROUP 0 A     ****
@<TRIPOS>MOLECULE
[[[3,4-dihydroxy-5-(6-imino-1~{H}-purin-9-yl)tetrahydrofuran-2-yl]methoxy-hydroxy-phosphoryl]oxy-oxido-phosphoryl] hydrogen phosphate
   45    47     1     0     0
SMALL
USER_CHARGES

@<TRIPOS>ATOM
      1 PG         -6.5256    4.3452   -1.4735 P.3       1 ATP         1.5414
      2 O1G        -7.6190    4.9763   -0.6404 O.co2     1 ATP        -0.8562
      3 O2G        -6.8471    3.2884   -2.5065 O.co2     1 ATP        -0.8562
      4 O3G        -5.6724    5.5350   -2.1962 O.3       1 ATP        -0.7907
      5 PB         -5.4028    2.5621    0.6055 P.3       1 ATP         1.6574
      6 O1B        -6.3380    2.9475    1.7301 O.co2     1 ATP        -0.8530
      7 O2B        -5.5723    1.2551   -0.1366 O.co2     1 ATP        -0.8530
      8 O3B        -5.3632    3.7797   -0.4797 O.3       1 ATP        -0.8003
      9 PA         -3.0705    3.8640    1.8808 P.3       1 ATP         1.7415
     10 O1A        -3.8861    4.6226    2.8874 O.2       1 ATP        -0.8661
     11 O2A        -2.5428    4.7593    0.6407 O.3       1 ATP        -0.8077
     12 O3A        -3.8686    2.6596    1.1535 O.3       1 ATP        -0.7685
     13 O5'        -1.7334    3.1724    2.4743 O.3       1 ATP        -0.5590
     14 C5'        -0.8811    2.4285    1.6206 C.3       1 ATP         0.1960
     15 C4'        -0.1994    1.3333    2.4288 C.3       1 ATP         0.0976
     16 O4'        -1.1285    0.2356    2.5840 O.3       1 ATP        -0.3865
     17 C3'         1.0324    0.7610    1.7344 C.3       1 ATP         0.0901
     18 O3'         1.9175    0.2377    2.7247 O.3       1 ATP        -0.5889
     19 C2'         0.4468   -0.3802    0.9263 C.3       1 ATP         0.0574
     20 O2'         1.3993   -1.3703    0.5961 O.3       1 ATP        -0.5923
     21 C1'        -0.6159   -0.9100    1.8769 C.3       1 ATP         0.2452
     22 N9         -1.7127   -1.6108    1.2130 N.pl3     1 ATP        -0.1834
     23 C8         -2.0868   -2.9137    1.4327 C.ar      1 ATP         0.4338
     24 N7         -3.1125   -3.2756    0.6878 N.2       1 ATP        -0.6101
     25 C5         -3.4079   -2.1580   -0.0391 C.ar      1 ATP         0.2154
     26 C6         -4.4483   -1.9775   -1.0249 C.ar      1 ATP         0.6130
     27 N6         -5.2418   -2.9492   -1.3113 N.2       1 ATP        -0.8165
     28 N1         -4.3937   -0.6823   -1.5211 N.pl3     1 ATP        -0.8617
     29 C2         -3.4770    0.2901   -1.1271 C.ar      1 ATP         0.6151
     30 N3         -2.5289    0.1525   -0.2402 N.2       1 ATP        -0.5797
     31 C4         -2.5564   -1.1096    0.2655 C.ar      1 ATP         0.0328
     32 HOG3       -4.9217    5.2849   -2.7761 H         1 ATP         0.4197
     33 HOA2       -3.1996    5.2056    0.0648 H         1 ATP         0.4550
     34 H5'1       -1.4795    1.9922    0.8142 H         1 ATP         0.0431
     35 H5'2       -0.1362    3.1035    1.1868 H         1 ATP         0.0431
     36 H4'         0.0402    1.7079    3.4342 H         1 ATP         0.1325
     37 H3'         1.5907    1.4859    1.1353 H         1 ATP         0.0782
     38 HO3'        2.6839   -0.1150    2.2479 H         1 ATP         0.4062
     39 H2'        -0.0017    0.0018    0.0005 H         1 ATP         0.0689
     40 HO2'        2.0953   -0.9375    0.0709 H         1 ATP         0.4089
     41 H1'        -0.1998   -1.6319    2.6178 H         1 ATP         0.1098
     42 H8         -1.5740   -3.5449    2.1457 H         1 ATP         0.0929
     43 HN62       -5.9117   -2.6433   -2.0256 H         1 ATP         0.3678
     44 H2         -3.6225    1.2454   -1.6553 H         1 ATP         0.0383
     45 H45        -5.0794   -0.4231   -2.2258 H         1 ATP         0.4286
@<TRIPOS>BOND
     1    1    2 2
     2    1    3 1
     3    1    4 1
     4    1    8 1
     5    4   32 1
     6    5    6 2
     7    5    7 1
     8    5    8 1
     9    5   12 1
    10    9   10 2
    11    9   11 1
    12    9   12 1
    13    9   13 1
    14   11   33 1
    15   13   14 1
    16   14   15 1
    17   14   34 1
    18   14   35 1
    19   15   16 1
    20   15   17 1
    21   15   36 1
    22   16   21 1
    23   17   18 1
    24   17   19 1
    25   17   37 1
    26   18   38 1
    27   19   20 1
    28   19   21 1
    29   19   39 1
    30   20   40 1
    31   21   22 1
    32   21   41 1
    33   22   23 ar
    34   22   31 ar
    35   23   24 ar
    36   23   42 1
    37   24   25 ar
    38   25   26 ar
    39   25   31 ar
    40   26   27 2
    41   26   28 ar
    42   27   43 1
    43   28   29 ar
    44   28   45 1
    45   29   30 ar
    46   29   44 1
    47   30   31 ar
@<TRIPOS>SUBSTRUCTURE
     1 ATP         1 GROUP 0 A     ****
@<TRIPOS>MOLECULE
[[[3,4-dihydroxy-5-(6-imino-1~{H}-purin-9-yl)tetrahydrofuran-2-yl]methoxy-hydroxy-phosphoryl]oxy-oxido-phosphoryl] hydrogen phosphate
   45    47     1     0     0
SMALL
USER_CHARGES

@<TRIPOS>ATOM
      1 PG         -1.9026    4.3112   -2.6128 P.3       1 ATP         1.5414
      2 O1G        -2.1203    2.9006   -3.1133 O.co2     1 ATP        -0.8562
      3 O2G        -0.6993    4.6585   -1.7650 O.co2     1 ATP        -0.8562
      4 O3G        -1.9482    5.3273   -3.8902 O.3       1 ATP        -0.7907
      5 PB         -3.9350    4.3016   -0.4607 P.3       1 ATP         1.6574
      6 O1B        -5.0831    5.2239   -0.1158 O.co2     1 ATP        -0.8530
      7 O2B        -4.1347    2.8046   -0.5428 O.co2     1 ATP        -0.8530
      8 O3B        -3.2526    4.8162   -1.8504 O.3       1 ATP        -0.8003
      9 PA         -2.5525    4.3888    2.1550 P.3       1 ATP         1.7415
     10 O1A        -3.7892    4.7207    2.9387 O.2       1 ATP        -0.8661
     11 O2A        -1.2618    5.2871    2.5359 O.3       1 ATP        -0.8077
     12 O3A        -2.6994    4.6113    0.5595 O.3       1 ATP        -0.7685
     13 O5'        -2.0397    2.8622    2.3122 O.3       1 ATP        -0.5590
     14 C5'        -0.8811    2.4285    1.6206 C.3       1 ATP         0.1960
     15 C4'        -0.1994    1.3333    2.4288 C.3       1 ATP         0.0976
     16 O4'        -1.1285    0.2356    2.5840 O.3       1 ATP        -0.3865
     17 C3'         1.0324    0.7610    1.7344 C.3       1 ATP         0.0901
     18 O3'         1.9175    0.2377    2.7247 O.3       1 ATP        -0.5889
     19 C2'         0.4468   -0.3802    0.9263 C.3       1 ATP         0.0574
     20 O2'         1.3993   -1.3703    0.5961 O.3       1 ATP        -0.5923
     21 C1'        -0.6159   -0.9100    1.8769 C.3       1 ATP         0.2452
     22 N9         -1.7127   -1.6108    1.2130 N.pl3     1 ATP        -0.1834
     23 C8         -2.0868   -2.9137    1.4327 C.ar      1 ATP         0.4338
     24 N7         -3.1125   -3.2756    0.6878 N.2       1 ATP        -0.6101
     25 C5         -3.4079   -2.1580   -0.0391 C.ar      1 ATP         0.2154
     26 C6         -4.4483   -1.9775   -1.0249 C.ar      1 ATP         0.6130
     27 N6         -5.2418   -2.9492   -1.3113 N.2       1 ATP        -0.8165
     28 N1         -4.3937   -0.6823   -1.5211 N.pl3     1 ATP        -0.8617
     29 C2         -3.4770    0.2901   -1.1271 C.ar      1 ATP         0.6151
     30 N3         -2.5289    0.1525   -0.2402 N.2       1 ATP        -0.5797
     31 C4         -2.5564   -1.1096    0.2655 C.ar      1 ATP         0.0328
     32 HOG3       -1.8223    6.2866   -3.7282 H         1 ATP         0.4197
     33 HOA2       -0.9230    5.2641    3.4562 H         1 ATP         0.4550
     34 H5'1       -1.1761    2.0499    0.6365 H         1 ATP         0.0431
     35 H5'2       -0.2073    3.2811    1.4874 H         1 ATP         0.0431
     36 H4'         0.0402    1.7079    3.4342 H         1 ATP         0.1325
     37 H3'         1.5907    1.4859    1.1353 H         1 ATP         0.0782
     38 HO3'        2.6839   -0.1150    2.2479 H         1 ATP         0.4062
     39 H2'        -0.0017    0.0018    0.0005 H         1 ATP         0.0689
     40 HO2'        0.9369   -2.0558    0.0825 H         1 ATP         0.4089
     41 H1'        -0.1998   -1.6319    2.6178 H         1 ATP         0.1098
     42 H8         -1.5740   -3.5449    2.1457 H         1 ATP         0.0929
     43 HN62       -5.9117   -2.6433   -2.0256 H         1 ATP         0.3678
     44 H2         -3.6225    1.2454   -1.6553 H         1 ATP         0.0383
     45 H45        -5.0794   -0.4231   -2.2258 H         1 ATP         0.4286
@<TRIPOS>BOND
     1    1    2 2
     2    1    3 1
     3    1    4 1
     4    1    8 1
     5    4   32 1
     6    5    6 2
     7    5    7 1
     8    5    8 1
     9    5   12 1
    10    9   10 2
    11    9   11 1
    12    9   12 1
    13    9   13 1
    14   11   33 1
    15   13   14 1
    16   14   15 1
    17   14   34 1
    18   14   35 1
    19   15   16 1
    20   15   17 1
    21   15   36 1
    22   16   21 1
    23   17   18 1
    24   17   19 1
    25   17   37 1
    26   18   38 1
    27   19   20 1
    28   19   21 1
    29   19   39 1
    30   20   40 1
    31   21   22 1
    32   21   41 1
    33   22   23 ar
    34   22   31 ar
    35   23   24 ar
    36   23   42 1
    37   24   25 ar
    38   25   26 ar
    39   25   31 ar
    40   26   27 2
    41   26   28 ar
    42   27   43 1
    43   28   29 ar
    44   28   45 1
    45   29   30 ar
    46   29   44 1
    47   30   31 ar
@<TRIPOS>SUBSTRUCTURE
     1 ATP         1 GROUP 0 A     ****
@<TRIPOS>MOLECULE
[[[3,4-dihydroxy-5-(6-imino-1~{H}-purin-9-yl)tetrahydrofuran-2-yl]methoxy-hydroxy-phosphoryl]oxy-oxido-phosphoryl] hydrogen phosphate
   45    47     1     0     0
SMALL
USER_CHARGES

@<TRIPOS>ATOM
      1 PG          1.8379    2.1241    6.1967 P.3       1 ATP         1.5414
      2 O1G         3.0661    2.8234    6.7353 O.co2     1 ATP        -0.8562
      3 O2G         1.8487    1.4757    4.8304 O.co2     1 ATP        -0.8562
      4 O3G         1.3493    1.0169    7.2929 O.3       1 ATP        -0.7907
      5 PB          0.2668    4.5335    5.4978 P.3       1 ATP         1.6574
      6 O1B        -1.1360    4.9889    5.8332 O.co2     1 ATP        -0.8530
      7 O2B         1.4505    5.4581    5.6757 O.co2     1 ATP        -0.8530
      8 O3B         0.5662    3.1401    6.2919 O.3       1 ATP        -0.8003
      9 PA          0.0493    4.7068    2.5510 P.3       1 ATP         1.7415
     10 O1A         1.0439    5.7943    2.2646 O.2       1 ATP        -0.8661
     11 O2A        -1.4849    5.2135    2.6372 O.3       1 ATP        -0.8077
     12 O3A         0.2724    3.9615    3.9692 O.3       1 ATP        -0.7685
     13 O5'         0.0171    3.5129    1.4593 O.3       1 ATP        -0.5590
     14 C5'        -0.8811    2.4285    1.6206 C.3       1 ATP         0.1960
     15 C4'        -0.1994    1.3333    2.4288 C.3       1 ATP         0.0976
     16 O4'        -1.1285    0.2356    2.5840 O.3       1 ATP        -0.3865
     17 C3'         1.0324    0.7610    1.7344 C.3       1 ATP         0.0901
     18 O3'         1.9175    0.2377    2.7247 O.3       1 ATP        -0.5889
     19 C2'         0.4468   -0.3802    0.9263 C.3       1 ATP         0.0574
     20 O2'         1.3993   -1.3703    0.5961 O.3       1 ATP        -0.5923
     21 C1'        -0.6159   -0.9100    1.8769 C.3       1 ATP         0.2452
     22 N9         -1.7127   -1.6108    1.2130 N.pl3     1 ATP        -0.1834
     23 C8         -2.0868   -2.9137    1.4327 C.ar      1 ATP         0.4338
     24 N7         -3.1125   -3.2756    0.6878 N.2       1 ATP        -0.6101
     25 C5         -3.4079   -2.1580   -0.0391 C.ar      1 ATP         0.2154
     26 C6         -4.4483   -1.9775   -1.0249 C.ar      1 ATP         0.6130
     27 N6         -5.2418   -2.9492   -1.3113 N.2       1 ATP        -0.8165
     28 N1         -4.3937   -0.6823   -1.5211 N.pl3     1 ATP        -0.8617
     29 C2         -3.4770    0.2901   -1.1271 C.ar      1 ATP         0.6151
     30 N3         -2.5289    0.1525   -0.2402 N.2       1 ATP        -0.5797
     31 C4         -2.5564   -1.1096    0.2655 C.ar      1 ATP         0.0328
     32 HOG3        0.5572    0.4755    7.0882 H         1 ATP         0.4197
     33 HOA2       -1.8864    5.6452    1.8533 H         1 ATP         0.4550
     34 H5'1       -1.7775    2.7843    2.1389 H         1 ATP         0.0431
     35 H5'2       -1.1658    2.0534    0.6322 H         1 ATP         0.0431
     36 H4'         0.0402    1.7079    3.4342 H         1 ATP         0.1325
     37 H3'         1.5907    1.4859    1.1353 H         1 ATP         0.0782
     38 HO3'        2.1521    0.9800    3.3017 H         1 ATP         0.4062
     39 H2'        -0.0017    0.0018    0.0005 H         1 ATP         0.0689
     40 HO2'        0.9369   -2.0558    0.0825 H         1 ATP         0.4089
     41 H1'        -0.1998   -1.6319    2.6178 H         1 ATP         0.1098
     42 H8         -1.5740   -3.5449    2.1457 H         1 ATP         0.0929
     43 HN62       -5.9117   -2.6433   -2.0256 H         1 ATP         0.3678
     44 H2         -3.6225    1.2454   -1.6553 H         1 ATP         0.0383
     45 H45        -5.0794   -0.4231   -2.2258 H         1 ATP         0.4286
@<TRIPOS>BOND
     1    1    2 2
     2    1    3 1
     3    1    4 1
     4    1    8 1
     5    4   32 1
     6    5    6 2
     7    5    7 1
     8    5    8 1
     9    5   12 1
    10    9   10 2
    11    9   11 1
    12    9   12 1
    13    9   13 1
    14   11   33 1
    15   13   14 1
    16   14   15 1
    17   14   34 1
    18   14   35 1
    19   15   16 1
    20   15   17 1
    21   15   36 1
    22   16   21 1
    23   17   18 1
    24   17   19 1
    25   17   37 1
    26   18   38 1
    27   19   20 1
    28   19   21 1
    29   19   39 1
    30   20   40 1
    31   21   22 1
    32   21   41 1
    33   22   23 ar
    34   22   31 ar
    35   23   24 ar
    36   23   42 1
    37   24   25 ar
    38   25   26 ar
    39   25   31 ar
    40   26   27 2
    41   26   28 ar
    42   27   43 1
    43   28   29 ar
    44   28   45 1
    45   29   30 ar
    46   29   44 1
    47   30   31 ar
@<TRIPOS>SUBSTRUCTURE
     1 ATP         1 GROUP 0 A     ****
@<TRIPOS>MOLECULE
[[[3,4-dihydroxy-5-(6-imino-1~{H}-purin-9-yl)tetrahydrofuran-2-yl]methoxy-hydroxy-phosphoryl]oxy-oxido-phosphoryl] hydrogen phosphate
   45    47     1     0     0
SMALL
USER_CHARGES

@<TRIPOS>ATOM
      1 PG          4.1597    5.6012   -5.0103 P.3       1 ATP         1.5414
      2 O1G         2.7972    6.0472   -4.5283 O.co2     1 ATP        -0.8562
      3 O2G         4.3432    5.0212   -6.3950 O.co2     1 ATP        -0.8562
      4 O3G         5.2068    6.8401   -4.8235 O.3       1 ATP        -0.7907
      5 PB          4.3302    3.0741   -3.4783 P.3       1 ATP         1.6574
      6 O1B         2.9921    3.1697   -2.7797 O.co2     1 ATP        -0.8530
      7 O2B         4.5329    2.1406   -4.6510 O.co2     1 ATP        -0.8530
      8 O3B         4.7979    4.5746   -3.9160 O.3       1 ATP        -0.8003
      9 PA          5.8506    3.5249   -0.9791 P.3       1 ATP         1.7415
     10 O1A         6.2523    4.9605   -1.1558 O.2       1 ATP        -0.8661
     11 O2A         7.0027    2.5847   -0.3414 O.3       1 ATP        -0.8077
     12 O3A         5.4767    2.7667   -2.3582 O.3       1 ATP        -0.7685
     13 O5'         4.5673    3.2930   -0.0211 O.3       1 ATP        -0.5590
     14 C5'         4.0922    1.9801    0.2227 C.3       1 ATP         0.1960
     15 C4'         2.5944    2.0310    0.4653 C.3       1 ATP         0.0976
     16 O4'         1.9327    2.5740   -0.6889 O.3       1 ATP        -0.3865
     17 C3'         1.9685    0.6634    0.6767 C.3       1 ATP         0.0901
     18 O3'         2.1425    0.1975    1.9977 O.3       1 ATP        -0.5889
     19 C2'         0.5176    0.9128    0.3099 C.3       1 ATP         0.0574
     20 O2'        -0.2103    1.4454    1.4152 O.3       1 ATP        -0.5923
     21 C1'         0.6219    1.9765   -0.7844 C.3       1 ATP         0.2452
     22 N9          0.4237    1.4496   -2.1357 N.pl3     1 ATP        -0.1834
     23 C8          1.4069    0.9710   -2.9662 C.ar      1 ATP         0.4338
     24 N7          0.9316    0.5623   -4.1260 N.2       1 ATP        -0.6101
     25 C5         -0.4120    0.7884   -4.0344 C.ar      1 ATP         0.2154
     26 C6         -1.4353    0.5283   -5.0204 C.ar      1 ATP         0.6130
     27 N6         -1.1199    0.0176   -6.1586 N.2       1 ATP        -0.8165
     28 N1         -2.6704    0.9095   -4.5147 N.pl3     1 ATP        -0.8617
     29 C2         -2.8863    1.4571   -3.2520 C.ar      1 ATP         0.6151
     30 N3         -1.9805    1.7017   -2.3442 N.2       1 ATP        -0.5797
     31 C4         -0.7561    1.3381   -2.8112 C.ar      1 ATP         0.0328
     32 HOG3        6.1405    6.7067   -5.0931 H         1 ATP         0.4197
     33 HOA2        7.8561    2.4926   -0.8161 H         1 ATP         0.4550
     34 H5'1        4.3175    1.3541   -0.6468 H         1 ATP         0.0431
     35 H5'2        4.6079    1.5730    1.0985 H         1 ATP         0.0431
     36 H4'         2.3752    2.7029    1.3156 H         1 ATP         0.1325
     37 H3'         2.4336   -0.1217   -0.0016 H         1 ATP         0.0782
     38 HO3'        3.0987    0.1465    2.1461 H         1 ATP         0.4062
     39 H2'         0.0316    0.0155   -0.0339 H         1 ATP         0.0689
     40 HO2'       -1.1270    1.5823    1.1180 H         1 ATP         0.4089
     41 H1'        -0.1474    2.7798   -0.6651 H         1 ATP         0.1098
     42 H8          2.4466    0.9468   -2.6694 H         1 ATP         0.0929
     43 HN62       -1.9661   -0.0965   -6.7275 H         1 ATP         0.3678
     44 H2         -3.9481    1.6825   -3.0660 H         1 ATP         0.0383
     45 H45        -3.4814    0.7753   -5.1133 H         1 ATP         0.4286
@<TRIPOS>BOND
     1    1    2 2
     2    1    3 1
     3    1    4 1
     4    1    8 1
     5    4   32 1
     6    5    6 2
     7    5    7 1
     8    5    8 1
     9    5   12 1
    10    9   10 2
    11    9   11 1
    12    9   12 1
    13    9   13 1
    14   11   33 1
    15   13   14 1
    16   14   15 1
    17   14   34 1
    18   14   35 1
    19   15   16 1
    20   15   17 1
    21   15   36 1
    22   16   21 1
    23   17   18 1
    24   17   19 1
    25   17   37 1
    26   18   38 1
    27   19   20 1
    28   19   21 1
    29   19   39 1
    30   20   40 1
    31   21   22 1
    32   21   41 1
    33   22   23 ar
    34   22   31 ar
    35   23   24 ar
    36   23   42 1
    37   24   25 ar
    38   25   26 ar
    39   25   31 ar
    40   26   27 2
    41   26   28 ar
    42   27   43 1
    43   28   29 ar
    44   28   45 1
    45   29   30 ar
    46   29   44 1
    47   30   31 ar
@<TRIPOS>SUBSTRUCTURE
     1 ATP         1 GROUP 0 A     ****
@<TRIPOS>MOLECULE
[[[3,4-dihydroxy-5-(6-imino-1~{H}-purin-9-yl)tetrahydrofuran-2-yl]methoxy-hydroxy-phosphoryl]oxy-oxido-phosphoryl] hydrogen phosphate
   45    47     1     0     0
SMALL
USER_CHARGES

@<TRIPOS>ATOM
      1 PG          0.9303    4.8113   -3.6801 P.3       1 ATP         1.5414
      2 O1G         2.0292    3.8844   -4.1499 O.co2     1 ATP        -0.8562
      3 O2G         0.8626    6.2436   -4.1610 O.co2     1 ATP        -0.8562
      4 O3G        -0.5093    4.0977   -3.9705 O.3       1 ATP        -0.7907
      5 PB          1.9724    5.3379   -0.9600 P.3       1 ATP         1.6574
      6 O1B         2.3034    6.7781   -1.2825 O.co2     1 ATP        -0.8530
      7 O2B         1.5148    4.9338    0.4238 O.co2     1 ATP        -0.8530
      8 O3B         0.8864    4.7961   -2.0502 O.3       1 ATP        -0.8003
      9 PA          4.7462    4.3191   -0.7891 P.3       1 ATP         1.7415
     10 O1A         5.3452    5.6480   -0.4300 O.2       1 ATP        -0.8661
     11 O2A         5.5521    3.5142   -1.9383 O.3       1 ATP        -0.8077
     12 O3A         3.2448    4.4082   -1.3846 O.3       1 ATP        -0.7685
     13 O5'         4.6408    3.2692    0.4376 O.3       1 ATP        -0.5590
     14 C5'         4.0922    1.9801    0.2227 C.3       1 ATP         0.1960
     15 C4'         2.5944    2.0310    0.4653 C.3       1 ATP         0.0976
     16 O4'         1.9327    2.5740   -0.6889 O.3       1 ATP        -0.3865
     17 C3'         1.9685    0.6634    0.6767 C.3       1 ATP         0.0901
     18 O3'         2.1425    0.1975    1.9977 O.3       1 ATP        -0.5889
     19 C2'         0.5176    0.9128    0.3099 C.3       1 ATP         0.0574
     20 O2'        -0.2103    1.4454    1.4152 O.3       1 ATP        -0.5923
     21 C1'         0.6219    1.9765   -0.7844 C.3       1 ATP         0.2452
     22 N9          0.4237    1.4496   -2.1357 N.pl3     1 ATP        -0.1834
     23 C8          1.4069    0.9710   -2.9662 C.ar      1 ATP         0.4338
     24 N7          0.9316    0.5623   -4.1260 N.2       1 ATP        -0.6101
     25 C5         -0.4120    0.7884   -4.0344 C.ar      1 ATP         0.2154
     26 C6         -1.4353    0.5283   -5.0204 C.ar      1 ATP         0.6130
     27 N6         -1.1199    0.0176   -6.1586 N.2       1 ATP        -0.8165
     28 N1         -2.6704    0.9095   -4.5147 N.pl3     1 ATP        -0.8617
     29 C2         -2.8863    1.4571   -3.2520 C.ar      1 ATP         0.6151
     30 N3         -1.9805    1.7017   -2.3442 N.2       1 ATP        -0.5797
     31 C4         -0.7561    1.3381   -2.8112 C.ar      1 ATP         0.0328
     32 HOG3       -1.3273    4.5776   -3.7194 H         1 ATP         0.4197
     33 HOA2        6.4887    3.2704   -1.7783 H         1 ATP         0.4550
     34 H5'1        4.3024    1.6722   -0.8067 H         1 ATP         0.0431
     35 H5'2        4.5673    1.2731    0.9105 H         1 ATP         0.0431
     36 H4'         2.3752    2.7029    1.3156 H         1 ATP         0.1325
     37 H3'         2.4336   -0.1217   -0.0016 H         1 ATP         0.0782
     38 HO3'        1.7160   -0.6716    2.0397 H         1 ATP         0.4062
     39 H2'         0.0316    0.0155   -0.0339 H         1 ATP         0.0689
     40 HO2'       -0.1608    0.7921    2.1351 H         1 ATP         0.4089
     41 H1'        -0.1474    2.7798   -0.6651 H         1 ATP         0.1098
     42 H8          2.4466    0.9468   -2.6694 H         1 ATP         0.0929
     43 HN62       -1.9661   -0.0965   -6.7275 H         1 ATP         0.3678
     44 H2         -3.9481    1.6825   -3.0660 H         1 ATP         0.0383
     45 H45        -3.4814    0.7753   -5.1133 H         1 ATP         0.4286
@<TRIPOS>BOND
     1    1    2 2
     2    1    3 1
     3    1    4 1
     4    1    8 1
     5    4   32 1
     6    5    6 2
     7    5    7 1
     8    5    8 1
     9    5   12 1
    10    9   10 2
    11    9   11 1
    12    9   12 1
    13    9   13 1
    14   11   33 1
    15   13   14 1
    16   14   15 1
    17   14   34 1
    18   14   35 1
    19   15   16 1
    20   15   17 1
    21   15   36 1
    22   16   21 1
    23   17   18 1
    24   17   19 1
    25   17   37 1
    26   18   38 1
    27   19   20 1
    28   19   21 1
    29   19   39 1
    30   20   40 1
    31   21   22 1
    32   21   41 1
    33   22   23 ar
    34   22   31 ar
    35   23   24 ar
    36   23   42 1
    37   24   25 ar
    38   25   26 ar
    39   25   31 ar
    40   26   27 2
    41   26   28 ar
    42   27   43 1
    43   28   29 ar
    44   28   45 1
    45   29   30 ar
    46   29   44 1
    47   30   31 ar
@<TRIPOS>SUBSTRUCTURE
     1 ATP         1 GROUP 0 A     ****
@<TRIPOS>MOLECULE
[[[3,4-dihydroxy-5-(6-imino-1~{H}-purin-9-yl)tetrahydrofuran-2-yl]methoxy-hydroxy-phosphoryl]oxy-oxido-phosphoryl] hydrogen phosphate
   45    47     1     0     0
SMALL
USER_CHARGES

@<TRIPOS>ATOM
      1 PG         -0.6876    0.9397    6.3483 P.3       1 ATP         1.5414
      2 O1G        -0.1894   -0.4870    6.4094 O.co2     1 ATP        -0.8562
      3 O2G        -1.4224    1.5575    7.5170 O.co2     1 ATP        -0.8562
      4 O3G         0.5645    1.9095    5.9511 O.3       1 ATP        -0.7907
      5 PB         -3.0227    0.4841    4.5870 P.3       1 ATP         1.6574
      6 O1B        -2.8478   -1.0066    4.3997 O.co2     1 ATP        -0.8530
      7 O2B        -4.0844    1.0345    5.5131 O.co2     1 ATP        -0.8530
      8 O3B        -1.5822    1.1302    4.9985 O.3       1 ATP        -0.8003
      9 PA         -3.2760    2.7242    2.6690 P.3       1 ATP         1.7415
     10 O1A        -4.0714    3.5946    3.5982 O.2       1 ATP        -0.8661
     11 O2A        -3.8642    2.6452    1.1638 O.3       1 ATP        -0.8077
     12 O3A        -3.1998    1.1719    3.1176 O.3       1 ATP        -0.7685
     13 O5'        -1.7334    3.1724    2.4743 O.3       1 ATP        -0.5590
     14 C5'        -0.8811    2.4285    1.6206 C.3       1 ATP         0.1960
     15 C4'        -0.1994    1.3333    2.4288 C.3       1 ATP         0.0976
     16 O4'        -1.1285    0.2356    2.5840 O.3       1 ATP        -0.3865
     17 C3'         1.0324    0.7610    1.7344 C.3       1 ATP         0.0901
     18 O3'         1.9175    0.2377    2.7247 O.3       1 ATP        -0.5889
     19 C2'         0.4468   -0.3802    0.9263 C.3       1 ATP         0.0574
     20 O2'         1.3993   -1.3703    0.5961 O.3       1 ATP        -0.5923
     21 C1'        -0.6159   -0.9100    1.8769 C.3       1 ATP         0.2452
     22 N9         -1.7127   -1.6108    1.2130 N.pl3     1 ATP        -0.1834
     23 C8         -2.5485   -1.0808    0.2609 C.ar      1 ATP         0.4338
     24 N7         -3.4476   -1.9486   -0.1593 N.2       1 ATP        -0.6101
     25 C5         -3.1762   -3.0816    0.5530 C.ar      1 ATP         0.2154
     26 C6         -3.8510   -4.3579    0.5006 C.ar      1 ATP         0.6130
     27 N6         -4.8468   -4.5293   -0.2961 N.2       1 ATP        -0.8165
     28 N1         -3.2499   -5.2342    1.3937 N.pl3     1 ATP        -0.8617
     29 C2         -2.1646   -4.9275    2.2116 C.ar      1 ATP         0.6151
     30 N3         -1.5382   -3.7840    2.2778 N.2       1 ATP        -0.5797
     31 C4         -2.1054   -2.9018    1.4120 C.ar      1 ATP         0.0328
     32 HOG3        0.4011    2.8735    5.8711 H         1 ATP         0.4197
     33 HOA2       -3.9412    3.4715    0.6408 H         1 ATP         0.4550
     34 H5'1       -1.4795    1.9922    0.8142 H         1 ATP         0.0431
     35 H5'2       -0.1362    3.1035    1.1868 H         1 ATP         0.0431
     36 H4'         0.0402    1.7079    3.4342 H         1 ATP         0.1325
     37 H3'         1.5907    1.4859    1.1353 H         1 ATP         0.0782
     38 HO3'        2.6839   -0.1150    2.2479 H         1 ATP         0.4062
     39 H2'        -0.0017    0.0018    0.0005 H         1 ATP         0.0689
     40 HO2'        2.0953   -0.9375    0.0709 H         1 ATP         0.4089
     41 H1'        -0.1998   -1.6319    2.6178 H         1 ATP         0.1098
     42 H8         -2.4515   -0.0599   -0.0829 H         1 ATP         0.0929
     43 HN62       -5.1990   -5.4882   -0.2005 H         1 ATP         0.3678
     44 H2         -1.8555   -5.7783    2.8388 H         1 ATP         0.0383
     45 H45        -3.6312   -6.1750    1.4526 H         1 ATP         0.4286
@<TRIPOS>BOND
     1    1    2 2
     2    1    3 1
     3    1    4 1
     4    1    8 1
     5    4   32 1
     6    5    6 2
     7    5    7 1
     8    5    8 1
     9    5   12 1
    10    9   10 2
    11    9   11 1
    12    9   12 1
    13    9   13 1
    14   11   33 1
    15   13   14 1
    16   14   15 1
    17   14   34 1
    18   14   35 1
    19   15   16 1
    20   15   17 1
    21   15   36 1
    22   16   21 1
    23   17   18 1
    24   17   19 1
    25   17   37 1
    26   18   38 1
    27   19   20 1
    28   19   21 1
    29   19   39 1
    30   20   40 1
    31   21   22 1
    32   21   41 1
    33   22   23 ar
    34   22   31 ar
    35   23   24 ar
    36   23   42 1
    37   24   25 ar
    38   25   26 ar
    39   25   31 ar
    40   26   27 2
    41   26   28 ar
    42   27   43 1
    43   28   29 ar
    44   28   45 1
    45   29   30 ar
    46   29   44 1
    47   30   31 ar
@<TRIPOS>SUBSTRUCTURE
     1 ATP         1 GROUP 0 A     ****
@<TRIPOS>MOLECULE
[[[3,4-dihydroxy-5-(6-imino-1~{H}-purin-9-yl)tetrahydrofuran-2-yl]methoxy-hydroxy-phosphoryl]oxy-oxido-phosphoryl] hydrogen phosphate
   45    47     1     0     0
SMALL
USER_CHARGES

@<TRIPOS>ATOM
      1 PG          4.8800    0.2043   -4.3246 P.3       1 ATP         1.5414
      2 O1G         4.1520    0.0785   -3.0048 O.co2     1 ATP        -0.8562
      3 O2G         6.1347   -0.5941   -4.5996 O.co2     1 ATP        -0.8562
      4 O3G         3.8154   -0.0695   -5.5320 O.3       1 ATP        -0.7907
      5 PB          6.1591    2.8293   -3.8395 P.3       1 ATP         1.6574
      6 O1B         7.5432    2.2253   -3.7546 O.co2     1 ATP        -0.8530
      7 O2B         5.9451    4.2112   -4.4158 O.co2     1 ATP        -0.8530
      8 O3B         5.1795    1.7805   -4.6154 O.3       1 ATP        -0.8003
      9 PA          5.8506    3.5249   -0.9791 P.3       1 ATP         1.7415
     10 O1A         6.2523    4.9605   -1.1558 O.2       1 ATP        -0.8661
     11 O2A         7.0027    2.5847   -0.3414 O.3       1 ATP        -0.8077
     12 O3A         5.4767    2.7667   -2.3582 O.3       1 ATP        -0.7685
     13 O5'         4.5673    3.2930   -0.0211 O.3       1 ATP        -0.5590
     14 C5'         4.0922    1.9801    0.2227 C.3       1 ATP         0.1960
     15 C4'         2.5944    2.0310    0.4653 C.3       1 ATP         0.0976
     16 O4'         1.9327    2.5740   -0.6889 O.3       1 ATP        -0.3865
     17 C3'         1.9685    0.6634    0.6767 C.3       1 ATP         0.0901
     18 O3'         2.1425    0.1975    1.9977 O.3       1 ATP        -0.5889
     19 C2'         0.5176    0.9128    0.3099 C.3       1 ATP         0.0574
     20 O2'        -0.2103    1.4454    1.4152 O.3       1 ATP        -0.5923
     21 C1'         0.6219    1.9765   -0.7844 C.3       1 ATP         0.2452
     22 N9          0.4237    1.4496   -2.1357 N.pl3     1 ATP        -0.1834
     23 C8          1.4069    0.9710   -2.9662 C.ar      1 ATP         0.4338
     24 N7          0.9316    0.5623   -4.1260 N.2       1 ATP        -0.6101
     25 C5         -0.4120    0.7884   -4.0344 C.ar      1 ATP         0.2154
     26 C6         -1.4353    0.5283   -5.0204 C.ar      1 ATP         0.6130
     27 N6         -1.1199    0.0176   -6.1586 N.2       1 ATP        -0.8165
     28 N1         -2.6704    0.9095   -4.5147 N.pl3     1 ATP        -0.8617
     29 C2         -2.8863    1.4571   -3.2520 C.ar      1 ATP         0.6151
     30 N3         -1.9805    1.7017   -2.3442 N.2       1 ATP        -0.5797
     31 C4         -0.7561    1.3381   -2.8112 C.ar      1 ATP         0.0328
     32 HOG3        4.1374   -0.0237   -6.4575 H         1 ATP         0.4197
     33 HOA2        7.8561    2.4926   -0.8161 H         1 ATP         0.4550
     34 H5'1        4.3175    1.3541   -0.6468 H         1 ATP         0.0431
     35 H5'2        4.6079    1.5730    1.0985 H         1 ATP         0.0431
     36 H4'         2.3752    2.7029    1.3156 H         1 ATP         0.1325
     37 H3'         2.4336   -0.1217   -0.0016 H         1 ATP         0.0782
     38 HO3'        3.0987    0.1465    2.1461 H         1 ATP         0.4062
     39 H2'         0.0316    0.0155   -0.0339 H         1 ATP         0.0689
     40 HO2'       -1.1270    1.5823    1.1180 H         1 ATP         0.4089
     41 H1'        -0.1474    2.7798   -0.6651 H         1 ATP         0.1098
     42 H8          2.4466    0.9468   -2.6694 H         1 ATP         0.0929
     43 HN62       -1.9661   -0.0965   -6.7275 H         1 ATP         0.3678
     44 H2         -3.9481    1.6825   -3.0660 H         1 ATP         0.0383
     45 H45        -3.4814    0.7753   -5.1133 H         1 ATP         0.4286
@<TRIPOS>BOND
     1    1    2 2
     2    1    3 1
     3    1    4 1
     4    1    8 1
     5    4   32 1
     6    5    6 2
     7    5    7 1
     8    5    8 1
     9    5   12 1
    10    9   10 2
    11    9   11 1
    12    9   12 1
    13    9   13 1
    14   11   33 1
    15   13   14 1
    16   14   15 1
    17   14   34 1
    18   14   35 1
    19   15   16 1
    20   15   17 1
    21   15   36 1
    22   16   21 1
    23   17   18 1
    24   17   19 1
    25   17   37 1
    26   18   38 1
    27   19   20 1
    28   19   21 1
    29   19   39 1
    30   20   40 1
    31   21   22 1
    32   21   41 1
    33   22   23 ar
    34   22   31 ar
    35   23   24 ar
    36   23   42 1
    37   24   25 ar
    38   25   26 ar
    39   25   31 ar
    40   26   27 2
    41   26   28 ar
    42   27   43 1
    43   28   29 ar
    44   28   45 1
    45   29   30 ar
    46   29   44 1
    47   30   31 ar
@<TRIPOS>SUBSTRUCTURE
     1 ATP         1 GROUP 0 A     ****
@<TRIPOS>MOLECULE
[[[3,4-dihydroxy-5-(6-imino-1~{H}-purin-9-yl)tetrahydrofuran-2-yl]methoxy-hydroxy-phosphoryl]oxy-oxido-phosphoryl] hydrogen phosphate
   45    47     1     0     0
SMALL
USER_CHARGES

@<TRIPOS>ATOM
      1 PG         -0.0874    1.6007    6.2244 P.3       1 ATP         1.5414
      2 O1G         0.5992    0.3193    5.8073 O.co2     1 ATP        -0.8562
      3 O2G        -1.4144    2.0039    5.6210 O.co2     1 ATP        -0.8562
      4 O3G        -0.2341    1.6046    7.8507 O.3       1 ATP        -0.7907
      5 PB          1.6348    3.4928    4.7358 P.3       1 ATP         1.6574
      6 O1B         2.4062    4.7295    5.1399 O.co2     1 ATP        -0.8530
      7 O2B         2.2911    2.3921    3.9323 O.co2     1 ATP        -0.8530
      8 O3B         0.9633    2.8381    6.0707 O.3       1 ATP        -0.8003
      9 PA          0.0493    4.7068    2.5510 P.3       1 ATP         1.7415
     10 O1A         1.0439    5.7943    2.2646 O.2       1 ATP        -0.8661
     11 O2A        -1.4849    5.2135    2.6372 O.3       1 ATP        -0.8077
     12 O3A         0.2724    3.9615    3.9692 O.3       1 ATP        -0.7685
     13 O5'         0.0171    3.5129    1.4593 O.3       1 ATP        -0.5590
     14 C5'        -0.8811    2.4285    1.6206 C.3       1 ATP         0.1960
     15 C4'        -0.1994    1.3333    2.4288 C.3       1 ATP         0.0976
     16 O4'        -1.1285    0.2356    2.5840 O.3       1 ATP        -0.3865
     17 C3'         1.0324    0.7610    1.7344 C.3       1 ATP         0.0901
     18 O3'         1.9175    0.2377    2.7247 O.3       1 ATP        -0.5889
     19 C2'         0.4468   -0.3802    0.9263 C.3       1 ATP         0.0574
     20 O2'         1.3993   -1.3703    0.5961 O.3       1 ATP        -0.5923
     21 C1'        -0.6159   -0.9100    1.8769 C.3       1 ATP         0.2452
     22 N9         -1.7127   -1.6108    1.2130 N.pl3     1 ATP        -0.1834
     23 C8         -2.0868   -2.9137    1.4327 C.ar      1 ATP         0.4338
     24 N7         -3.1125   -3.2756    0.6878 N.2       1 ATP        -0.6101
     25 C5         -3.4079   -2.1580   -0.0391 C.ar      1 ATP         0.2154
     26 C6         -4.4483   -1.9775   -1.0249 C.ar      1 ATP         0.6130
     27 N6         -5.2418   -2.9492   -1.3113 N.2       1 ATP        -0.8165
     28 N1         -4.3937   -0.6823   -1.5211 N.pl3     1 ATP        -0.8617
     29 C2         -3.4770    0.2901   -1.1271 C.ar      1 ATP         0.6151
     30 N3         -2.5289    0.1525   -0.2402 N.2       1 ATP        -0.5797
     31 C4         -2.5564   -1.1096    0.2655 C.ar      1 ATP         0.0328
     32 HOG3       -0.6632    2.3760    8.2787 H         1 ATP         0.4197
     33 HOA2       -1.7259    5.8827    3.3127 H         1 ATP         0.4550
     34 H5'1       -1.7775    2.7843    2.1389 H         1 ATP         0.0431
     35 H5'2       -1.1658    2.0534    0.6322 H         1 ATP         0.0431
     36 H4'         0.0402    1.7079    3.4342 H         1 ATP         0.1325
     37 H3'         1.5907    1.4859    1.1353 H         1 ATP         0.0782
     38 HO3'        2.1521    0.9800    3.3017 H         1 ATP         0.4062
     39 H2'        -0.0017    0.0018    0.0005 H         1 ATP         0.0689
     40 HO2'        2.0953   -0.9375    0.0709 H         1 ATP         0.4089
     41 H1'        -0.1998   -1.6319    2.6178 H         1 ATP         0.1098
     42 H8         -1.5740   -3.5449    2.1457 H         1 ATP         0.0929
     43 HN62       -5.9117   -2.6433   -2.0256 H         1 ATP         0.3678
     44 H2         -3.6225    1.2454   -1.6553 H         1 ATP         0.0383
     45 H45        -5.0794   -0.4231   -2.2258 H         1 ATP         0.4286
@<TRIPOS>BOND
     1    1    2 2
     2    1    3 1
     3    1    4 1
     4    1    8 1
     5    4   32 1
     6    5    6 2
     7    5    7 1
     8    5    8 1
     9    5   12 1
    10    9   10 2
    11    9   11 1
    12    9   12 1
    13    9   13 1
    14   11   33 1
    15   13   14 1
    16   14   15 1
    17   14   34 1
    18   14   35 1
    19   15   16 1
    20   15   17 1
    21   15   36 1
    22   16   21 1
    23   17   18 1
    24   17   19 1
    25   17   37 1
    26   18   38 1
    27   19   20 1
    28   19   21 1
    29   19   39 1
    30   20   40 1
    31   21   22 1
    32   21   41 1
    33   22   23 ar
    34   22   31 ar
    35   23   24 ar
    36   23   42 1
    37   24   25 ar
    38   25   26 ar
    39   25   31 ar
    40   26   27 2
    41   26   28 ar
    42   27   43 1
    43   28   29 ar
    44   28   45 1
    45   29   30 ar
    46   29   44 1
    47   30   31 ar
@<TRIPOS>SUBSTRUCTURE
     1 ATP         1 GROUP 0 A     ****
@<TRIPOS>MOLECULE
[[[3,4-dihydroxy-5-(6-imino-1~{H}-purin-9-yl)tetrahydrofuran-2-yl]methoxy-hydroxy-phosphoryl]oxy-oxido-phosphoryl] hydrogen phosphate
   45    47     1     0     0
SMALL
USER_CHARGES

@<TRIPOS>ATOM
      1 PG         -3.8524   -2.7320    4.1834 P.3       1 ATP         1.5414
      2 O1G        -2.6189   -3.4635    4.6640 O.co2     1 ATP        -0.8562
      3 O2G        -4.7244   -3.3117    3.0920 O.co2     1 ATP        -0.8562
      4 O3G        -4.7925   -2.3963    5.4756 O.3       1 ATP        -0.7907
      5 PB         -4.3720    0.0599    3.3482 P.3       1 ATP         1.6574
      6 O1B        -5.0129   -0.2439    2.0123 O.co2     1 ATP        -0.8530
      7 O2B        -5.2084    0.4742    4.5383 O.co2     1 ATP        -0.8530
      8 O3B        -3.4392   -1.2074    3.7789 O.3       1 ATP        -0.8003
      9 PA         -3.2760    2.7242    2.6690 P.3       1 ATP         1.7415
     10 O1A        -4.0714    3.5946    3.5982 O.2       1 ATP        -0.8661
     11 O2A        -3.8642    2.6452    1.1638 O.3       1 ATP        -0.8077
     12 O3A        -3.1998    1.1719    3.1176 O.3       1 ATP        -0.7685
     13 O5'        -1.7334    3.1724    2.4743 O.3       1 ATP        -0.5590
     14 C5'        -0.8811    2.4285    1.6206 C.3       1 ATP         0.1960
     15 C4'        -0.1994    1.3333    2.4288 C.3       1 ATP         0.0976
     16 O4'        -1.1285    0.2356    2.5840 O.3       1 ATP        -0.3865
     17 C3'         1.0324    0.7610    1.7344 C.3       1 ATP         0.0901
     18 O3'         1.9175    0.2377    2.7247 O.3       1 ATP        -0.5889
     19 C2'         0.4468   -0.3802    0.9263 C.3       1 ATP         0.0574
     20 O2'         1.3993   -1.3703    0.5961 O.3       1 ATP        -0.5923
     21 C1'        -0.6159   -0.9100    1.8769 C.3       1 ATP         0.2452
     22 N9         -1.7127   -1.6108    1.2130 N.pl3     1 ATP        -0.1834
     23 C8         -2.5485   -1.0808    0.2609 C.ar      1 ATP         0.4338
     24 N7         -3.4476   -1.9486   -0.1593 N.2       1 ATP        -0.6101
     25 C5         -3.1762   -3.0816    0.5530 C.ar      1 ATP         0.2154
     26 C6         -3.8510   -4.3579    0.5006 C.ar      1 ATP         0.6130
     27 N6         -4.8468   -4.5293   -0.2961 N.2       1 ATP        -0.8165
     28 N1         -3.2499   -5.2342    1.3937 N.pl3     1 ATP        -0.8617
     29 C2         -2.1646   -4.9275    2.2116 C.ar      1 ATP         0.6151
     30 N3         -1.5382   -3.7840    2.2778 N.2       1 ATP        -0.5797
     31 C4         -2.1054   -2.9018    1.4120 C.ar      1 ATP         0.0328
     32 HOG3       -5.6369   -1.9196    5.3271 H         1 ATP         0.4197
     33 HOA2       -4.7721    2.2999    1.0270 H         1 ATP         0.4550
     34 H5'1       -1.4795    1.9922    0.8142 H         1 ATP         0.0431
     35 H5'2       -0.1362    3.1035    1.1868 H         1 ATP         0.0431
     36 H4'         0.0402    1.7079    3.4342 H         1 ATP         0.1325
     37 H3'         1.5907    1.4859    1.1353 H         1 ATP         0.0782
     38 HO3'        2.6839   -0.1150    2.2479 H         1 ATP         0.4062
     39 H2'        -0.0017    0.0018    0.0005 H         1 ATP         0.0689
     40 HO2'        0.9369   -2.0558    0.0825 H         1 ATP         0.4089
     41 H1'        -0.1998   -1.6319    2.6178 H         1 ATP         0.1098
     42 H8         -2.4515   -0.0599   -0.0829 H         1 ATP         0.0929
     43 HN62       -5.1990   -5.4882   -0.2005 H         1 ATP         0.3678
     44 H2         -1.8555   -5.7783    2.8388 H         1 ATP         0.0383
     45 H45        -3.6312   -6.1750    1.4526 H         1 ATP         0.4286
@<TRIPOS>BOND
     1    1    2 2
     2    1    3 1
     3    1    4 1
     4    1    8 1
     5    4   32 1
     6    5    6 2
     7    5    7 1
     8    5    8 1
     9    5   12 1
    10    9   10 2
    11    9   11 1
    12    9   12 1
    13    9   13 1
    14   11   33 1
    15   13   14 1
    16   14   15 1
    17   14   34 1
    18   14   35 1
    19   15   16 1
    20   15   17 1
    21   15   36 1
    22   16   21 1
    23   17   18 1
    24   17   19 1
    25   17   37 1
    26   18   38 1
    27   19   20 1
    28   19   21 1
    29   19   39 1
    30   20   40 1
    31   21   22 1
    32   21   41 1
    33   22   23 ar
    34   22   31 ar
    35   23   24 ar
    36   23   42 1
    37   24   25 ar
    38   25   26 ar
    39   25   31 ar
    40   26   27 2
    41   26   28 ar
    42   27   43 1
    43   28   29 ar
    44   28   45 1
    45   29   30 ar
    46   29   44 1
    47   30   31 ar
@<TRIPOS>SUBSTRUCTURE
     1 ATP         1 GROUP 0 A     ****
@<TRIPOS>MOLECULE
[[[3,4-dihydroxy-5-(6-imino-1~{H}-purin-9-yl)tetrahydrofuran-2-yl]methoxy-hydroxy-phosphoryl]oxy-oxido-phosphoryl] hydrogen phosphate
   45    47     1     0     0
SMALL
USER_CHARGES

@<TRIPOS>ATOM
      1 PG         -0.6876    0.9397    6.3483 P.3       1 ATP         1.5414
      2 O1G        -0.1894   -0.4870    6.4094 O.co2     1 ATP        -0.8562
      3 O2G        -1.4224    1.5575    7.5170 O.co2     1 ATP        -0.8562
      4 O3G         0.5645    1.9095    5.9511 O.3       1 ATP        -0.7907
      5 PB         -3.0227    0.4841    4.5870 P.3       1 ATP         1.6574
      6 O1B        -2.8478   -1.0066    4.3997 O.co2     1 ATP        -0.8530
      7 O2B        -4.0844    1.0345    5.5131 O.co2     1 ATP        -0.8530
      8 O3B        -1.5822    1.1302    4.9985 O.3       1 ATP        -0.8003
      9 PA         -3.2760    2.7242    2.6690 P.3       1 ATP         1.7415
     10 O1A        -4.0714    3.5946    3.5982 O.2       1 ATP        -0.8661
     11 O2A        -3.8642    2.6452    1.1638 O.3       1 ATP        -0.8077
     12 O3A        -3.1998    1.1719    3.1176 O.3       1 ATP        -0.7685
     13 O5'        -1.7334    3.1724    2.4743 O.3       1 ATP        -0.5590
     14 C5'        -0.8811    2.4285    1.6206 C.3       1 ATP         0.1960
     15 C4'        -0.1994    1.3333    2.4288 C.3       1 ATP         0.0976
     16 O4'        -1.1285    0.2356    2.5840 O.3       1 ATP        -0.3865
     17 C3'         1.0324    0.7610    1.7344 C.3       1 ATP         0.0901
     18 O3'         1.9175    0.2377    2.7247 O.3       1 ATP        -0.5889
     19 C2'         0.4468   -0.3802    0.9263 C.3       1 ATP         0.0574
     20 O2'         1.3993   -1.3703    0.5961 O.3       1 ATP        -0.5923
     21 C1'        -0.6159   -0.9100    1.8769 C.3       1 ATP         0.2452
     22 N9         -1.7127   -1.6108    1.2130 N.pl3     1 ATP        -0.1834
     23 C8         -2.0868   -2.9137    1.4327 C.ar      1 ATP         0.4338
     24 N7         -3.1125   -3.2756    0.6878 N.2       1 ATP        -0.6101
     25 C5         -3.4079   -2.1580   -0.0391 C.ar      1 ATP         0.2154
     26 C6         -4.4483   -1.9775   -1.0249 C.ar      1 ATP         0.6130
     27 N6         -5.2418   -2.9492   -1.3113 N.2       1 ATP        -0.8165
     28 N1         -4.3937   -0.6823   -1.5211 N.pl3     1 ATP        -0.8617
     29 C2         -3.4770    0.2901   -1.1271 C.ar      1 ATP         0.6151
     30 N3         -2.5289    0.1525   -0.2402 N.2       1 ATP        -0.5797
     31 C4         -2.5564   -1.1096    0.2655 C.ar      1 ATP         0.0328
     32 HOG3        0.4011    2.8735    5.8711 H         1 ATP         0.4197
     33 HOA2       -3.9412    3.4715    0.6408 H         1 ATP         0.4550
     34 H5'1       -1.4795    1.9922    0.8142 H         1 ATP         0.0431
     35 H5'2       -0.1362    3.1035    1.1868 H         1 ATP         0.0431
     36 H4'         0.0402    1.7079    3.4342 H         1 ATP         0.1325
     37 H3'         1.5907    1.4859    1.1353 H         1 ATP         0.0782
     38 HO3'        2.6839   -0.1150    2.2479 H         1 ATP         0.4062
     39 H2'        -0.0017    0.0018    0.0005 H         1 ATP         0.0689
     40 HO2'        2.0953   -0.9375    0.0709 H         1 ATP         0.4089
     41 H1'        -0.1998   -1.6319    2.6178 H         1 ATP         0.1098
     42 H8         -1.5740   -3.5449    2.1457 H         1 ATP         0.0929
     43 HN62       -5.9117   -2.6433   -2.0256 H         1 ATP         0.3678
     44 H2         -3.6225    1.2454   -1.6553 H         1 ATP         0.0383
     45 H45        -5.0794   -0.4231   -2.2258 H         1 ATP         0.4286
@<TRIPOS>BOND
     1    1    2 2
     2    1    3 1
     3    1    4 1
     4    1    8 1
     5    4   32 1
     6    5    6 2
     7    5    7 1
     8    5    8 1
     9    5   12 1
    10    9   10 2
    11    9   11 1
    12    9   12 1
    13    9   13 1
    14   11   33 1
    15   13   14 1
    16   14   15 1
    17   14   34 1
    18   14   35 1
    19   15   16 1
    20   15   17 1
    21   15   36 1
    22   16   21 1
    23   17   18 1
    24   17   19 1
    25   17   37 1
    26   18   38 1
    27   19   20 1
    28   19   21 1
    29   19   39 1
    30   20   40 1
    31   21   22 1
    32   21   41 1
    33   22   23 ar
    34   22   31 ar
    35   23   24 ar
    36   23   42 1
    37   24   25 ar
    38   25   26 ar
    39   25   31 ar
    40   26   27 2
    41   26   28 ar
    42   27   43 1
    43   28   29 ar
    44   28   45 1
    45   29   30 ar
    46   29   44 1
    47   30   31 ar
@<TRIPOS>SUBSTRUCTURE
     1 ATP         1 GROUP 0 A     ****
@<TRIPOS>MOLECULE
[[[3,4-dihydroxy-5-(6-imino-1~{H}-purin-9-yl)tetrahydrofuran-2-yl]methoxy-hydroxy-phosphoryl]oxy-oxido-phosphoryl] hydrogen phosphate
   45    47     1     0     0
SMALL
USER_CHARGES

@<TRIPOS>ATOM
      1 PG         -6.7961    1.3857    3.7242 P.3       1 ATP         1.5414
      2 O1G        -6.0983    0.6538    4.8488 O.co2     1 ATP        -0.8562
      3 O2G        -7.8463    0.6966    2.8817 O.co2     1 ATP        -0.8562
      4 O3G        -7.4326    2.7661    4.3203 O.3       1 ATP        -0.7907
      5 PB         -4.5838    1.3232    1.7585 P.3       1 ATP         1.6574
      6 O1B        -3.5757    0.5852    2.6110 O.co2     1 ATP        -0.8530
      7 O2B        -5.3250    0.6205    0.6429 O.co2     1 ATP        -0.8530
      8 O3B        -5.6719    2.0395    2.7407 O.3       1 ATP        -0.8003
      9 PA         -3.0705    3.8640    1.8808 P.3       1 ATP         1.7415
     10 O1A        -3.8861    4.6226    2.8874 O.2       1 ATP        -0.8661
     11 O2A        -2.5428    4.7593    0.6407 O.3       1 ATP        -0.8077
     12 O3A        -3.8686    2.6596    1.1535 O.3       1 ATP        -0.7685
     13 O5'        -1.7334    3.1724    2.4743 O.3       1 ATP        -0.5590
     14 C5'        -0.8811    2.4285    1.6206 C.3       1 ATP         0.1960
     15 C4'        -0.1994    1.3333    2.4288 C.3       1 ATP         0.0976
     16 O4'        -1.1285    0.2356    2.5840 O.3       1 ATP        -0.3865
     17 C3'         1.0324    0.7610    1.7344 C.3       1 ATP         0.0901
     18 O3'         1.9175    0.2377    2.7247 O.3       1 ATP        -0.5889
     19 C2'         0.4468   -0.3802    0.9263 C.3       1 ATP         0.0574
     20 O2'         1.3993   -1.3703    0.5961 O.3       1 ATP        -0.5923
     21 C1'        -0.6159   -0.9100    1.8769 C.3       1 ATP         0.2452
     22 N9         -1.7127   -1.6108    1.2130 N.pl3     1 ATP        -0.1834
     23 C8         -2.0868   -2.9137    1.4327 C.ar      1 ATP         0.4338
     24 N7         -3.1125   -3.2756    0.6878 N.2       1 ATP        -0.6101
     25 C5         -3.4079   -2.1580   -0.0391 C.ar      1 ATP         0.2154
     26 C6         -4.4483   -1.9775   -1.0249 C.ar      1 ATP         0.6130
     27 N6         -5.2418   -2.9492   -1.3113 N.2       1 ATP        -0.8165
     28 N1         -4.3937   -0.6823   -1.5211 N.pl3     1 ATP        -0.8617
     29 C2         -3.4770    0.2901   -1.1271 C.ar      1 ATP         0.6151
     30 N3         -2.5289    0.1525   -0.2402 N.2       1 ATP        -0.5797
     31 C4         -2.5564   -1.1096    0.2655 C.ar      1 ATP         0.0328
     32 HOG3       -7.9218    3.3568    3.7086 H         1 ATP         0.4197
     33 HOA2       -1.9622    5.5283    0.8243 H         1 ATP         0.4550
     34 H5'1       -1.4795    1.9922    0.8142 H         1 ATP         0.0431
     35 H5'2       -0.1362    3.1035    1.1868 H         1 ATP         0.0431
     36 H4'         0.0402    1.7079    3.4342 H         1 ATP         0.1325
     37 H3'         1.5907    1.4859    1.1353 H         1 ATP         0.0782
     38 HO3'        2.6839   -0.1150    2.2479 H         1 ATP         0.4062
     39 H2'        -0.0017    0.0018    0.0005 H         1 ATP         0.0689
     40 HO2'        0.9369   -2.0558    0.0825 H         1 ATP         0.4089
     41 H1'        -0.1998   -1.6319    2.6178 H         1 ATP         0.1098
     42 H8         -1.5740   -3.5449    2.1457 H         1 ATP         0.0929
     43 HN62       -5.9117   -2.6433   -2.0256 H         1 ATP         0.3678
     44 H2         -3.6225    1.2454   -1.6553 H         1 ATP         0.0383
     45 H45        -5.0794   -0.4231   -2.2258 H         1 ATP         0.4286
@<TRIPOS>BOND
     1    1    2 2
     2    1    3 1
     3    1    4 1
     4    1    8 1
     5    4   32 1
     6    5    6 2
     7    5    7 1
     8    5    8 1
     9    5   12 1
    10    9   10 2
    11    9   11 1
    12    9   12 1
    13    9   13 1
    14   11   33 1
    15   13   14 1
    16   14   15 1
    17   14   34 1
    18   14   35 1
    19   15   16 1
    20   15   17 1
    21   15   36 1
    22   16   21 1
    23   17   18 1
    24   17   19 1
    25   17   37 1
    26   18   38 1
    27   19   20 1
    28   19   21 1
    29   19   39 1
    30   20   40 1
    31   21   22 1
    32   21   41 1
    33   22   23 ar
    34   22   31 ar
    35   23   24 ar
    36   23   42 1
    37   24   25 ar
    38   25   26 ar
    39   25   31 ar
    40   26   27 2
    41   26   28 ar
    42   27   43 1
    43   28   29 ar
    44   28   45 1
    45   29   30 ar
    46   29   44 1
    47   30   31 ar
@<TRIPOS>SUBSTRUCTURE
     1 ATP         1 GROUP 0 A     ****
@<TRIPOS>MOLECULE
[[[3,4-dihydroxy-5-(6-imino-1~{H}-purin-9-yl)tetrahydrofuran-2-yl]methoxy-hydroxy-phosphoryl]oxy-oxido-phosphoryl] hydrogen phosphate
   45    47     1     0     0
SMALL
USER_CHARGES

@<TRIPOS>ATOM
      1 PG         -2.4044   -1.3795    5.0273 P.3       1 ATP         1.5414
      2 O1G        -3.1901   -1.3772    6.3197 O.co2     1 ATP        -0.8562
      3 O2G        -1.2328   -0.4441    4.8279 O.co2     1 ATP        -0.8562
      4 O3G        -1.9078   -2.9053    4.7251 O.3       1 ATP        -0.7907
      5 PB         -4.3720    0.0599    3.3482 P.3       1 ATP         1.6574
      6 O1B        -5.0129   -0.2439    2.0123 O.co2     1 ATP        -0.8530
      7 O2B        -5.2084    0.4742    4.5383 O.co2     1 ATP        -0.8530
      8 O3B        -3.4392   -1.2074    3.7789 O.3       1 ATP        -0.8003
      9 PA         -3.2760    2.7242    2.6690 P.3       1 ATP         1.7415
     10 O1A        -4.0714    3.5946    3.5982 O.2       1 ATP        -0.8661
     11 O2A        -3.8642    2.6452    1.1638 O.3       1 ATP        -0.8077
     12 O3A        -3.1998    1.1719    3.1176 O.3       1 ATP        -0.7685
     13 O5'        -1.7334    3.1724    2.4743 O.3       1 ATP        -0.5590
     14 C5'        -0.8811    2.4285    1.6206 C.3       1 ATP         0.1960
     15 C4'        -0.1994    1.3333    2.4288 C.3       1 ATP         0.0976
     16 O4'        -1.1285    0.2356    2.5840 O.3       1 ATP        -0.3865
     17 C3'         1.0324    0.7610    1.7344 C.3       1 ATP         0.0901
     18 O3'         1.9175    0.2377    2.7247 O.3       1 ATP        -0.5889
     19 C2'         0.4468   -0.3802    0.9263 C.3       1 ATP         0.0574
     20 O2'         1.3993   -1.3703    0.5961 O.3       1 ATP        -0.5923
     21 C1'        -0.6159   -0.9100    1.8769 C.3       1 ATP         0.2452
     22 N9         -1.7127   -1.6108    1.2130 N.pl3     1 ATP        -0.1834
     23 C8         -2.5485   -1.0808    0.2609 C.ar      1 ATP         0.4338
     24 N7         -3.4476   -1.9486   -0.1593 N.2       1 ATP        -0.6101
     25 C5         -3.1762   -3.0816    0.5530 C.ar      1 ATP         0.2154
     26 C6         -3.8510   -4.3579    0.5006 C.ar      1 ATP         0.6130
     27 N6         -4.8468   -4.5293   -0.2961 N.2       1 ATP        -0.8165
     28 N1         -3.2499   -5.2342    1.3937 N.pl3     1 ATP        -0.8617
     29 C2         -2.1646   -4.9275    2.2116 C.ar      1 ATP         0.6151
     30 N3         -1.5382   -3.7840    2.2778 N.2       1 ATP        -0.5797
     31 C4         -2.1054   -2.9018    1.4120 C.ar      1 ATP         0.0328
     32 HOG3       -2.5873   -3.6048    4.6186 H         1 ATP         0.4197
     33 HOA2       -3.9412    3.4715    0.6408 H         1 ATP         0.4550
     34 H5'1       -1.4795    1.9922    0.8142 H         1 ATP         0.0431
     35 H5'2       -0.1362    3.1035    1.1868 H         1 ATP         0.0431
     36 H4'         0.0402    1.7079    3.4342 H         1 ATP         0.1325
     37 H3'         1.5907    1.4859    1.1353 H         1 ATP         0.0782
     38 HO3'        2.6839   -0.1150    2.2479 H         1 ATP         0.4062
     39 H2'        -0.0017    0.0018    0.0005 H         1 ATP         0.0689
     40 HO2'        2.0953   -0.9375    0.0709 H         1 ATP         0.4089
     41 H1'        -0.1998   -1.6319    2.6178 H         1 ATP         0.1098
     42 H8         -2.4515   -0.0599   -0.0829 H         1 ATP         0.0929
     43 HN62       -5.1990   -5.4882   -0.2005 H         1 ATP         0.3678
     44 H2         -1.8555   -5.7783    2.8388 H         1 ATP         0.0383
     45 H45        -3.6312   -6.1750    1.4526 H         1 ATP         0.4286
@<TRIPOS>BOND
     1    1    2 2
     2    1    3 1
     3    1    4 1
     4    1    8 1
     5    4   32 1
     6    5    6 2
     7    5    7 1
     8    5    8 1
     9    5   12 1
    10    9   10 2
    11    9   11 1
    12    9   12 1
    13    9   13 1
    14   11   33 1
    15   13   14 1
    16   14   15 1
    17   14   34 1
    18   14   35 1
    19   15   16 1
    20   15   17 1
    21   15   36 1
    22   16   21 1
    23   17   18 1
    24   17   19 1
    25   17   37 1
    26   18   38 1
    27   19   20 1
    28   19   21 1
    29   19   39 1
    30   20   40 1
    31   21   22 1
    32   21   41 1
    33   22   23 ar
    34   22   31 ar
    35   23   24 ar
    36   23   42 1
    37   24   25 ar
    38   25   26 ar
    39   25   31 ar
    40   26   27 2
    41   26   28 ar
    42   27   43 1
    43   28   29 ar
    44   28   45 1
    45   29   30 ar
    46   29   44 1
    47   30   31 ar
@<TRIPOS>SUBSTRUCTURE
     1 ATP         1 GROUP 0 A     ****
@<TRIPOS>MOLECULE
[[[3,4-dihydroxy-5-(6-imino-1~{H}-purin-9-yl)tetrahydrofuran-2-yl]methoxy-hydroxy-phosphoryl]oxy-oxido-phosphoryl] hydrogen phosphate
   45    47     1     0     0
SMALL
USER_CHARGES

@<TRIPOS>ATOM
      1 PG         -2.4044   -1.3795    5.0273 P.3       1 ATP         1.5414
      2 O1G        -3.1901   -1.3772    6.3197 O.co2     1 ATP        -0.8562
      3 O2G        -1.2328   -0.4441    4.8279 O.co2     1 ATP        -0.8562
      4 O3G        -1.9078   -2.9053    4.7251 O.3       1 ATP        -0.7907
      5 PB         -4.3720    0.0599    3.3482 P.3       1 ATP         1.6574
      6 O1B        -5.0129   -0.2439    2.0123 O.co2     1 ATP        -0.8530
      7 O2B        -5.2084    0.4742    4.5383 O.co2     1 ATP        -0.8530
      8 O3B        -3.4392   -1.2074    3.7789 O.3       1 ATP        -0.8003
      9 PA         -3.2760    2.7242    2.6690 P.3       1 ATP         1.7415
     10 O1A        -4.0714    3.5946    3.5982 O.2       1 ATP        -0.8661
     11 O2A        -3.8642    2.6452    1.1638 O.3       1 ATP        -0.8077
     12 O3A        -3.1998    1.1719    3.1176 O.3       1 ATP        -0.7685
     13 O5'        -1.7334    3.1724    2.4743 O.3       1 ATP        -0.5590
     14 C5'        -0.8811    2.4285    1.6206 C.3       1 ATP         0.1960
     15 C4'        -0.1994    1.3333    2.4288 C.3       1 ATP         0.0976
     16 O4'        -1.1285    0.2356    2.5840 O.3       1 ATP        -0.3865
     17 C3'         1.0324    0.7610    1.7344 C.3       1 ATP         0.0901
     18 O3'         1.9175    0.2377    2.7247 O.3       1 ATP        -0.5889
     19 C2'         0.4468   -0.3802    0.9263 C.3       1 ATP         0.0574
     20 O2'         1.3993   -1.3703    0.5961 O.3       1 ATP        -0.5923
     21 C1'        -0.6159   -0.9100    1.8769 C.3       1 ATP         0.2452
     22 N9         -1.7127   -1.6108    1.2130 N.pl3     1 ATP        -0.1834
     23 C8         -2.0868   -2.9137    1.4327 C.ar      1 ATP         0.4338
     24 N7         -3.1125   -3.2756    0.6878 N.2       1 ATP        -0.6101
     25 C5         -3.4079   -2.1580   -0.0391 C.ar      1 ATP         0.2154
     26 C6         -4.4483   -1.9775   -1.0249 C.ar      1 ATP         0.6130
     27 N6         -5.2418   -2.9492   -1.3113 N.2       1 ATP        -0.8165
     28 N1         -4.3937   -0.6823   -1.5211 N.pl3     1 ATP        -0.8617
     29 C2         -3.4770    0.2901   -1.1271 C.ar      1 ATP         0.6151
     30 N3         -2.5289    0.1525   -0.2402 N.2       1 ATP        -0.5797
     31 C4         -2.5564   -1.1096    0.2655 C.ar      1 ATP         0.0328
     32 HOG3       -1.3810   -3.0728    3.9147 H         1 ATP         0.4197
     33 HOA2       -3.9412    3.4715    0.6408 H         1 ATP         0.4550
     34 H5'1       -1.4795    1.9922    0.8142 H         1 ATP         0.0431
     35 H5'2       -0.1362    3.1035    1.1868 H         1 ATP         0.0431
     36 H4'         0.0402    1.7079    3.4342 H         1 ATP         0.1325
     37 H3'         1.5907    1.4859    1.1353 H         1 ATP         0.0782
     38 HO3'        2.6839   -0.1150    2.2479 H         1 ATP         0.4062
     39 H2'        -0.0017    0.0018    0.0005 H         1 ATP         0.0689
     40 HO2'        2.0953   -0.9375    0.0709 H         1 ATP         0.4089
     41 H1'        -0.1998   -1.6319    2.6178 H         1 ATP         0.1098
     42 H8         -1.5740   -3.5449    2.1457 H         1 ATP         0.0929
     43 HN62       -5.9117   -2.6433   -2.0256 H         1 ATP         0.3678
     44 H2         -3.6225    1.2454   -1.6553 H         1 ATP         0.0383
     45 H45        -5.0794   -0.4231   -2.2258 H         1 ATP         0.4286
@<TRIPOS>BOND
     1    1    2 2
     2    1    3 1
     3    1    4 1
     4    1    8 1
     5    4   32 1
     6    5    6 2
     7    5    7 1
     8    5    8 1
     9    5   12 1
    10    9   10 2
    11    9   11 1
    12    9   12 1
    13    9   13 1
    14   11   33 1
    15   13   14 1
    16   14   15 1
    17   14   34 1
    18   14   35 1
    19   15   16 1
    20   15   17 1
    21   15   36 1
    22   16   21 1
    23   17   18 1
    24   17   19 1
    25   17   37 1
    26   18   38 1
    27   19   20 1
    28   19   21 1
    29   19   39 1
    30   20   40 1
    31   21   22 1
    32   21   41 1
    33   22   23 ar
    34   22   31 ar
    35   23   24 ar
    36   23   42 1
    37   24   25 ar
    38   25   26 ar
    39   25   31 ar
    40   26   27 2
    41   26   28 ar
    42   27   43 1
    43   28   29 ar
    44   28   45 1
    45   29   30 ar
    46   29   44 1
    47   30   31 ar
@<TRIPOS>SUBSTRUCTURE
     1 ATP         1 GROUP 0 A     ****
