@<TRIPOS>MOLECULE
[5-(6-amino-7,8-dihydropurin-8-ylium-9-yl)-3,4-dihydroxy-tetrahydrofuran-2-yl]methyl [hydroxy(phosphonooxy)phosphoryl] phosphate
   47    49     1     0     0
SMALL
USER_CHARGES

@<TRIPOS>ATOM
      1 PG         -2.1295    1.4251   -3.9390 P.3       1 ATP         1.8237
      2 O1G        -1.5531    1.0326   -2.6108 O.2       1 ATP        -0.8455
      3 O2G        -2.9491    0.2526   -4.6928 O.3       1 ATP        -0.7970
      4 O3G        -3.1996    2.6363   -3.8815 O.3       1 ATP        -0.7970
      5 PB          0.1927    1.1425   -5.7158 P.3       1 ATP         1.9358
      6 O1B        -0.1464   -0.1162   -6.4583 O.2       1 ATP        -0.8836
      7 O2B         0.9030    2.2910   -6.6044 O.3       1 ATP        -0.8065
      8 O3B        -1.0617    1.9098   -5.0485 O.3       1 ATP        -0.8233
      9 PA          2.7386    0.3748   -4.4298 P.3       1 ATP         1.5686
     10 O1A         3.6399    1.3283   -5.1839 O.co2     1 ATP        -0.8169
     11 O2A         2.7068   -1.0976   -4.7776 O.co2     1 ATP        -0.8169
     12 O3A         1.2110    0.9462   -4.4771 O.3       1 ATP        -0.7987
     13 O5'         3.0197    0.5137   -2.8245 O.3       1 ATP        -0.5693
     14 C5'         2.2816   -0.2918   -1.9206 C.3       1 ATP         0.1841
     15 C4'         2.7248    0.0226   -0.4980 C.3       1 ATP         0.0904
     16 O4'         2.4697    1.4219   -0.2462 O.3       1 ATP        -0.4083
     17 C3'         1.9404   -0.7419    0.5596 C.3       1 ATP         0.0826
     18 O3'         2.7418   -0.8086    1.7389 O.3       1 ATP        -0.6106
     19 C2'         0.7477    0.1630    0.7858 C.3       1 ATP         0.1294
     20 O2'         0.1373   -0.0577    2.0407 O.3       1 ATP        -0.5701
     21 C1'         1.3733    1.5427    0.6747 C.3       1 ATP         0.3967
     22 N9          0.4520    2.5240    0.1767 N.pl3     1 ATP        -0.5600
     23 C8          0.1928    2.8484   -1.0815 C.ar      1 ATP         0.3009
     24 N7         -0.7248    3.8048   -1.2110 N.pl3     1 ATP        -0.5113
     25 C5         -1.0765    4.1129    0.0571 C.ar      1 ATP        -0.2824
     26 C6         -1.9614    5.0063    0.5851 C.ar      1 ATP         0.7670
     27 N6         -2.7145    5.8254   -0.2810 N.pl3     1 ATP        -0.9491
     28 N1         -2.1199    5.1113    1.9228 N.ar      1 ATP        -0.7474
     29 C2         -1.3522    4.2822    2.6839 C.ar      1 ATP         0.7118
     30 N3         -0.4501    3.3660    2.2638 N.ar      1 ATP        -0.6661
     31 C4         -0.3487    3.3198    0.9322 C.ar      1 ATP         0.6308
     32 HOG2       -2.4830   -0.5788   -4.9242 H         1 ATP         0.4930
     33 HOG3       -2.9120    3.5070   -3.5329 H         1 ATP         0.4930
     34 HOB2        1.7595    2.0931   -7.0395 H         1 ATP         0.4808
     35 H5'1        1.2153   -0.0781   -2.0454 H         1 ATP         0.0350
     36 H5'2        2.4645   -1.3454   -2.1547 H         1 ATP         0.0350
     37 H4'         3.8050   -0.1388   -0.4008 H         1 ATP         0.1244
     38 H3'         1.6784   -1.7629    0.2714 H         1 ATP         0.0924
     39 HO3'        2.2232   -1.2979    2.3953 H         1 ATP         0.4379
     40 H2'        -0.0011    0.0027    0.0003 H         1 ATP         0.0849
     41 HO2'       -0.6141    0.5574    2.1082 H         1 ATP         0.4417
     42 H1'         1.7826    1.9024    1.6451 H         1 ATP         0.1307
     43 H8          0.6728    2.3873   -1.9272 H         1 ATP         0.2875
     44 HN61       -3.3968    6.4465    0.1048 H         1 ATP         0.4559
     45 HN62       -2.6221    5.7051   -1.2696 H         1 ATP         0.4559
     46 H2         -1.4818    4.3694    3.7565 H         1 ATP         0.0858
     47 H47        -1.0701    4.2005   -2.0743 H         1 ATP         0.5042
@<TRIPOS>BOND
     1    1    2 2
     2    1    3 1
     3    1    4 1
     4    1    8 1
     5    3   32 1
     6    4   33 1
     7    5    6 2
     8    5    7 1
     9    5    8 1
    10    5   12 1
    11    7   34 1
    12    9   10 2
    13    9   11 1
    14    9   12 1
    15    9   13 1
    16   13   14 1
    17   14   15 1
    18   14   35 1
    19   14   36 1
    20   15   16 1
    21   15   17 1
    22   15   37 1
    23   16   21 1
    24   17   18 1
    25   17   19 1
    26   17   38 1
    27   18   39 1
    28   19   20 1
    29   19   21 1
    30   19   40 1
    31   20   41 1
    32   21   22 1
    33   21   42 1
    34   22   23 ar
    35   22   31 ar
    36   23   24 ar
    37   23   43 1
    38   24   25 ar
    39   24   47 1
    40   25   26 ar
    41   25   31 ar
    42   26   27 1
    43   26   28 ar
    44   27   44 1
    45   27   45 1
    46   28   29 ar
    47   29   30 ar
    48   29   46 1
    49   30   31 ar
@<TRIPOS>SUBSTRUCTURE
     1 ATP         1 GROUP 0 A     ****
@<TRIPOS>MOLECULE
[5-(6-amino-7,8-dihydropurin-8-ylium-9-yl)-3,4-dihydroxy-tetrahydrofuran-2-yl]methyl [hydroxy(phosphonooxy)phosphoryl] phosphate
   47    49     1     0     0
SMALL
USER_CHARGES

@<TRIPOS>ATOM
      1 PG         -2.1295    1.4251   -3.9390 P.3       1 ATP         1.8237
      2 O1G        -1.5531    1.0326   -2.6108 O.2       1 ATP        -0.8455
      3 O2G        -2.9491    0.2526   -4.6928 O.3       1 ATP        -0.7970
      4 O3G        -3.1996    2.6363   -3.8815 O.3       1 ATP        -0.7970
      5 PB          0.1927    1.1425   -5.7158 P.3       1 ATP         1.9358
      6 O1B        -0.1464   -0.1162   -6.4583 O.2       1 ATP        -0.8836
      7 O2B         0.9030    2.2910   -6.6044 O.3       1 ATP        -0.8065
      8 O3B        -1.0617    1.9098   -5.0485 O.3       1 ATP        -0.8233
      9 PA          2.7386    0.3748   -4.4298 P.3       1 ATP         1.5686
     10 O1A         3.6399    1.3283   -5.1839 O.co2     1 ATP        -0.8169
     11 O2A         2.7068   -1.0976   -4.7776 O.co2     1 ATP        -0.8169
     12 O3A         1.2110    0.9462   -4.4771 O.3       1 ATP        -0.7987
     13 O5'         3.0197    0.5137   -2.8245 O.3       1 ATP        -0.5693
     14 C5'         2.2816   -0.2918   -1.9206 C.3       1 ATP         0.1841
     15 C4'         2.7248    0.0226   -0.4980 C.3       1 ATP         0.0904
     16 O4'         2.4697    1.4219   -0.2462 O.3       1 ATP        -0.4083
     17 C3'         1.9404   -0.7419    0.5596 C.3       1 ATP         0.0826
     18 O3'         2.7418   -0.8086    1.7389 O.3       1 ATP        -0.6106
     19 C2'         0.7477    0.1630    0.7858 C.3       1 ATP         0.1294
     20 O2'         0.1373   -0.0577    2.0407 O.3       1 ATP        -0.5701
     21 C1'         1.3733    1.5427    0.6747 C.3       1 ATP         0.3967
     22 N9          0.4520    2.5240    0.1767 N.pl3     1 ATP        -0.5600
     23 C8         -0.6854    2.9365    0.7168 C.ar      1 ATP         0.3009
     24 N7         -1.3118    3.8692    0.0018 N.pl3     1 ATP        -0.5113
     25 C5         -0.5159    4.0659   -1.0727 C.ar      1 ATP        -0.2824
     26 C6         -0.6068    4.8856   -2.1589 C.ar      1 ATP         0.7670
     27 N6         -1.7186    5.7437   -2.2844 N.pl3     1 ATP        -0.9491
     28 N1          0.3541    4.8807   -3.1087 N.ar      1 ATP        -0.7474
     29 C2          1.3913    4.0207   -2.9071 C.ar      1 ATP         0.7118
     30 N3          1.5770    3.1707   -1.8715 N.ar      1 ATP        -0.6661
     31 C4          0.5883    3.2318   -0.9747 C.ar      1 ATP         0.6308
     32 HOG2       -2.4830   -0.5788   -4.9242 H         1 ATP         0.4930
     33 HOG3       -2.9120    3.5070   -3.5329 H         1 ATP         0.4930
     34 HOB2        1.7595    2.0931   -7.0395 H         1 ATP         0.4808
     35 H5'1        1.2153   -0.0781   -2.0454 H         1 ATP         0.0350
     36 H5'2        2.4645   -1.3454   -2.1547 H         1 ATP         0.0350
     37 H4'         3.8050   -0.1388   -0.4008 H         1 ATP         0.1244
     38 H3'         1.6784   -1.7629    0.2714 H         1 ATP         0.0924
     39 HO3'        2.2232   -1.2979    2.3953 H         1 ATP         0.4379
     40 H2'        -0.0011    0.0027    0.0003 H         1 ATP         0.0849
     41 HO2'       -0.1563   -0.9855    2.0596 H         1 ATP         0.4417
     42 H1'         1.7826    1.9024    1.6451 H         1 ATP         0.1307
     43 H8         -1.0749    2.5601    1.6468 H         1 ATP         0.2875
     44 HN61       -2.4460    5.7038   -1.5992 H         1 ATP         0.4559
     45 HN62       -1.8079    6.3099   -3.1040 H         1 ATP         0.4559
     46 H2          2.1601    4.0194   -3.6712 H         1 ATP         0.0858
     47 H47        -2.1877    4.3195    0.2279 H         1 ATP         0.5042
@<TRIPOS>BOND
     1    1    2 2
     2    1    3 1
     3    1    4 1
     4    1    8 1
     5    3   32 1
     6    4   33 1
     7    5    6 2
     8    5    7 1
     9    5    8 1
    10    5   12 1
    11    7   34 1
    12    9   10 2
    13    9   11 1
    14    9   12 1
    15    9   13 1
    16   13   14 1
    17   14   15 1
    18   14   35 1
    19   14   36 1
    20   15   16 1
    21   15   17 1
    22   15   37 1
    23   16   21 1
    24   17   18 1
    25   17   19 1
    26   17   38 1
    27   18   39 1
    28   19   20 1
    29   19   21 1
    30   19   40 1
    31   20   41 1
    32   21   22 1
    33   21   42 1
    34   22   23 ar
    35   22   31 ar
    36   23   24 ar
    37   23   43 1
    38   24   25 ar
    39   24   47 1
    40   25   26 ar
    41   25   31 ar
    42   26   27 1
    43   26   28 ar
    44   27   44 1
    45   27   45 1
    46   28   29 ar
    47   29   30 ar
    48   29   46 1
    49   30   31 ar
@<TRIPOS>SUBSTRUCTURE
     1 ATP         1 GROUP 0 A     ****
@<TRIPOS>MOLECULE
[5-(6-amino-7,8-dihydropurin-8-ylium-9-yl)-3,4-dihydroxy-tetrahydrofuran-2-yl]methyl [hydroxy(phosphonooxy)phosphoryl] phosphate
   47    49     1     0     0
SMALL
USER_CHARGES

@<TRIPOS>ATOM
      1 PG         -1.9409   -3.3388    0.2293 P.3       1 ATP         1.8237
      2 O1G        -0.6429   -2.9773    0.8887 O.2       1 ATP        -0.8455
      3 O2G        -2.2610   -4.9233    0.1910 O.3       1 ATP        -0.7970
      4 O3G        -3.2560   -2.7201    0.9384 O.3       1 ATP        -0.7970
      5 PB         -1.2156   -3.2698   -2.6167 P.3       1 ATP         1.9358
      6 O1B        -1.1681   -4.7313   -2.9518 O.2       1 ATP        -0.8836
      7 O2B        -1.8337   -2.3225   -3.7716 O.3       1 ATP        -0.8065
      8 O3B        -2.0900   -2.8882   -1.3138 O.3       1 ATP        -0.8233
      9 PA          1.5535   -2.4535   -3.2419 P.3       1 ATP         1.5686
     10 O1A         1.2363   -1.5482   -4.4124 O.co2     1 ATP        -0.8169
     11 O2A         2.1275   -3.8355   -3.4665 O.co2     1 ATP        -0.8169
     12 O3A         0.2209   -2.5966   -2.3113 O.3       1 ATP        -0.7987
     13 O5'         2.5237   -1.6631   -2.1889 O.3       1 ATP        -0.5693
     14 C5'         2.2816   -0.2918   -1.9206 C.3       1 ATP         0.1841
     15 C4'         2.7248    0.0226   -0.4980 C.3       1 ATP         0.0904
     16 O4'         2.4697    1.4219   -0.2462 O.3       1 ATP        -0.4083
     17 C3'         1.9404   -0.7419    0.5596 C.3       1 ATP         0.0826
     18 O3'         2.7418   -0.8086    1.7389 O.3       1 ATP        -0.6106
     19 C2'         0.7477    0.1630    0.7858 C.3       1 ATP         0.1294
     20 O2'         0.1373   -0.0577    2.0407 O.3       1 ATP        -0.5701
     21 C1'         1.3733    1.5427    0.6747 C.3       1 ATP         0.3967
     22 N9          0.4520    2.5240    0.1767 N.pl3     1 ATP        -0.5600
     23 C8          0.1928    2.8484   -1.0815 C.ar      1 ATP         0.3009
     24 N7         -0.7248    3.8048   -1.2110 N.pl3     1 ATP        -0.5113
     25 C5         -1.0765    4.1129    0.0571 C.ar      1 ATP        -0.2824
     26 C6         -1.9614    5.0063    0.5851 C.ar      1 ATP         0.7670
     27 N6         -2.7145    5.8254   -0.2810 N.pl3     1 ATP        -0.9491
     28 N1         -2.1199    5.1113    1.9228 N.ar      1 ATP        -0.7474
     29 C2         -1.3522    4.2822    2.6839 C.ar      1 ATP         0.7118
     30 N3         -0.4501    3.3660    2.2638 N.ar      1 ATP        -0.6661
     31 C4         -0.3487    3.3198    0.9322 C.ar      1 ATP         0.6308
     32 HOG2       -1.6373   -5.5223   -0.2721 H         1 ATP         0.4930
     33 HOG3       -3.3424   -1.7455    1.0094 H         1 ATP         0.4930
     34 HOB2       -1.3986   -2.2996   -4.6504 H         1 ATP         0.4808
     35 H5'1        2.8429    0.3140   -2.6391 H         1 ATP         0.0350
     36 H5'2        1.2125   -0.0906   -2.0420 H         1 ATP         0.0350
     37 H4'         3.8050   -0.1388   -0.4008 H         1 ATP         0.1244
     38 H3'         1.6784   -1.7629    0.2714 H         1 ATP         0.0924
     39 HO3'        2.2232   -1.2979    2.3953 H         1 ATP         0.4379
     40 H2'        -0.0011    0.0027    0.0003 H         1 ATP         0.0849
     41 HO2'       -0.1563   -0.9855    2.0596 H         1 ATP         0.4417
     42 H1'         1.7826    1.9024    1.6451 H         1 ATP         0.1307
     43 H8          0.6728    2.3873   -1.9272 H         1 ATP         0.2875
     44 HN61       -2.5537    5.7714   -1.2667 H         1 ATP         0.4559
     45 HN62       -3.3282    6.5126    0.1080 H         1 ATP         0.4559
     46 H2         -1.4818    4.3694    3.7565 H         1 ATP         0.0858
     47 H47        -1.0701    4.2005   -2.0743 H         1 ATP         0.5042
@<TRIPOS>BOND
     1    1    2 2
     2    1    3 1
     3    1    4 1
     4    1    8 1
     5    3   32 1
     6    4   33 1
     7    5    6 2
     8    5    7 1
     9    5    8 1
    10    5   12 1
    11    7   34 1
    12    9   10 2
    13    9   11 1
    14    9   12 1
    15    9   13 1
    16   13   14 1
    17   14   15 1
    18   14   35 1
    19   14   36 1
    20   15   16 1
    21   15   17 1
    22   15   37 1
    23   16   21 1
    24   17   18 1
    25   17   19 1
    26   17   38 1
    27   18   39 1
    28   19   20 1
    29   19   21 1
    30   19   40 1
    31   20   41 1
    32   21   22 1
    33   21   42 1
    34   22   23 ar
    35   22   31 ar
    36   23   24 ar
    37   23   43 1
    38   24   25 ar
    39   24   47 1
    40   25   26 ar
    41   25   31 ar
    42   26   27 1
    43   26   28 ar
    44   27   44 1
    45   27   45 1
    46   28   29 ar
    47   29   30 ar
    48   29   46 1
    49   30   31 ar
@<TRIPOS>SUBSTRUCTURE
     1 ATP         1 GROUP 0 A     ****
@<TRIPOS>MOLECULE
[5-(6-amino-7,8-dihydropurin-8-ylium-9-yl)-3,4-dihydroxy-tetrahydrofuran-2-yl]methyl [hydroxy(phosphonooxy)phosphoryl] phosphate
   47    49     1     0     0
SMALL
USER_CHARGES

@<TRIPOS>ATOM
      1 PG          5.6616   -3.1394   -1.4393 P.3       1 ATP         1.8237
      2 O1G         5.5498   -4.6331   -1.3564 O.2       1 ATP        -0.8455
      3 O2G         5.3290   -2.3595   -0.0624 O.3       1 ATP        -0.7970
      4 O3G         7.1345   -2.5908   -1.8201 O.3       1 ATP        -0.7970
      5 PB          4.5889   -2.5983   -4.1200 P.3       1 ATP         1.9358
      6 O1B         5.8377   -2.2739   -4.8853 O.2       1 ATP        -0.8836
      7 O2B         4.0519   -4.1127   -4.2966 O.3       1 ATP        -0.8065
      8 O3B         4.6961   -2.4251   -2.5181 O.3       1 ATP        -0.8233
      9 PA          3.0648   -0.0870   -4.4293 P.3       1 ATP         1.5686
     10 O1A         1.6239    0.2105   -4.7833 O.co2     1 ATP        -0.8169
     11 O2A         4.1983    0.5973   -5.1621 O.co2     1 ATP        -0.8169
     12 O3A         3.3035   -1.6993   -4.5064 O.3       1 ATP        -0.7987
     13 O5'         3.2883    0.1336   -2.8242 O.3       1 ATP        -0.5693
     14 C5'         2.2816   -0.2918   -1.9206 C.3       1 ATP         0.1841
     15 C4'         2.7248    0.0226   -0.4980 C.3       1 ATP         0.0904
     16 O4'         2.4697    1.4219   -0.2462 O.3       1 ATP        -0.4083
     17 C3'         1.9404   -0.7419    0.5596 C.3       1 ATP         0.0826
     18 O3'         2.7418   -0.8086    1.7389 O.3       1 ATP        -0.6106
     19 C2'         0.7477    0.1630    0.7858 C.3       1 ATP         0.1294
     20 O2'         0.1373   -0.0577    2.0407 O.3       1 ATP        -0.5701
     21 C1'         1.3733    1.5427    0.6747 C.3       1 ATP         0.3967
     22 N9          0.4520    2.5240    0.1767 N.pl3     1 ATP        -0.5600
     23 C8          0.1928    2.8484   -1.0815 C.ar      1 ATP         0.3009
     24 N7         -0.7248    3.8048   -1.2110 N.pl3     1 ATP        -0.5113
     25 C5         -1.0765    4.1129    0.0571 C.ar      1 ATP        -0.2824
     26 C6         -1.9614    5.0063    0.5851 C.ar      1 ATP         0.7670
     27 N6         -2.7145    5.8254   -0.2810 N.pl3     1 ATP        -0.9491
     28 N1         -2.1199    5.1113    1.9228 N.ar      1 ATP        -0.7474
     29 C2         -1.3522    4.2822    2.6839 C.ar      1 ATP         0.7118
     30 N3         -0.4501    3.3660    2.2638 N.ar      1 ATP        -0.6661
     31 C4         -0.3487    3.3198    0.9322 C.ar      1 ATP         0.6308
     32 HOG2        4.4399   -2.4632    0.3388 H         1 ATP         0.4930
     33 HOG3        7.5348   -2.8603   -2.6742 H         1 ATP         0.4930
     34 HOB2        4.6333   -4.8568   -4.0311 H         1 ATP         0.4808
     35 H5'1        1.3500    0.2325   -2.1560 H         1 ATP         0.0350
     36 H5'2        2.1266   -1.3683   -2.0443 H         1 ATP         0.0350
     37 H4'         3.8050   -0.1388   -0.4008 H         1 ATP         0.1244
     38 H3'         1.6784   -1.7629    0.2714 H         1 ATP         0.0924
     39 HO3'        2.2232   -1.2979    2.3953 H         1 ATP         0.4379
     40 H2'        -0.0011    0.0027    0.0003 H         1 ATP         0.0849
     41 HO2'       -0.6141    0.5574    2.1082 H         1 ATP         0.4417
     42 H1'         1.7826    1.9024    1.6451 H         1 ATP         0.1307
     43 H8          0.6728    2.3873   -1.9272 H         1 ATP         0.2875
     44 HN61       -2.5537    5.7714   -1.2667 H         1 ATP         0.4559
     45 HN62       -3.3282    6.5126    0.1080 H         1 ATP         0.4559
     46 H2         -1.4818    4.3694    3.7565 H         1 ATP         0.0858
     47 H47        -1.0701    4.2005   -2.0743 H         1 ATP         0.5042
@<TRIPOS>BOND
     1    1    2 2
     2    1    3 1
     3    1    4 1
     4    1    8 1
     5    3   32 1
     6    4   33 1
     7    5    6 2
     8    5    7 1
     9    5    8 1
    10    5   12 1
    11    7   34 1
    12    9   10 2
    13    9   11 1
    14    9   12 1
    15    9   13 1
    16   13   14 1
    17   14   15 1
    18   14   35 1
    19   14   36 1
    20   15   16 1
    21   15   17 1
    22   15   37 1
    23   16   21 1
    24   17   18 1
    25   17   19 1
    26   17   38 1
    27   18   39 1
    28   19   20 1
    29   19   21 1
    30   19   40 1
    31   20   41 1
    32   21   22 1
    33   21   42 1
    34   22   23 ar
    35   22   31 ar
    36   23   24 ar
    37   23   43 1
    38   24   25 ar
    39   24   47 1
    40   25   26 ar
    41   25   31 ar
    42   26   27 1
    43   26   28 ar
    44   27   44 1
    45   27   45 1
    46   28   29 ar
    47   29   30 ar
    48   29   46 1
    49   30   31 ar
@<TRIPOS>SUBSTRUCTURE
     1 ATP         1 GROUP 0 A     ****
@<TRIPOS>MOLECULE
[5-(6-amino-7,8-dihydropurin-8-ylium-9-yl)-3,4-dihydroxy-tetrahydrofuran-2-yl]methyl [hydroxy(phosphonooxy)phosphoryl] phosphate
   47    49     1     0     0
SMALL
USER_CHARGES

@<TRIPOS>ATOM
      1 PG         -1.1433   -0.9466   -7.2909 P.3       1 ATP         1.8237
      2 O1G        -2.5914   -0.6410   -7.0458 O.2       1 ATP        -0.8455
      3 O2G        -0.7864   -2.5224   -7.3524 O.3       1 ATP        -0.7970
      4 O3G        -0.5611   -0.3878   -8.6923 O.3       1 ATP        -0.7970
      5 PB          0.1927    1.1425   -5.7158 P.3       1 ATP         1.9358
      6 O1B         0.6805    2.0667   -6.7921 O.2       1 ATP        -0.8836
      7 O2B        -1.1844    1.5930   -4.9991 O.3       1 ATP        -0.8065
      8 O3B        -0.1117   -0.3706   -6.1908 O.3       1 ATP        -0.8233
      9 PA          2.7386    0.3748   -4.4298 P.3       1 ATP         1.5686
     10 O1A         3.6399    1.3283   -5.1839 O.co2     1 ATP        -0.8169
     11 O2A         2.7068   -1.0976   -4.7776 O.co2     1 ATP        -0.8169
     12 O3A         1.2110    0.9462   -4.4771 O.3       1 ATP        -0.7987
     13 O5'         3.0197    0.5137   -2.8245 O.3       1 ATP        -0.5693
     14 C5'         2.2816   -0.2918   -1.9206 C.3       1 ATP         0.1841
     15 C4'         2.7248    0.0226   -0.4980 C.3       1 ATP         0.0904
     16 O4'         2.4697    1.4219   -0.2462 O.3       1 ATP        -0.4083
     17 C3'         1.9404   -0.7419    0.5596 C.3       1 ATP         0.0826
     18 O3'         2.7418   -0.8086    1.7389 O.3       1 ATP        -0.6106
     19 C2'         0.7477    0.1630    0.7858 C.3       1 ATP         0.1294
     20 O2'         0.1373   -0.0577    2.0407 O.3       1 ATP        -0.5701
     21 C1'         1.3733    1.5427    0.6747 C.3       1 ATP         0.3967
     22 N9          0.4520    2.5240    0.1767 N.pl3     1 ATP        -0.5600
     23 C8          0.1928    2.8484   -1.0815 C.ar      1 ATP         0.3009
     24 N7         -0.7248    3.8048   -1.2110 N.pl3     1 ATP        -0.5113
     25 C5         -1.0765    4.1129    0.0571 C.ar      1 ATP        -0.2824
     26 C6         -1.9614    5.0063    0.5851 C.ar      1 ATP         0.7670
     27 N6         -2.7145    5.8254   -0.2810 N.pl3     1 ATP        -0.9491
     28 N1         -2.1199    5.1113    1.9228 N.ar      1 ATP        -0.7474
     29 C2         -1.3522    4.2822    2.6839 C.ar      1 ATP         0.7118
     30 N3         -0.4501    3.3660    2.2638 N.ar      1 ATP        -0.6661
     31 C4         -0.3487    3.3198    0.9322 C.ar      1 ATP         0.6308
     32 HOG2       -0.9701   -3.0816   -6.5677 H         1 ATP         0.4930
     33 HOG3       -0.5848    0.5777   -8.8645 H         1 ATP         0.4930
     34 HOB2       -1.9940    1.6898   -5.5444 H         1 ATP         0.4808
     35 H5'1        1.2153   -0.0781   -2.0454 H         1 ATP         0.0350
     36 H5'2        2.4645   -1.3454   -2.1547 H         1 ATP         0.0350
     37 H4'         3.8050   -0.1388   -0.4008 H         1 ATP         0.1244
     38 H3'         1.6784   -1.7629    0.2714 H         1 ATP         0.0924
     39 HO3'        2.2232   -1.2979    2.3953 H         1 ATP         0.4379
     40 H2'        -0.0011    0.0027    0.0003 H         1 ATP         0.0849
     41 HO2'       -0.6141    0.5574    2.1082 H         1 ATP         0.4417
     42 H1'         1.7826    1.9024    1.6451 H         1 ATP         0.1307
     43 H8          0.6728    2.3873   -1.9272 H         1 ATP         0.2875
     44 HN61       -2.5537    5.7714   -1.2667 H         1 ATP         0.4559
     45 HN62       -3.3282    6.5126    0.1080 H         1 ATP         0.4559
     46 H2         -1.4818    4.3694    3.7565 H         1 ATP         0.0858
     47 H47        -1.0701    4.2005   -2.0743 H         1 ATP         0.5042
@<TRIPOS>BOND
     1    1    2 2
     2    1    3 1
     3    1    4 1
     4    1    8 1
     5    3   32 1
     6    4   33 1
     7    5    6 2
     8    5    7 1
     9    5    8 1
    10    5   12 1
    11    7   34 1
    12    9   10 2
    13    9   11 1
    14    9   12 1
    15    9   13 1
    16   13   14 1
    17   14   15 1
    18   14   35 1
    19   14   36 1
    20   15   16 1
    21   15   17 1
    22   15   37 1
    23   16   21 1
    24   17   18 1
    25   17   19 1
    26   17   38 1
    27   18   39 1
    28   19   20 1
    29   19   21 1
    30   19   40 1
    31   20   41 1
    32   21   22 1
    33   21   42 1
    34   22   23 ar
    35   22   31 ar
    36   23   24 ar
    37   23   43 1
    38   24   25 ar
    39   24   47 1
    40   25   26 ar
    41   25   31 ar
    42   26   27 1
    43   26   28 ar
    44   27   44 1
    45   27   45 1
    46   28   29 ar
    47   29   30 ar
    48   29   46 1
    49   30   31 ar
@<TRIPOS>SUBSTRUCTURE
     1 ATP         1 GROUP 0 A     ****
@<TRIPOS>MOLECULE
[5-(6-amino-7,8-dihydropurin-8-ylium-9-yl)-3,4-dihydroxy-tetrahydrofuran-2-yl]methyl [hydroxy(phosphonooxy)phosphoryl] phosphate
   47    49     1     0     0
SMALL
USER_CHARGES

@<TRIPOS>ATOM
      1 PG          4.2997   -4.3745   -4.6544 P.3       1 ATP         1.8237
      2 O1G         4.6500   -4.8621   -3.2796 O.2       1 ATP        -0.8455
      3 O2G         4.6448   -5.4105   -5.8469 O.3       1 ATP        -0.7970
      4 O3G         2.7287   -4.0673   -4.8840 O.3       1 ATP        -0.7970
      5 PB          4.9987   -1.5262   -4.4846 P.3       1 ATP         1.9358
      6 O1B         5.4981   -1.4214   -3.0739 O.2       1 ATP        -0.8836
      7 O2B         5.8120   -0.6419   -5.5661 O.3       1 ATP        -0.8065
      8 O3B         5.0284   -3.0109   -5.1190 O.3       1 ATP        -0.8233
      9 PA          2.7386    0.3748   -4.4298 P.3       1 ATP         1.5686
     10 O1A         1.2524    0.2205   -4.6698 O.co2     1 ATP        -0.8169
     11 O2A         3.5296    1.4502   -5.1423 O.co2     1 ATP        -0.8169
     12 O3A         3.4667   -1.0606   -4.6985 O.3       1 ATP        -0.7987
     13 O5'         3.0197    0.5137   -2.8245 O.3       1 ATP        -0.5693
     14 C5'         2.2816   -0.2918   -1.9206 C.3       1 ATP         0.1841
     15 C4'         2.7248    0.0226   -0.4980 C.3       1 ATP         0.0904
     16 O4'         2.4697    1.4219   -0.2462 O.3       1 ATP        -0.4083
     17 C3'         1.9404   -0.7419    0.5596 C.3       1 ATP         0.0826
     18 O3'         2.7418   -0.8086    1.7389 O.3       1 ATP        -0.6106
     19 C2'         0.7477    0.1630    0.7858 C.3       1 ATP         0.1294
     20 O2'         0.1373   -0.0577    2.0407 O.3       1 ATP        -0.5701
     21 C1'         1.3733    1.5427    0.6747 C.3       1 ATP         0.3967
     22 N9          0.4520    2.5240    0.1767 N.pl3     1 ATP        -0.5600
     23 C8          0.1928    2.8484   -1.0815 C.ar      1 ATP         0.3009
     24 N7         -0.7248    3.8048   -1.2110 N.pl3     1 ATP        -0.5113
     25 C5         -1.0765    4.1129    0.0571 C.ar      1 ATP        -0.2824
     26 C6         -1.9614    5.0063    0.5851 C.ar      1 ATP         0.7670
     27 N6         -2.7145    5.8254   -0.2810 N.pl3     1 ATP        -0.9491
     28 N1         -2.1199    5.1113    1.9228 N.ar      1 ATP        -0.7474
     29 C2         -1.3522    4.2822    2.6839 C.ar      1 ATP         0.7118
     30 N3         -0.4501    3.3660    2.2638 N.ar      1 ATP        -0.6661
     31 C4         -0.3487    3.3198    0.9322 C.ar      1 ATP         0.6308
     32 HOG2        5.5751   -5.6936   -5.9752 H         1 ATP         0.4930
     33 HOG3        2.2907   -3.3914   -4.3239 H         1 ATP         0.4930
     34 HOB2        5.8491    0.3316   -5.4521 H         1 ATP         0.4808
     35 H5'1        1.2153   -0.0781   -2.0454 H         1 ATP         0.0350
     36 H5'2        2.4645   -1.3454   -2.1547 H         1 ATP         0.0350
     37 H4'         3.8050   -0.1388   -0.4008 H         1 ATP         0.1244
     38 H3'         1.6784   -1.7629    0.2714 H         1 ATP         0.0924
     39 HO3'        2.2232   -1.2979    2.3953 H         1 ATP         0.4379
     40 H2'        -0.0011    0.0027    0.0003 H         1 ATP         0.0849
     41 HO2'       -0.6141    0.5574    2.1082 H         1 ATP         0.4417
     42 H1'         1.7826    1.9024    1.6451 H         1 ATP         0.1307
     43 H8          0.6728    2.3873   -1.9272 H         1 ATP         0.2875
     44 HN61       -2.5537    5.7714   -1.2667 H         1 ATP         0.4559
     45 HN62       -3.3282    6.5126    0.1080 H         1 ATP         0.4559
     46 H2         -1.4818    4.3694    3.7565 H         1 ATP         0.0858
     47 H47        -1.0701    4.2005   -2.0743 H         1 ATP         0.5042
@<TRIPOS>BOND
     1    1    2 2
     2    1    3 1
     3    1    4 1
     4    1    8 1
     5    3   32 1
     6    4   33 1
     7    5    6 2
     8    5    7 1
     9    5    8 1
    10    5   12 1
    11    7   34 1
    12    9   10 2
    13    9   11 1
    14    9   12 1
    15    9   13 1
    16   13   14 1
    17   14   15 1
    18   14   35 1
    19   14   36 1
    20   15   16 1
    21   15   17 1
    22   15   37 1
    23   16   21 1
    24   17   18 1
    25   17   19 1
    26   17   38 1
    27   18   39 1
    28   19   20 1
    29   19   21 1
    30   19   40 1
    31   20   41 1
    32   21   22 1
    33   21   42 1
    34   22   23 ar
    35   22   31 ar
    36   23   24 ar
    37   23   43 1
    38   24   25 ar
    39   24   47 1
    40   25   26 ar
    41   25   31 ar
    42   26   27 1
    43   26   28 ar
    44   27   44 1
    45   27   45 1
    46   28   29 ar
    47   29   30 ar
    48   29   46 1
    49   30   31 ar
@<TRIPOS>SUBSTRUCTURE
     1 ATP         1 GROUP 0 A     ****
@<TRIPOS>MOLECULE
[5-(6-amino-7,8-dihydropurin-8-ylium-9-yl)-3,4-dihydroxy-tetrahydrofuran-2-yl]methyl [hydroxy(phosphonooxy)phosphoryl] phosphate
   47    49     1     0     0
SMALL
USER_CHARGES

@<TRIPOS>ATOM
      1 PG         -2.6612   -2.9503   -2.4065 P.3       1 ATP         1.8237
      2 O1G        -2.9815   -4.4158   -2.3914 O.2       1 ATP        -0.8455
      3 O2G        -3.9326   -1.9784   -2.1753 O.3       1 ATP        -0.7970
      4 O3G        -1.6256   -2.4717   -1.2603 O.3       1 ATP        -0.7970
      5 PB         -0.6370   -2.7934   -4.5297 P.3       1 ATP         1.9358
      6 O1B        -0.5381   -4.2273   -4.9593 O.2       1 ATP        -0.8836
      7 O2B        -0.5427   -1.7120   -5.7275 O.3       1 ATP        -0.8065
      8 O3B        -2.0055   -2.3924   -3.7722 O.3       1 ATP        -0.8233
      9 PA          2.1361   -2.2694   -3.6576 P.3       1 ATP         1.5686
     10 O1A         2.4968   -1.2636   -4.7294 O.co2     1 ATP        -0.8169
     11 O2A         2.6449   -3.6926   -3.7300 O.co2     1 ATP        -0.8169
     12 O3A         0.5124   -2.3123   -3.5015 O.3       1 ATP        -0.7987
     13 O5'         2.5237   -1.6631   -2.1889 O.3       1 ATP        -0.5693
     14 C5'         2.2816   -0.2918   -1.9206 C.3       1 ATP         0.1841
     15 C4'         2.7248    0.0226   -0.4980 C.3       1 ATP         0.0904
     16 O4'         2.4697    1.4219   -0.2462 O.3       1 ATP        -0.4083
     17 C3'         1.9404   -0.7419    0.5596 C.3       1 ATP         0.0826
     18 O3'         2.7418   -0.8086    1.7389 O.3       1 ATP        -0.6106
     19 C2'         0.7477    0.1630    0.7858 C.3       1 ATP         0.1294
     20 O2'         0.1373   -0.0577    2.0407 O.3       1 ATP        -0.5701
     21 C1'         1.3733    1.5427    0.6747 C.3       1 ATP         0.3967
     22 N9          0.4520    2.5240    0.1767 N.pl3     1 ATP        -0.5600
     23 C8          0.1928    2.8484   -1.0815 C.ar      1 ATP         0.3009
     24 N7         -0.7248    3.8048   -1.2110 N.pl3     1 ATP        -0.5113
     25 C5         -1.0765    4.1129    0.0571 C.ar      1 ATP        -0.2824
     26 C6         -1.9614    5.0063    0.5851 C.ar      1 ATP         0.7670
     27 N6         -2.7145    5.8254   -0.2810 N.pl3     1 ATP        -0.9491
     28 N1         -2.1199    5.1113    1.9228 N.ar      1 ATP        -0.7474
     29 C2         -1.3522    4.2822    2.6839 C.ar      1 ATP         0.7118
     30 N3         -0.4501    3.3660    2.2638 N.ar      1 ATP        -0.6661
     31 C4         -0.3487    3.3198    0.9322 C.ar      1 ATP         0.6308
     32 HOG2       -4.6811   -2.0176   -2.8081 H         1 ATP         0.4930
     33 HOG3       -0.7266   -2.8639   -1.2396 H         1 ATP         0.4930
     34 HOB2        0.2662   -1.6865   -6.2818 H         1 ATP         0.4808
     35 H5'1        2.8429    0.3140   -2.6391 H         1 ATP         0.0350
     36 H5'2        1.2125   -0.0906   -2.0420 H         1 ATP         0.0350
     37 H4'         3.8050   -0.1388   -0.4008 H         1 ATP         0.1244
     38 H3'         1.6784   -1.7629    0.2714 H         1 ATP         0.0924
     39 HO3'        2.2232   -1.2979    2.3953 H         1 ATP         0.4379
     40 H2'        -0.0011    0.0027    0.0003 H         1 ATP         0.0849
     41 HO2'       -0.6141    0.5574    2.1082 H         1 ATP         0.4417
     42 H1'         1.7826    1.9024    1.6451 H         1 ATP         0.1307
     43 H8          0.6728    2.3873   -1.9272 H         1 ATP         0.2875
     44 HN61       -2.5537    5.7714   -1.2667 H         1 ATP         0.4559
     45 HN62       -3.3282    6.5126    0.1080 H         1 ATP         0.4559
     46 H2         -1.4818    4.3694    3.7565 H         1 ATP         0.0858
     47 H47        -1.0701    4.2005   -2.0743 H         1 ATP         0.5042
@<TRIPOS>BOND
     1    1    2 2
     2    1    3 1
     3    1    4 1
     4    1    8 1
     5    3   32 1
     6    4   33 1
     7    5    6 2
     8    5    7 1
     9    5    8 1
    10    5   12 1
    11    7   34 1
    12    9   10 2
    13    9   11 1
    14    9   12 1
    15    9   13 1
    16   13   14 1
    17   14   15 1
    18   14   35 1
    19   14   36 1
    20   15   16 1
    21   15   17 1
    22   15   37 1
    23   16   21 1
    24   17   18 1
    25   17   19 1
    26   17   38 1
    27   18   39 1
    28   19   20 1
    29   19   21 1
    30   19   40 1
    31   20   41 1
    32   21   22 1
    33   21   42 1
    34   22   23 ar
    35   22   31 ar
    36   23   24 ar
    37   23   43 1
    38   24   25 ar
    39   24   47 1
    40   25   26 ar
    41   25   31 ar
    42   26   27 1
    43   26   28 ar
    44   27   44 1
    45   27   45 1
    46   28   29 ar
    47   29   30 ar
    48   29   46 1
    49   30   31 ar
@<TRIPOS>SUBSTRUCTURE
     1 ATP         1 GROUP 0 A     ****
@<TRIPOS>MOLECULE
[5-(6-amino-7,8-dihydropurin-8-ylium-9-yl)-3,4-dihydroxy-tetrahydrofuran-2-yl]methyl [hydroxy(phosphonooxy)phosphoryl] phosphate
   47    49     1     0     0
SMALL
USER_CHARGES

@<TRIPOS>ATOM
      1 PG          5.7513   -3.5951   -4.8846 P.3       1 ATP         1.8237
      2 O1G         6.9331   -3.2436   -5.7390 O.2       1 ATP        -0.8455
      3 O2G         5.6624   -5.1535   -4.4625 O.3       1 ATP        -0.7970
      4 O3G         5.6934   -2.8299   -3.4611 O.3       1 ATP        -0.7970
      5 PB          3.6381   -1.9227   -6.0539 P.3       1 ATP         1.9358
      6 O1B         4.3800   -1.2246   -7.1551 O.2       1 ATP        -0.8836
      7 O2B         2.1228   -2.3541   -6.4159 O.3       1 ATP        -0.8065
      8 O3B         4.3046   -3.2998   -5.5373 O.3       1 ATP        -0.8233
      9 PA          2.7386    0.3748   -4.4298 P.3       1 ATP         1.5686
     10 O1A         1.2524    0.2205   -4.6698 O.co2     1 ATP        -0.8169
     11 O2A         3.5296    1.4502   -5.1423 O.co2     1 ATP        -0.8169
     12 O3A         3.4667   -1.0606   -4.6985 O.3       1 ATP        -0.7987
     13 O5'         3.0197    0.5137   -2.8245 O.3       1 ATP        -0.5693
     14 C5'         2.2816   -0.2918   -1.9206 C.3       1 ATP         0.1841
     15 C4'         2.7248    0.0226   -0.4980 C.3       1 ATP         0.0904
     16 O4'         2.4697    1.4219   -0.2462 O.3       1 ATP        -0.4083
     17 C3'         1.9404   -0.7419    0.5596 C.3       1 ATP         0.0826
     18 O3'         2.7418   -0.8086    1.7389 O.3       1 ATP        -0.6106
     19 C2'         0.7477    0.1630    0.7858 C.3       1 ATP         0.1294
     20 O2'         0.1373   -0.0577    2.0407 O.3       1 ATP        -0.5701
     21 C1'         1.3733    1.5427    0.6747 C.3       1 ATP         0.3967
     22 N9          0.4520    2.5240    0.1767 N.pl3     1 ATP        -0.5600
     23 C8          0.1928    2.8484   -1.0815 C.ar      1 ATP         0.3009
     24 N7         -0.7248    3.8048   -1.2110 N.pl3     1 ATP        -0.5113
     25 C5         -1.0765    4.1129    0.0571 C.ar      1 ATP        -0.2824
     26 C6         -1.9614    5.0063    0.5851 C.ar      1 ATP         0.7670
     27 N6         -2.7145    5.8254   -0.2810 N.pl3     1 ATP        -0.9491
     28 N1         -2.1199    5.1113    1.9228 N.ar      1 ATP        -0.7474
     29 C2         -1.3522    4.2822    2.6839 C.ar      1 ATP         0.7118
     30 N3         -0.4501    3.3660    2.2638 N.ar      1 ATP        -0.6661
     31 C4         -0.3487    3.3198    0.9322 C.ar      1 ATP         0.6308
     32 HOG2        5.5986   -5.8330   -5.1670 H         1 ATP         0.4930
     33 HOG3        5.6521   -1.8498   -3.4508 H         1 ATP         0.4930
     34 HOB2        1.4777   -1.6586   -6.6653 H         1 ATP         0.4808
     35 H5'1        1.2153   -0.0781   -2.0454 H         1 ATP         0.0350
     36 H5'2        2.4645   -1.3454   -2.1547 H         1 ATP         0.0350
     37 H4'         3.8050   -0.1388   -0.4008 H         1 ATP         0.1244
     38 H3'         1.6784   -1.7629    0.2714 H         1 ATP         0.0924
     39 HO3'        2.2232   -1.2979    2.3953 H         1 ATP         0.4379
     40 H2'        -0.0011    0.0027    0.0003 H         1 ATP         0.0849
     41 HO2'       -0.6141    0.5574    2.1082 H         1 ATP         0.4417
     42 H1'         1.7826    1.9024    1.6451 H         1 ATP         0.1307
     43 H8          0.6728    2.3873   -1.9272 H         1 ATP         0.2875
     44 HN61       -2.5537    5.7714   -1.2667 H         1 ATP         0.4559
     45 HN62       -3.3282    6.5126    0.1080 H         1 ATP         0.4559
     46 H2         -1.4818    4.3694    3.7565 H         1 ATP         0.0858
     47 H47        -1.0701    4.2005   -2.0743 H         1 ATP         0.5042
@<TRIPOS>BOND
     1    1    2 2
     2    1    3 1
     3    1    4 1
     4    1    8 1
     5    3   32 1
     6    4   33 1
     7    5    6 2
     8    5    7 1
     9    5    8 1
    10    5   12 1
    11    7   34 1
    12    9   10 2
    13    9   11 1
    14    9   12 1
    15    9   13 1
    16   13   14 1
    17   14   15 1
    18   14   35 1
    19   14   36 1
    20   15   16 1
    21   15   17 1
    22   15   37 1
    23   16   21 1
    24   17   18 1
    25   17   19 1
    26   17   38 1
    27   18   39 1
    28   19   20 1
    29   19   21 1
    30   19   40 1
    31   20   41 1
    32   21   22 1
    33   21   42 1
    34   22   23 ar
    35   22   31 ar
    36   23   24 ar
    37   23   43 1
    38   24   25 ar
    39   24   47 1
    40   25   26 ar
    41   25   31 ar
    42   26   27 1
    43   26   28 ar
    44   27   44 1
    45   27   45 1
    46   28   29 ar
    47   29   30 ar
    48   29   46 1
    49   30   31 ar
@<TRIPOS>SUBSTRUCTURE
     1 ATP         1 GROUP 0 A     ****
@<TRIPOS>MOLECULE
[5-(6-amino-7,8-dihydropurin-8-ylium-9-yl)-3,4-dihydroxy-tetrahydrofuran-2-yl]methyl [hydroxy(phosphonooxy)phosphoryl] phosphate
   47    49     1     0     0
SMALL
USER_CHARGES

@<TRIPOS>ATOM
      1 PG         -2.7679   -1.4423   -3.1008 P.3       1 ATP         1.8237
      2 O1G        -2.1585   -0.3632   -3.9462 O.2       1 ATP        -0.8455
      3 O2G        -3.0105   -1.0337   -1.5553 O.3       1 ATP        -0.7970
      4 O3G        -4.2324   -1.9325   -3.5806 O.3       1 ATP        -0.7970
      5 PB         -0.4287   -3.0949   -2.4472 P.3       1 ATP         1.9358
      6 O1B        -0.1977   -2.7359   -1.0090 O.2       1 ATP        -0.8836
      7 O2B        -0.1845   -4.6506   -2.8121 O.3       1 ATP        -0.8065
      8 O3B        -1.9200   -2.8123   -2.9984 O.3       1 ATP        -0.8233
      9 PA          2.1361   -2.2694   -3.6576 P.3       1 ATP         1.5686
     10 O1A         2.4968   -1.2636   -4.7294 O.co2     1 ATP        -0.8169
     11 O2A         2.6449   -3.6926   -3.7300 O.co2     1 ATP        -0.8169
     12 O3A         0.5124   -2.3123   -3.5015 O.3       1 ATP        -0.7987
     13 O5'         2.5237   -1.6631   -2.1889 O.3       1 ATP        -0.5693
     14 C5'         2.2816   -0.2918   -1.9206 C.3       1 ATP         0.1841
     15 C4'         2.7248    0.0226   -0.4980 C.3       1 ATP         0.0904
     16 O4'         2.4697    1.4219   -0.2462 O.3       1 ATP        -0.4083
     17 C3'         1.9404   -0.7419    0.5596 C.3       1 ATP         0.0826
     18 O3'         2.7418   -0.8086    1.7389 O.3       1 ATP        -0.6106
     19 C2'         0.7477    0.1630    0.7858 C.3       1 ATP         0.1294
     20 O2'         0.1373   -0.0577    2.0407 O.3       1 ATP        -0.5701
     21 C1'         1.3733    1.5427    0.6747 C.3       1 ATP         0.3967
     22 N9          0.4520    2.5240    0.1767 N.pl3     1 ATP        -0.5600
     23 C8          0.1928    2.8484   -1.0815 C.ar      1 ATP         0.3009
     24 N7         -0.7248    3.8048   -1.2110 N.pl3     1 ATP        -0.5113
     25 C5         -1.0765    4.1129    0.0571 C.ar      1 ATP        -0.2824
     26 C6         -1.9614    5.0063    0.5851 C.ar      1 ATP         0.7670
     27 N6         -2.7145    5.8254   -0.2810 N.pl3     1 ATP        -0.9491
     28 N1         -2.1199    5.1113    1.9228 N.ar      1 ATP        -0.7474
     29 C2         -1.3522    4.2822    2.6839 C.ar      1 ATP         0.7118
     30 N3         -0.4501    3.3660    2.2638 N.ar      1 ATP        -0.6661
     31 C4         -0.3487    3.3198    0.9322 C.ar      1 ATP         0.6308
     32 HOG2       -2.2402   -0.7726   -1.0070 H         1 ATP         0.4930
     33 HOG3       -4.3345   -2.3128   -4.4791 H         1 ATP         0.4930
     34 HOB2        0.7031   -5.0401   -2.6617 H         1 ATP         0.4808
     35 H5'1        2.8429    0.3140   -2.6391 H         1 ATP         0.0350
     36 H5'2        1.2125   -0.0906   -2.0420 H         1 ATP         0.0350
     37 H4'         3.8050   -0.1388   -0.4008 H         1 ATP         0.1244
     38 H3'         1.6784   -1.7629    0.2714 H         1 ATP         0.0924
     39 HO3'        2.2232   -1.2979    2.3953 H         1 ATP         0.4379
     40 H2'        -0.0011    0.0027    0.0003 H         1 ATP         0.0849
     41 HO2'       -0.6141    0.5574    2.1082 H         1 ATP         0.4417
     42 H1'         1.7826    1.9024    1.6451 H         1 ATP         0.1307
     43 H8          0.6728    2.3873   -1.9272 H         1 ATP         0.2875
     44 HN61       -2.5537    5.7714   -1.2667 H         1 ATP         0.4559
     45 HN62       -3.3282    6.5126    0.1080 H         1 ATP         0.4559
     46 H2         -1.4818    4.3694    3.7565 H         1 ATP         0.0858
     47 H47        -1.0701    4.2005   -2.0743 H         1 ATP         0.5042
@<TRIPOS>BOND
     1    1    2 2
     2    1    3 1
     3    1    4 1
     4    1    8 1
     5    3   32 1
     6    4   33 1
     7    5    6 2
     8    5    7 1
     9    5    8 1
    10    5   12 1
    11    7   34 1
    12    9   10 2
    13    9   11 1
    14    9   12 1
    15    9   13 1
    16   13   14 1
    17   14   15 1
    18   14   35 1
    19   14   36 1
    20   15   16 1
    21   15   17 1
    22   15   37 1
    23   16   21 1
    24   17   18 1
    25   17   19 1
    26   17   38 1
    27   18   39 1
    28   19   20 1
    29   19   21 1
    30   19   40 1
    31   20   41 1
    32   21   22 1
    33   21   42 1
    34   22   23 ar
    35   22   31 ar
    36   23   24 ar
    37   23   43 1
    38   24   25 ar
    39   24   47 1
    40   25   26 ar
    41   25   31 ar
    42   26   27 1
    43   26   28 ar
    44   27   44 1
    45   27   45 1
    46   28   29 ar
    47   29   30 ar
    48   29   46 1
    49   30   31 ar
@<TRIPOS>SUBSTRUCTURE
     1 ATP         1 GROUP 0 A     ****
@<TRIPOS>MOLECULE
[5-(6-amino-7,8-dihydropurin-8-ylium-9-yl)-3,4-dihydroxy-tetrahydrofuran-2-yl]methyl [hydroxy(phosphonooxy)phosphoryl] phosphate
   47    49     1     0     0
SMALL
USER_CHARGES

@<TRIPOS>ATOM
      1 PG          5.3005   -1.2843   -8.3902 P.3       1 ATP         1.8237
      2 O1G         6.2358   -2.4563   -8.4347 O.2       1 ATP        -0.8455
      3 O2G         5.9775    0.1350   -8.7671 O.3       1 ATP        -0.7970
      4 O3G         4.0528   -1.3744   -9.4150 O.3       1 ATP        -0.7970
      5 PB          3.6381   -1.9227   -6.0539 P.3       1 ATP         1.9358
      6 O1B         2.3512   -2.3382   -6.7033 O.2       1 ATP        -0.8836
      7 O2B         4.6013   -3.1399   -5.6027 O.3       1 ATP        -0.8065
      8 O3B         4.6035   -1.0003   -6.9621 O.3       1 ATP        -0.8233
      9 PA          2.7386    0.3748   -4.4298 P.3       1 ATP         1.5686
     10 O1A         1.2524    0.2205   -4.6698 O.co2     1 ATP        -0.8169
     11 O2A         3.5296    1.4502   -5.1423 O.co2     1 ATP        -0.8169
     12 O3A         3.4667   -1.0606   -4.6985 O.3       1 ATP        -0.7987
     13 O5'         3.0197    0.5137   -2.8245 O.3       1 ATP        -0.5693
     14 C5'         2.2816   -0.2918   -1.9206 C.3       1 ATP         0.1841
     15 C4'         2.7248    0.0226   -0.4980 C.3       1 ATP         0.0904
     16 O4'         2.4697    1.4219   -0.2462 O.3       1 ATP        -0.4083
     17 C3'         1.9404   -0.7419    0.5596 C.3       1 ATP         0.0826
     18 O3'         2.7418   -0.8086    1.7389 O.3       1 ATP        -0.6106
     19 C2'         0.7477    0.1630    0.7858 C.3       1 ATP         0.1294
     20 O2'         0.1373   -0.0577    2.0407 O.3       1 ATP        -0.5701
     21 C1'         1.3733    1.5427    0.6747 C.3       1 ATP         0.3967
     22 N9          0.4520    2.5240    0.1767 N.pl3     1 ATP        -0.5600
     23 C8          0.1928    2.8484   -1.0815 C.ar      1 ATP         0.3009
     24 N7         -0.7248    3.8048   -1.2110 N.pl3     1 ATP        -0.5113
     25 C5         -1.0765    4.1129    0.0571 C.ar      1 ATP        -0.2824
     26 C6         -1.9614    5.0063    0.5851 C.ar      1 ATP         0.7670
     27 N6         -2.7145    5.8254   -0.2810 N.pl3     1 ATP        -0.9491
     28 N1         -2.1199    5.1113    1.9228 N.ar      1 ATP        -0.7474
     29 C2         -1.3522    4.2822    2.6839 C.ar      1 ATP         0.7118
     30 N3         -0.4501    3.3660    2.2638 N.ar      1 ATP        -0.6661
     31 C4         -0.3487    3.3198    0.9322 C.ar      1 ATP         0.6308
     32 HOG2        6.7237    0.4644   -8.2223 H         1 ATP         0.4930
     33 HOG3        3.4247   -2.1236   -9.3328 H         1 ATP         0.4930
     34 HOB2        4.9284   -3.7646   -6.2846 H         1 ATP         0.4808
     35 H5'1        1.2153   -0.0781   -2.0454 H         1 ATP         0.0350
     36 H5'2        2.4645   -1.3454   -2.1547 H         1 ATP         0.0350
     37 H4'         3.8050   -0.1388   -0.4008 H         1 ATP         0.1244
     38 H3'         1.6784   -1.7629    0.2714 H         1 ATP         0.0924
     39 HO3'        2.2232   -1.2979    2.3953 H         1 ATP         0.4379
     40 H2'        -0.0011    0.0027    0.0003 H         1 ATP         0.0849
     41 HO2'       -0.6141    0.5574    2.1082 H         1 ATP         0.4417
     42 H1'         1.7826    1.9024    1.6451 H         1 ATP         0.1307
     43 H8          0.6728    2.3873   -1.9272 H         1 ATP         0.2875
     44 HN61       -2.5537    5.7714   -1.2667 H         1 ATP         0.4559
     45 HN62       -3.3282    6.5126    0.1080 H         1 ATP         0.4559
     46 H2         -1.4818    4.3694    3.7565 H         1 ATP         0.0858
     47 H47        -1.0701    4.2005   -2.0743 H         1 ATP         0.5042
@<TRIPOS>BOND
     1    1    2 2
     2    1    3 1
     3    1    4 1
     4    1    8 1
     5    3   32 1
     6    4   33 1
     7    5    6 2
     8    5    7 1
     9    5    8 1
    10    5   12 1
    11    7   34 1
    12    9   10 2
    13    9   11 1
    14    9   12 1
    15    9   13 1
    16   13   14 1
    17   14   15 1
    18   14   35 1
    19   14   36 1
    20   15   16 1
    21   15   17 1
    22   15   37 1
    23   16   21 1
    24   17   18 1
    25   17   19 1
    26   17   38 1
    27   18   39 1
    28   19   20 1
    29   19   21 1
    30   19   40 1
    31   20   41 1
    32   21   22 1
    33   21   42 1
    34   22   23 ar
    35   22   31 ar
    36   23   24 ar
    37   23   43 1
    38   24   25 ar
    39   24   47 1
    40   25   26 ar
    41   25   31 ar
    42   26   27 1
    43   26   28 ar
    44   27   44 1
    45   27   45 1
    46   28   29 ar
    47   29   30 ar
    48   29   46 1
    49   30   31 ar
@<TRIPOS>SUBSTRUCTURE
     1 ATP         1 GROUP 0 A     ****
@<TRIPOS>MOLECULE
[5-(6-amino-7,8-dihydropurin-8-ylium-9-yl)-3,4-dihydroxy-tetrahydrofuran-2-yl]methyl [hydroxy(phosphonooxy)phosphoryl] phosphate
   47    49     1     0     0
SMALL
USER_CHARGES

@<TRIPOS>ATOM
      1 PG         -1.2086    2.6273   -6.4257 P.3       1 ATP         1.8237
      2 O1G        -2.1299    3.6434   -5.8179 O.2       1 ATP        -0.8455
      3 O2G        -1.9133    1.2260   -6.8187 O.3       1 ATP        -0.7970
      4 O3G        -0.5150    3.0861   -7.8126 O.3       1 ATP        -0.7970
      5 PB          1.2515    3.0326   -4.8721 P.3       1 ATP         1.9358
      6 O1B         2.1234    3.7410   -5.8664 O.2       1 ATP        -0.8836
      7 O2B         0.5118    3.9937   -3.8034 O.3       1 ATP        -0.8065
      8 O3B         0.0382    2.1754   -5.5050 O.3       1 ATP        -0.8233
      9 PA          2.8596    0.6156   -4.3272 P.3       1 ATP         1.5686
     10 O1A         4.0970    1.0195   -5.0992 O.co2     1 ATP        -0.8169
     11 O2A         1.8939   -0.4034   -4.8921 O.co2     1 ATP        -0.8169
     12 O3A         2.0190    1.9594   -3.9400 O.3       1 ATP        -0.7987
     13 O5'         3.2883    0.1336   -2.8242 O.3       1 ATP        -0.5693
     14 C5'         2.2816   -0.2918   -1.9206 C.3       1 ATP         0.1841
     15 C4'         2.7248    0.0226   -0.4980 C.3       1 ATP         0.0904
     16 O4'         2.4697    1.4219   -0.2462 O.3       1 ATP        -0.4083
     17 C3'         1.9404   -0.7419    0.5596 C.3       1 ATP         0.0826
     18 O3'         2.7418   -0.8086    1.7389 O.3       1 ATP        -0.6106
     19 C2'         0.7477    0.1630    0.7858 C.3       1 ATP         0.1294
     20 O2'         0.1373   -0.0577    2.0407 O.3       1 ATP        -0.5701
     21 C1'         1.3733    1.5427    0.6747 C.3       1 ATP         0.3967
     22 N9          0.4520    2.5240    0.1767 N.pl3     1 ATP        -0.5600
     23 C8         -0.2172    2.5216   -0.9668 C.ar      1 ATP         0.3009
     24 N7         -1.0011    3.5855   -1.1321 N.pl3     1 ATP        -0.5113
     25 C5         -0.8184    4.3200   -0.0123 C.ar      1 ATP        -0.2824
     26 C6         -1.3349    5.5079    0.4144 C.ar      1 ATP         0.7670
     27 N6         -2.2567    6.1930   -0.4036 N.pl3     1 ATP        -0.9491
     28 N1         -0.9716    6.0291    1.6069 N.ar      1 ATP        -0.7474
     29 C2         -0.0765    5.3009    2.3312 C.ar      1 ATP         0.7118
     30 N3          0.4933    4.1191    2.0023 N.ar      1 ATP        -0.6661
     31 C4          0.0865    3.6675    0.8123 C.ar      1 ATP         0.6308
     32 HOG2       -2.3437    0.6971   -6.1136 H         1 ATP         0.4930
     33 HOG3        0.0529    3.8860   -7.8170 H         1 ATP         0.4930
     34 HOB2       -0.1015    4.6854   -4.1315 H         1 ATP         0.4808
     35 H5'1        1.3500    0.2325   -2.1560 H         1 ATP         0.0350
     36 H5'2        2.1266   -1.3683   -2.0443 H         1 ATP         0.0350
     37 H4'         3.8050   -0.1388   -0.4008 H         1 ATP         0.1244
     38 H3'         1.6784   -1.7629    0.2714 H         1 ATP         0.0924
     39 HO3'        2.2232   -1.2979    2.3953 H         1 ATP         0.4379
     40 H2'        -0.0011    0.0027    0.0003 H         1 ATP         0.0849
     41 HO2'       -0.6141    0.5574    2.1082 H         1 ATP         0.4417
     42 H1'         1.7826    1.9024    1.6451 H         1 ATP         0.1307
     43 H8         -0.1423    1.7373   -1.6999 H         1 ATP         0.2875
     44 HN61       -2.4811    5.8206   -1.3042 H         1 ATP         0.4559
     45 HN62       -2.5986    7.0863   -0.1113 H         1 ATP         0.4559
     46 H2          0.2128    5.7222    3.2871 H         1 ATP         0.0858
     47 H47        -1.5947    3.7835   -1.9255 H         1 ATP         0.5042
@<TRIPOS>BOND
     1    1    2 2
     2    1    3 1
     3    1    4 1
     4    1    8 1
     5    3   32 1
     6    4   33 1
     7    5    6 2
     8    5    7 1
     9    5    8 1
    10    5   12 1
    11    7   34 1
    12    9   10 2
    13    9   11 1
    14    9   12 1
    15    9   13 1
    16   13   14 1
    17   14   15 1
    18   14   35 1
    19   14   36 1
    20   15   16 1
    21   15   17 1
    22   15   37 1
    23   16   21 1
    24   17   18 1
    25   17   19 1
    26   17   38 1
    27   18   39 1
    28   19   20 1
    29   19   21 1
    30   19   40 1
    31   20   41 1
    32   21   22 1
    33   21   42 1
    34   22   23 ar
    35   22   31 ar
    36   23   24 ar
    37   23   43 1
    38   24   25 ar
    39   24   47 1
    40   25   26 ar
    41   25   31 ar
    42   26   27 1
    43   26   28 ar
    44   27   44 1
    45   27   45 1
    46   28   29 ar
    47   29   30 ar
    48   29   46 1
    49   30   31 ar
@<TRIPOS>SUBSTRUCTURE
     1 ATP         1 GROUP 0 A     ****
@<TRIPOS>MOLECULE
[5-(6-amino-7,8-dihydropurin-8-ylium-9-yl)-3,4-dihydroxy-tetrahydrofuran-2-yl]methyl [hydroxy(phosphonooxy)phosphoryl] phosphate
   47    49     1     0     0
SMALL
USER_CHARGES

@<TRIPOS>ATOM
      1 PG         -1.8284   -6.1243   -2.9426 P.3       1 ATP         1.8237
      2 O1G        -2.8112   -6.3589   -1.8338 O.2       1 ATP        -0.8455
      3 O2G        -0.7906   -7.3386   -3.1938 O.3       1 ATP        -0.7970
      4 O3G        -2.4923   -5.9071   -4.4012 O.3       1 ATP        -0.7970
      5 PB         -1.2156   -3.2698   -2.6167 P.3       1 ATP         1.9358
      6 O1B        -1.9614   -2.6671   -3.7703 O.2       1 ATP        -0.8836
      7 O2B        -1.9762   -3.1886   -1.1925 O.3       1 ATP        -0.8065
      8 O3B        -0.8671   -4.8396   -2.7643 O.3       1 ATP        -0.8233
      9 PA          1.5535   -2.4535   -3.2419 P.3       1 ATP         1.5686
     10 O1A         1.2363   -1.5482   -4.4124 O.co2     1 ATP        -0.8169
     11 O2A         2.1275   -3.8355   -3.4665 O.co2     1 ATP        -0.8169
     12 O3A         0.2209   -2.5966   -2.3113 O.3       1 ATP        -0.7987
     13 O5'         2.5237   -1.6631   -2.1889 O.3       1 ATP        -0.5693
     14 C5'         2.2816   -0.2918   -1.9206 C.3       1 ATP         0.1841
     15 C4'         2.7248    0.0226   -0.4980 C.3       1 ATP         0.0904
     16 O4'         2.4697    1.4219   -0.2462 O.3       1 ATP        -0.4083
     17 C3'         1.9404   -0.7419    0.5596 C.3       1 ATP         0.0826
     18 O3'         2.7418   -0.8086    1.7389 O.3       1 ATP        -0.6106
     19 C2'         0.7477    0.1630    0.7858 C.3       1 ATP         0.1294
     20 O2'         0.1373   -0.0577    2.0407 O.3       1 ATP        -0.5701
     21 C1'         1.3733    1.5427    0.6747 C.3       1 ATP         0.3967
     22 N9          0.4520    2.5240    0.1767 N.pl3     1 ATP        -0.5600
     23 C8          0.1928    2.8484   -1.0815 C.ar      1 ATP         0.3009
     24 N7         -0.7248    3.8048   -1.2110 N.pl3     1 ATP        -0.5113
     25 C5         -1.0765    4.1129    0.0571 C.ar      1 ATP        -0.2824
     26 C6         -1.9614    5.0063    0.5851 C.ar      1 ATP         0.7670
     27 N6         -2.7145    5.8254   -0.2810 N.pl3     1 ATP        -0.9491
     28 N1         -2.1199    5.1113    1.9228 N.ar      1 ATP        -0.7474
     29 C2         -1.3522    4.2822    2.6839 C.ar      1 ATP         0.7118
     30 N3         -0.4501    3.3660    2.2638 N.ar      1 ATP        -0.6661
     31 C4         -0.3487    3.3198    0.9322 C.ar      1 ATP         0.6308
     32 HOG2       -0.1948   -7.6121   -2.4642 H         1 ATP         0.4930
     33 HOG3       -3.1123   -5.1583   -4.5333 H         1 ATP         0.4930
     34 HOB2       -2.8516   -3.6205   -1.0963 H         1 ATP         0.4808
     35 H5'1        2.8429    0.3140   -2.6391 H         1 ATP         0.0350
     36 H5'2        1.2125   -0.0906   -2.0420 H         1 ATP         0.0350
     37 H4'         3.8050   -0.1388   -0.4008 H         1 ATP         0.1244
     38 H3'         1.6784   -1.7629    0.2714 H         1 ATP         0.0924
     39 HO3'        2.2232   -1.2979    2.3953 H         1 ATP         0.4379
     40 H2'        -0.0011    0.0027    0.0003 H         1 ATP         0.0849
     41 HO2'       -0.6141    0.5574    2.1082 H         1 ATP         0.4417
     42 H1'         1.7826    1.9024    1.6451 H         1 ATP         0.1307
     43 H8          0.6728    2.3873   -1.9272 H         1 ATP         0.2875
     44 HN61       -2.5537    5.7714   -1.2667 H         1 ATP         0.4559
     45 HN62       -3.3282    6.5126    0.1080 H         1 ATP         0.4559
     46 H2         -1.4818    4.3694    3.7565 H         1 ATP         0.0858
     47 H47        -1.0701    4.2005   -2.0743 H         1 ATP         0.5042
@<TRIPOS>BOND
     1    1    2 2
     2    1    3 1
     3    1    4 1
     4    1    8 1
     5    3   32 1
     6    4   33 1
     7    5    6 2
     8    5    7 1
     9    5    8 1
    10    5   12 1
    11    7   34 1
    12    9   10 2
    13    9   11 1
    14    9   12 1
    15    9   13 1
    16   13   14 1
    17   14   15 1
    18   14   35 1
    19   14   36 1
    20   15   16 1
    21   15   17 1
    22   15   37 1
    23   16   21 1
    24   17   18 1
    25   17   19 1
    26   17   38 1
    27   18   39 1
    28   19   20 1
    29   19   21 1
    30   19   40 1
    31   20   41 1
    32   21   22 1
    33   21   42 1
    34   22   23 ar
    35   22   31 ar
    36   23   24 ar
    37   23   43 1
    38   24   25 ar
    39   24   47 1
    40   25   26 ar
    41   25   31 ar
    42   26   27 1
    43   26   28 ar
    44   27   44 1
    45   27   45 1
    46   28   29 ar
    47   29   30 ar
    48   29   46 1
    49   30   31 ar
@<TRIPOS>SUBSTRUCTURE
     1 ATP         1 GROUP 0 A     ****
@<TRIPOS>MOLECULE
[5-(6-amino-7,8-dihydropurin-8-ylium-9-yl)-3,4-dihydroxy-tetrahydrofuran-2-yl]methyl [hydroxy(phosphonooxy)phosphoryl] phosphate
   47    49     1     0     0
SMALL
USER_CHARGES

@<TRIPOS>ATOM
      1 PG          7.3080   -2.6796   -2.7976 P.3       1 ATP         1.8237
      2 O1G         6.9509   -1.6456   -1.7712 O.2       1 ATP        -0.8455
      3 O2G         8.5440   -2.2780   -3.7596 O.3       1 ATP        -0.7970
      4 O3G         7.7697   -4.1055   -2.1901 O.3       1 ATP        -0.7970
      5 PB          5.3185   -2.1638   -4.8966 P.3       1 ATP         1.9358
      6 O1B         6.1549   -1.4964   -5.9480 O.2       1 ATP        -0.8836
      7 O2B         4.1906   -3.1758   -5.4596 O.3       1 ATP        -0.8065
      8 O3B         6.1346   -3.0678   -3.8362 O.3       1 ATP        -0.8233
      9 PA          3.3322   -0.0533   -4.3265 P.3       1 ATP         1.5686
     10 O1A         2.1130   -0.7769   -4.8559 O.co2     1 ATP        -0.8169
     11 O2A         3.9798    1.0571   -5.1250 O.co2     1 ATP        -0.8169
     12 O3A         4.4780   -1.1544   -3.9562 O.3       1 ATP        -0.7987
     13 O5'         3.0197    0.5137   -2.8245 O.3       1 ATP        -0.5693
     14 C5'         2.2816   -0.2918   -1.9206 C.3       1 ATP         0.1841
     15 C4'         2.7248    0.0226   -0.4980 C.3       1 ATP         0.0904
     16 O4'         2.4697    1.4219   -0.2462 O.3       1 ATP        -0.4083
     17 C3'         1.9404   -0.7419    0.5596 C.3       1 ATP         0.0826
     18 O3'         2.7418   -0.8086    1.7389 O.3       1 ATP        -0.6106
     19 C2'         0.7477    0.1630    0.7858 C.3       1 ATP         0.1294
     20 O2'         0.1373   -0.0577    2.0407 O.3       1 ATP        -0.5701
     21 C1'         1.3733    1.5427    0.6747 C.3       1 ATP         0.3967
     22 N9          0.4520    2.5240    0.1767 N.pl3     1 ATP        -0.5600
     23 C8          0.1928    2.8484   -1.0815 C.ar      1 ATP         0.3009
     24 N7         -0.7248    3.8048   -1.2110 N.pl3     1 ATP        -0.5113
     25 C5         -1.0765    4.1129    0.0571 C.ar      1 ATP        -0.2824
     26 C6         -1.9614    5.0063    0.5851 C.ar      1 ATP         0.7670
     27 N6         -2.7145    5.8254   -0.2810 N.pl3     1 ATP        -0.9491
     28 N1         -2.1199    5.1113    1.9228 N.ar      1 ATP        -0.7474
     29 C2         -1.3522    4.2822    2.6839 C.ar      1 ATP         0.7118
     30 N3         -0.4501    3.3660    2.2638 N.ar      1 ATP        -0.6661
     31 C4         -0.3487    3.3198    0.9322 C.ar      1 ATP         0.6308
     32 HOG2        8.4705   -1.4733   -4.3157 H         1 ATP         0.4930
     33 HOG3        7.1430   -4.6055   -1.6247 H         1 ATP         0.4930
     34 HOB2        3.4963   -2.8273   -6.0585 H         1 ATP         0.4808
     35 H5'1        1.2153   -0.0781   -2.0454 H         1 ATP         0.0350
     36 H5'2        2.4645   -1.3454   -2.1547 H         1 ATP         0.0350
     37 H4'         3.8050   -0.1388   -0.4008 H         1 ATP         0.1244
     38 H3'         1.6784   -1.7629    0.2714 H         1 ATP         0.0924
     39 HO3'        2.2232   -1.2979    2.3953 H         1 ATP         0.4379
     40 H2'        -0.0011    0.0027    0.0003 H         1 ATP         0.0849
     41 HO2'       -0.6141    0.5574    2.1082 H         1 ATP         0.4417
     42 H1'         1.7826    1.9024    1.6451 H         1 ATP         0.1307
     43 H8          0.6728    2.3873   -1.9272 H         1 ATP         0.2875
     44 HN61       -2.5537    5.7714   -1.2667 H         1 ATP         0.4559
     45 HN62       -3.3282    6.5126    0.1080 H         1 ATP         0.4559
     46 H2         -1.4818    4.3694    3.7565 H         1 ATP         0.0858
     47 H47        -1.0701    4.2005   -2.0743 H         1 ATP         0.5042
@<TRIPOS>BOND
     1    1    2 2
     2    1    3 1
     3    1    4 1
     4    1    8 1
     5    3   32 1
     6    4   33 1
     7    5    6 2
     8    5    7 1
     9    5    8 1
    10    5   12 1
    11    7   34 1
    12    9   10 2
    13    9   11 1
    14    9   12 1
    15    9   13 1
    16   13   14 1
    17   14   15 1
    18   14   35 1
    19   14   36 1
    20   15   16 1
    21   15   17 1
    22   15   37 1
    23   16   21 1
    24   17   18 1
    25   17   19 1
    26   17   38 1
    27   18   39 1
    28   19   20 1
    29   19   21 1
    30   19   40 1
    31   20   41 1
    32   21   22 1
    33   21   42 1
    34   22   23 ar
    35   22   31 ar
    36   23   24 ar
    37   23   43 1
    38   24   25 ar
    39   24   47 1
    40   25   26 ar
    41   25   31 ar
    42   26   27 1
    43   26   28 ar
    44   27   44 1
    45   27   45 1
    46   28   29 ar
    47   29   30 ar
    48   29   46 1
    49   30   31 ar
@<TRIPOS>SUBSTRUCTURE
     1 ATP         1 GROUP 0 A     ****
@<TRIPOS>MOLECULE
[5-(6-amino-7,8-dihydropurin-8-ylium-9-yl)-3,4-dihydroxy-tetrahydrofuran-2-yl]methyl [hydroxy(phosphonooxy)phosphoryl] phosphate
   47    49     1     0     0
SMALL
USER_CHARGES

@<TRIPOS>ATOM
      1 PG          5.0085    1.0380   -6.0770 P.3       1 ATP         1.8237
      2 O1G         4.7448    1.5138   -4.6790 O.2       1 ATP        -0.8455
      3 O2G         4.0874    1.7303   -7.2114 O.3       1 ATP        -0.7970
      4 O3G         6.5098    1.3102   -6.6130 O.3       1 ATP        -0.7970
      5 PB          3.4815   -1.4701   -6.1628 P.3       1 ATP         1.9358
      6 O1B         2.3063   -1.0794   -7.0094 O.2       1 ATP        -0.8836
      7 O2B         4.0458   -2.9626   -6.4222 O.3       1 ATP        -0.8065
      8 O3B         4.7920   -0.5417   -6.3301 O.3       1 ATP        -0.8233
      9 PA          2.1361   -2.2694   -3.6576 P.3       1 ATP         1.5686
     10 O1A         2.4847   -3.7413   -3.7034 O.co2     1 ATP        -0.8169
     11 O2A         0.7444   -1.7928   -4.0127 O.co2     1 ATP        -0.8169
     12 O3A         3.2088   -1.4460   -4.5707 O.3       1 ATP        -0.7987
     13 O5'         2.5237   -1.6631   -2.1889 O.3       1 ATP        -0.5693
     14 C5'         2.2816   -0.2918   -1.9206 C.3       1 ATP         0.1841
     15 C4'         2.7248    0.0226   -0.4980 C.3       1 ATP         0.0904
     16 O4'         2.4697    1.4219   -0.2462 O.3       1 ATP        -0.4083
     17 C3'         1.9404   -0.7419    0.5596 C.3       1 ATP         0.0826
     18 O3'         2.7418   -0.8086    1.7389 O.3       1 ATP        -0.6106
     19 C2'         0.7477    0.1630    0.7858 C.3       1 ATP         0.1294
     20 O2'         0.1373   -0.0577    2.0407 O.3       1 ATP        -0.5701
     21 C1'         1.3733    1.5427    0.6747 C.3       1 ATP         0.3967
     22 N9          0.4520    2.5240    0.1767 N.pl3     1 ATP        -0.5600
     23 C8          0.1928    2.8484   -1.0815 C.ar      1 ATP         0.3009
     24 N7         -0.7248    3.8048   -1.2110 N.pl3     1 ATP        -0.5113
     25 C5         -1.0765    4.1129    0.0571 C.ar      1 ATP        -0.2824
     26 C6         -1.9614    5.0063    0.5851 C.ar      1 ATP         0.7670
     27 N6         -2.7145    5.8254   -0.2810 N.pl3     1 ATP        -0.9491
     28 N1         -2.1199    5.1113    1.9228 N.ar      1 ATP        -0.7474
     29 C2         -1.3522    4.2822    2.6839 C.ar      1 ATP         0.7118
     30 N3         -0.4501    3.3660    2.2638 N.ar      1 ATP        -0.6661
     31 C4         -0.3487    3.3198    0.9322 C.ar      1 ATP         0.6308
     32 HOG2        3.1130    1.6325   -7.1562 H         1 ATP         0.4930
     33 HOG3        7.2653    0.9125   -6.1298 H         1 ATP         0.4930
     34 HOB2        3.4488   -3.7276   -6.2792 H         1 ATP         0.4808
     35 H5'1        2.8429    0.3140   -2.6391 H         1 ATP         0.0350
     36 H5'2        1.2125   -0.0906   -2.0420 H         1 ATP         0.0350
     37 H4'         3.8050   -0.1388   -0.4008 H         1 ATP         0.1244
     38 H3'         1.6784   -1.7629    0.2714 H         1 ATP         0.0924
     39 HO3'        2.2232   -1.2979    2.3953 H         1 ATP         0.4379
     40 H2'        -0.0011    0.0027    0.0003 H         1 ATP         0.0849
     41 HO2'       -0.6141    0.5574    2.1082 H         1 ATP         0.4417
     42 H1'         1.7826    1.9024    1.6451 H         1 ATP         0.1307
     43 H8          0.6728    2.3873   -1.9272 H         1 ATP         0.2875
     44 HN61       -2.5537    5.7714   -1.2667 H         1 ATP         0.4559
     45 HN62       -3.3282    6.5126    0.1080 H         1 ATP         0.4559
     46 H2         -1.4818    4.3694    3.7565 H         1 ATP         0.0858
     47 H47        -1.0701    4.2005   -2.0743 H         1 ATP         0.5042
@<TRIPOS>BOND
     1    1    2 2
     2    1    3 1
     3    1    4 1
     4    1    8 1
     5    3   32 1
     6    4   33 1
     7    5    6 2
     8    5    7 1
     9    5    8 1
    10    5   12 1
    11    7   34 1
    12    9   10 2
    13    9   11 1
    14    9   12 1
    15    9   13 1
    16   13   14 1
    17   14   15 1
    18   14   35 1
    19   14   36 1
    20   15   16 1
    21   15   17 1
    22   15   37 1
    23   16   21 1
    24   17   18 1
    25   17   19 1
    26   17   38 1
    27   18   39 1
    28   19   20 1
    29   19   21 1
    30   19   40 1
    31   20   41 1
    32   21   22 1
    33   21   42 1
    34   22   23 ar
    35   22   31 ar
    36   23   24 ar
    37   23   43 1
    38   24   25 ar
    39   24   47 1
    40   25   26 ar
    41   25   31 ar
    42   26   27 1
    43   26   28 ar
    44   27   44 1
    45   27   45 1
    46   28   29 ar
    47   29   30 ar
    48   29   46 1
    49   30   31 ar
@<TRIPOS>SUBSTRUCTURE
     1 ATP         1 GROUP 0 A     ****
@<TRIPOS>MOLECULE
[5-(6-amino-7,8-dihydropurin-8-ylium-9-yl)-3,4-dihydroxy-tetrahydrofuran-2-yl]methyl [hydroxy(phosphonooxy)phosphoryl] phosphate
   47    49     1     0     0
SMALL
USER_CHARGES

@<TRIPOS>ATOM
      1 PG          6.1401   -3.8598   -2.6928 P.3       1 ATP         1.8237
      2 O1G         4.7618   -4.3468   -3.0294 O.2       1 ATP        -0.8455
      3 O2G         6.4041   -3.6158   -1.1163 O.3       1 ATP        -0.7970
      4 O3G         7.3347   -4.8672   -3.1090 O.3       1 ATP        -0.7970
      5 PB          5.9201   -0.9835   -3.2485 P.3       1 ATP         1.9358
      6 O1B         5.8780   -0.4105   -1.8628 O.2       1 ATP        -0.8836
      7 O2B         6.7624   -0.1170   -4.3222 O.3       1 ATP        -0.8065
      8 O3B         6.5697   -2.4572   -3.3669 O.3       1 ATP        -0.8233
      9 PA          3.3322   -0.0533   -4.3265 P.3       1 ATP         1.5686
     10 O1A         2.1130   -0.7769   -4.8559 O.co2     1 ATP        -0.8169
     11 O2A         3.9798    1.0571   -5.1250 O.co2     1 ATP        -0.8169
     12 O3A         4.4780   -1.1544   -3.9562 O.3       1 ATP        -0.7987
     13 O5'         3.0197    0.5137   -2.8245 O.3       1 ATP        -0.5693
     14 C5'         2.2816   -0.2918   -1.9206 C.3       1 ATP         0.1841
     15 C4'         2.7248    0.0226   -0.4980 C.3       1 ATP         0.0904
     16 O4'         2.4697    1.4219   -0.2462 O.3       1 ATP        -0.4083
     17 C3'         1.9404   -0.7419    0.5596 C.3       1 ATP         0.0826
     18 O3'         2.7418   -0.8086    1.7389 O.3       1 ATP        -0.6106
     19 C2'         0.7477    0.1630    0.7858 C.3       1 ATP         0.1294
     20 O2'         0.1373   -0.0577    2.0407 O.3       1 ATP        -0.5701
     21 C1'         1.3733    1.5427    0.6747 C.3       1 ATP         0.3967
     22 N9          0.4520    2.5240    0.1767 N.pl3     1 ATP        -0.5600
     23 C8          0.1928    2.8484   -1.0815 C.ar      1 ATP         0.3009
     24 N7         -0.7248    3.8048   -1.2110 N.pl3     1 ATP        -0.5113
     25 C5         -1.0765    4.1129    0.0571 C.ar      1 ATP        -0.2824
     26 C6         -1.9614    5.0063    0.5851 C.ar      1 ATP         0.7670
     27 N6         -2.7145    5.8254   -0.2810 N.pl3     1 ATP        -0.9491
     28 N1         -2.1199    5.1113    1.9228 N.ar      1 ATP        -0.7474
     29 C2         -1.3522    4.2822    2.6839 C.ar      1 ATP         0.7118
     30 N3         -0.4501    3.3660    2.2638 N.ar      1 ATP        -0.6661
     31 C4         -0.3487    3.3198    0.9322 C.ar      1 ATP         0.6308
     32 HOG2        5.8484   -2.9647   -0.6373 H         1 ATP         0.4930
     33 HOG3        7.4429   -5.1101   -4.0533 H         1 ATP         0.4930
     34 HOB2        6.4867    0.8057   -4.5089 H         1 ATP         0.4808
     35 H5'1        1.2153   -0.0781   -2.0454 H         1 ATP         0.0350
     36 H5'2        2.4645   -1.3454   -2.1547 H         1 ATP         0.0350
     37 H4'         3.8050   -0.1388   -0.4008 H         1 ATP         0.1244
     38 H3'         1.6784   -1.7629    0.2714 H         1 ATP         0.0924
     39 HO3'        2.2232   -1.2979    2.3953 H         1 ATP         0.4379
     40 H2'        -0.0011    0.0027    0.0003 H         1 ATP         0.0849
     41 HO2'       -0.6141    0.5574    2.1082 H         1 ATP         0.4417
     42 H1'         1.7826    1.9024    1.6451 H         1 ATP         0.1307
     43 H8          0.6728    2.3873   -1.9272 H         1 ATP         0.2875
     44 HN61       -2.5537    5.7714   -1.2667 H         1 ATP         0.4559
     45 HN62       -3.3282    6.5126    0.1080 H         1 ATP         0.4559
     46 H2         -1.4818    4.3694    3.7565 H         1 ATP         0.0858
     47 H47        -1.0701    4.2005   -2.0743 H         1 ATP         0.5042
@<TRIPOS>BOND
     1    1    2 2
     2    1    3 1
     3    1    4 1
     4    1    8 1
     5    3   32 1
     6    4   33 1
     7    5    6 2
     8    5    7 1
     9    5    8 1
    10    5   12 1
    11    7   34 1
    12    9   10 2
    13    9   11 1
    14    9   12 1
    15    9   13 1
    16   13   14 1
    17   14   15 1
    18   14   35 1
    19   14   36 1
    20   15   16 1
    21   15   17 1
    22   15   37 1
    23   16   21 1
    24   17   18 1
    25   17   19 1
    26   17   38 1
    27   18   39 1
    28   19   20 1
    29   19   21 1
    30   19   40 1
    31   20   41 1
    32   21   22 1
    33   21   42 1
    34   22   23 ar
    35   22   31 ar
    36   23   24 ar
    37   23   43 1
    38   24   25 ar
    39   24   47 1
    40   25   26 ar
    41   25   31 ar
    42   26   27 1
    43   26   28 ar
    44   27   44 1
    45   27   45 1
    46   28   29 ar
    47   29   30 ar
    48   29   46 1
    49   30   31 ar
@<TRIPOS>SUBSTRUCTURE
     1 ATP         1 GROUP 0 A     ****
@<TRIPOS>MOLECULE
[5-(6-amino-7,8-dihydropurin-8-ylium-9-yl)-3,4-dihydroxy-tetrahydrofuran-2-yl]methyl [hydroxy(phosphonooxy)phosphoryl] phosphate
   47    49     1     0     0
SMALL
USER_CHARGES

@<TRIPOS>ATOM
      1 PG          4.2475   -4.3951   -4.5520 P.3       1 ATP         1.8237
      2 O1G         4.7436   -3.7321   -3.3011 O.2       1 ATP        -0.8455
      3 O2G         5.3456   -4.5182   -5.7325 O.3       1 ATP        -0.7970
      4 O3G         3.7509   -5.9218   -4.3579 O.3       1 ATP        -0.7970
      5 PB          2.8429   -2.1899   -5.8915 P.3       1 ATP         1.9358
      6 O1B         3.7972   -1.8523   -6.9986 O.2       1 ATP        -0.8836
      7 O2B         1.2780   -2.1114   -6.2890 O.3       1 ATP        -0.8065
      8 O3B         2.9972   -3.6748   -5.2758 O.3       1 ATP        -0.8233
      9 PA          2.7386    0.3748   -4.4298 P.3       1 ATP         1.5686
     10 O1A         1.2920    0.7120   -4.7193 O.co2     1 ATP        -0.8169
     11 O2A         3.8587    1.0755   -5.1675 O.co2     1 ATP        -0.8169
     12 O3A         2.9461   -1.2355   -4.5921 O.3       1 ATP        -0.7987
     13 O5'         3.0197    0.5137   -2.8245 O.3       1 ATP        -0.5693
     14 C5'         2.2816   -0.2918   -1.9206 C.3       1 ATP         0.1841
     15 C4'         2.7248    0.0226   -0.4980 C.3       1 ATP         0.0904
     16 O4'         2.4697    1.4219   -0.2462 O.3       1 ATP        -0.4083
     17 C3'         1.9404   -0.7419    0.5596 C.3       1 ATP         0.0826
     18 O3'         2.7418   -0.8086    1.7389 O.3       1 ATP        -0.6106
     19 C2'         0.7477    0.1630    0.7858 C.3       1 ATP         0.1294
     20 O2'         0.1373   -0.0577    2.0407 O.3       1 ATP        -0.5701
     21 C1'         1.3733    1.5427    0.6747 C.3       1 ATP         0.3967
     22 N9          0.4520    2.5240    0.1767 N.pl3     1 ATP        -0.5600
     23 C8          0.1928    2.8484   -1.0815 C.ar      1 ATP         0.3009
     24 N7         -0.7248    3.8048   -1.2110 N.pl3     1 ATP        -0.5113
     25 C5         -1.0765    4.1129    0.0571 C.ar      1 ATP        -0.2824
     26 C6         -1.9614    5.0063    0.5851 C.ar      1 ATP         0.7670
     27 N6         -2.7145    5.8254   -0.2810 N.pl3     1 ATP        -0.9491
     28 N1         -2.1199    5.1113    1.9228 N.ar      1 ATP        -0.7474
     29 C2         -1.3522    4.2822    2.6839 C.ar      1 ATP         0.7118
     30 N3         -0.4501    3.3660    2.2638 N.ar      1 ATP        -0.6661
     31 C4         -0.3487    3.3198    0.9322 C.ar      1 ATP         0.6308
     32 HOG2        6.1702   -5.0215   -5.5629 H         1 ATP         0.4930
     33 HOG3        3.0127   -6.1053   -3.7383 H         1 ATP         0.4930
     34 HOB2        0.9094   -1.2574   -6.6005 H         1 ATP         0.4808
     35 H5'1        1.2153   -0.0781   -2.0454 H         1 ATP         0.0350
     36 H5'2        2.4645   -1.3454   -2.1547 H         1 ATP         0.0350
     37 H4'         3.8050   -0.1388   -0.4008 H         1 ATP         0.1244
     38 H3'         1.6784   -1.7629    0.2714 H         1 ATP         0.0924
     39 HO3'        2.2232   -1.2979    2.3953 H         1 ATP         0.4379
     40 H2'        -0.0011    0.0027    0.0003 H         1 ATP         0.0849
     41 HO2'       -0.1563   -0.9855    2.0596 H         1 ATP         0.4417
     42 H1'         1.7826    1.9024    1.6451 H         1 ATP         0.1307
     43 H8          0.6728    2.3873   -1.9272 H         1 ATP         0.2875
     44 HN61       -2.5537    5.7714   -1.2667 H         1 ATP         0.4559
     45 HN62       -3.3282    6.5126    0.1080 H         1 ATP         0.4559
     46 H2         -1.4818    4.3694    3.7565 H         1 ATP         0.0858
     47 H47        -1.0701    4.2005   -2.0743 H         1 ATP         0.5042
@<TRIPOS>BOND
     1    1    2 2
     2    1    3 1
     3    1    4 1
     4    1    8 1
     5    3   32 1
     6    4   33 1
     7    5    6 2
     8    5    7 1
     9    5    8 1
    10    5   12 1
    11    7   34 1
    12    9   10 2
    13    9   11 1
    14    9   12 1
    15    9   13 1
    16   13   14 1
    17   14   15 1
    18   14   35 1
    19   14   36 1
    20   15   16 1
    21   15   17 1
    22   15   37 1
    23   16   21 1
    24   17   18 1
    25   17   19 1
    26   17   38 1
    27   18   39 1
    28   19   20 1
    29   19   21 1
    30   19   40 1
    31   20   41 1
    32   21   22 1
    33   21   42 1
    34   22   23 ar
    35   22   31 ar
    36   23   24 ar
    37   23   43 1
    38   24   25 ar
    39   24   47 1
    40   25   26 ar
    41   25   31 ar
    42   26   27 1
    43   26   28 ar
    44   27   44 1
    45   27   45 1
    46   28   29 ar
    47   29   30 ar
    48   29   46 1
    49   30   31 ar
@<TRIPOS>SUBSTRUCTURE
     1 ATP         1 GROUP 0 A     ****
@<TRIPOS>MOLECULE
[5-(6-amino-7,8-dihydropurin-8-ylium-9-yl)-3,4-dihydroxy-tetrahydrofuran-2-yl]methyl [hydroxy(phosphonooxy)phosphoryl] phosphate
   47    49     1     0     0
SMALL
USER_CHARGES

@<TRIPOS>ATOM
      1 PG          3.0173   -5.0801   -4.0989 P.3       1 ATP         1.8237
      2 O1G         1.6138   -4.5591   -4.1939 O.2       1 ATP        -0.8455
      3 O2G         3.4957   -5.4640   -2.6028 O.3       1 ATP        -0.7970
      4 O3G         3.2918   -6.4413   -4.9279 O.3       1 ATP        -0.7970
      5 PB          4.5889   -2.5983   -4.1200 P.3       1 ATP         1.9358
      6 O1B         5.0181   -2.5004   -2.6859 O.2       1 ATP        -0.8836
      7 O2B         5.7017   -2.1421   -5.2002 O.3       1 ATP        -0.8065
      8 O3B         4.1716   -4.0772   -4.6164 O.3       1 ATP        -0.8233
      9 PA          3.0648   -0.0870   -4.4293 P.3       1 ATP         1.5686
     10 O1A         1.6239    0.2105   -4.7833 O.co2     1 ATP        -0.8169
     11 O2A         4.1983    0.5973   -5.1621 O.co2     1 ATP        -0.8169
     12 O3A         3.3035   -1.6993   -4.5064 O.3       1 ATP        -0.7987
     13 O5'         3.2883    0.1336   -2.8242 O.3       1 ATP        -0.5693
     14 C5'         2.2816   -0.2918   -1.9206 C.3       1 ATP         0.1841
     15 C4'         2.7248    0.0226   -0.4980 C.3       1 ATP         0.0904
     16 O4'         2.4697    1.4219   -0.2462 O.3       1 ATP        -0.4083
     17 C3'         1.9404   -0.7419    0.5596 C.3       1 ATP         0.0826
     18 O3'         2.7418   -0.8086    1.7389 O.3       1 ATP        -0.6106
     19 C2'         0.7477    0.1630    0.7858 C.3       1 ATP         0.1294
     20 O2'         0.1373   -0.0577    2.0407 O.3       1 ATP        -0.5701
     21 C1'         1.3733    1.5427    0.6747 C.3       1 ATP         0.3967
     22 N9          0.4520    2.5240    0.1767 N.pl3     1 ATP        -0.5600
     23 C8          0.1928    2.8484   -1.0815 C.ar      1 ATP         0.3009
     24 N7         -0.7248    3.8048   -1.2110 N.pl3     1 ATP        -0.5113
     25 C5         -1.0765    4.1129    0.0571 C.ar      1 ATP        -0.2824
     26 C6         -1.9614    5.0063    0.5851 C.ar      1 ATP         0.7670
     27 N6         -2.7145    5.8254   -0.2810 N.pl3     1 ATP        -0.9491
     28 N1         -2.1199    5.1113    1.9228 N.ar      1 ATP        -0.7474
     29 C2         -1.3522    4.2822    2.6839 C.ar      1 ATP         0.7118
     30 N3         -0.4501    3.3660    2.2638 N.ar      1 ATP        -0.6661
     31 C4         -0.3487    3.3198    0.9322 C.ar      1 ATP         0.6308
     32 HOG2        3.5031   -4.7663   -1.9133 H         1 ATP         0.4930
     33 HOG3        3.1531   -6.4413   -5.8991 H         1 ATP         0.4930
     34 HOB2        6.0452   -1.2238   -5.1693 H         1 ATP         0.4808
     35 H5'1        1.3500    0.2325   -2.1560 H         1 ATP         0.0350
     36 H5'2        2.1266   -1.3683   -2.0443 H         1 ATP         0.0350
     37 H4'         3.8050   -0.1388   -0.4008 H         1 ATP         0.1244
     38 H3'         1.6784   -1.7629    0.2714 H         1 ATP         0.0924
     39 HO3'        3.5554   -1.2733    1.4914 H         1 ATP         0.4379
     40 H2'        -0.0011    0.0027    0.0003 H         1 ATP         0.0849
     41 HO2'       -0.1563   -0.9855    2.0596 H         1 ATP         0.4417
     42 H1'         1.7826    1.9024    1.6451 H         1 ATP         0.1307
     43 H8          0.6728    2.3873   -1.9272 H         1 ATP         0.2875
     44 HN61       -3.3968    6.4465    0.1048 H         1 ATP         0.4559
     45 HN62       -2.6221    5.7051   -1.2696 H         1 ATP         0.4559
     46 H2         -1.4818    4.3694    3.7565 H         1 ATP         0.0858
     47 H47        -1.0701    4.2005   -2.0743 H         1 ATP         0.5042
@<TRIPOS>BOND
     1    1    2 2
     2    1    3 1
     3    1    4 1
     4    1    8 1
     5    3   32 1
     6    4   33 1
     7    5    6 2
     8    5    7 1
     9    5    8 1
    10    5   12 1
    11    7   34 1
    12    9   10 2
    13    9   11 1
    14    9   12 1
    15    9   13 1
    16   13   14 1
    17   14   15 1
    18   14   35 1
    19   14   36 1
    20   15   16 1
    21   15   17 1
    22   15   37 1
    23   16   21 1
    24   17   18 1
    25   17   19 1
    26   17   38 1
    27   18   39 1
    28   19   20 1
    29   19   21 1
    30   19   40 1
    31   20   41 1
    32   21   22 1
    33   21   42 1
    34   22   23 ar
    35   22   31 ar
    36   23   24 ar
    37   23   43 1
    38   24   25 ar
    39   24   47 1
    40   25   26 ar
    41   25   31 ar
    42   26   27 1
    43   26   28 ar
    44   27   44 1
    45   27   45 1
    46   28   29 ar
    47   29   30 ar
    48   29   46 1
    49   30   31 ar
@<TRIPOS>SUBSTRUCTURE
     1 ATP         1 GROUP 0 A     ****
@<TRIPOS>MOLECULE
[5-(6-amino-7,8-dihydropurin-8-ylium-9-yl)-3,4-dihydroxy-tetrahydrofuran-2-yl]methyl [hydroxy(phosphonooxy)phosphoryl] phosphate
   47    49     1     0     0
SMALL
USER_CHARGES

@<TRIPOS>ATOM
      1 PG          6.6905   -3.5488   -5.2768 P.3       1 ATP         1.8237
      2 O1G         7.4658   -2.9095   -6.3905 O.2       1 ATP        -0.8455
      3 O2G         6.3639   -5.1174   -5.4946 O.3       1 ATP        -0.7970
      4 O3G         7.4295   -3.5285   -3.8385 O.3       1 ATP        -0.7970
      5 PB          4.8233   -1.4074   -4.5299 P.3       1 ATP         1.9358
      6 O1B         5.4096   -0.9343   -3.2326 O.2       1 ATP        -0.8836
      7 O2B         5.2081   -0.5141   -5.8210 O.3       1 ATP        -0.8065
      8 O3B         5.2427   -2.9027   -4.9725 O.3       1 ATP        -0.8233
      9 PA          2.1361   -2.2694   -3.6576 P.3       1 ATP         1.5686
     10 O1A         2.4847   -3.7413   -3.7034 O.co2     1 ATP        -0.8169
     11 O2A         0.7444   -1.7928   -4.0127 O.co2     1 ATP        -0.8169
     12 O3A         3.2088   -1.4460   -4.5707 O.3       1 ATP        -0.7987
     13 O5'         2.5237   -1.6631   -2.1889 O.3       1 ATP        -0.5693
     14 C5'         2.2816   -0.2918   -1.9206 C.3       1 ATP         0.1841
     15 C4'         2.7248    0.0226   -0.4980 C.3       1 ATP         0.0904
     16 O4'         2.4697    1.4219   -0.2462 O.3       1 ATP        -0.4083
     17 C3'         1.9404   -0.7419    0.5596 C.3       1 ATP         0.0826
     18 O3'         2.7418   -0.8086    1.7389 O.3       1 ATP        -0.6106
     19 C2'         0.7477    0.1630    0.7858 C.3       1 ATP         0.1294
     20 O2'         0.1373   -0.0577    2.0407 O.3       1 ATP        -0.5701
     21 C1'         1.3733    1.5427    0.6747 C.3       1 ATP         0.3967
     22 N9          0.4520    2.5240    0.1767 N.pl3     1 ATP        -0.5600
     23 C8          0.1928    2.8484   -1.0815 C.ar      1 ATP         0.3009
     24 N7         -0.7248    3.8048   -1.2110 N.pl3     1 ATP        -0.5113
     25 C5         -1.0765    4.1129    0.0571 C.ar      1 ATP        -0.2824
     26 C6         -1.9614    5.0063    0.5851 C.ar      1 ATP         0.7670
     27 N6         -2.7145    5.8254   -0.2810 N.pl3     1 ATP        -0.9491
     28 N1         -2.1199    5.1113    1.9228 N.ar      1 ATP        -0.7474
     29 C2         -1.3522    4.2822    2.6839 C.ar      1 ATP         0.7118
     30 N3         -0.4501    3.3660    2.2638 N.ar      1 ATP        -0.6661
     31 C4         -0.3487    3.3198    0.9322 C.ar      1 ATP         0.6308
     32 HOG2        5.8361   -5.3882   -6.2758 H         1 ATP         0.4930
     33 HOG3        7.6631   -2.6642   -3.4375 H         1 ATP         0.4930
     34 HOB2        6.1527   -0.4165   -6.0666 H         1 ATP         0.4808
     35 H5'1        2.8429    0.3140   -2.6391 H         1 ATP         0.0350
     36 H5'2        1.2125   -0.0906   -2.0420 H         1 ATP         0.0350
     37 H4'         3.8050   -0.1388   -0.4008 H         1 ATP         0.1244
     38 H3'         1.6784   -1.7629    0.2714 H         1 ATP         0.0924
     39 HO3'        2.2232   -1.2979    2.3953 H         1 ATP         0.4379
     40 H2'        -0.0011    0.0027    0.0003 H         1 ATP         0.0849
     41 HO2'       -0.6141    0.5574    2.1082 H         1 ATP         0.4417
     42 H1'         1.7826    1.9024    1.6451 H         1 ATP         0.1307
     43 H8          0.6728    2.3873   -1.9272 H         1 ATP         0.2875
     44 HN61       -2.5537    5.7714   -1.2667 H         1 ATP         0.4559
     45 HN62       -3.3282    6.5126    0.1080 H         1 ATP         0.4559
     46 H2         -1.4818    4.3694    3.7565 H         1 ATP         0.0858
     47 H47        -1.0701    4.2005   -2.0743 H         1 ATP         0.5042
@<TRIPOS>BOND
     1    1    2 2
     2    1    3 1
     3    1    4 1
     4    1    8 1
     5    3   32 1
     6    4   33 1
     7    5    6 2
     8    5    7 1
     9    5    8 1
    10    5   12 1
    11    7   34 1
    12    9   10 2
    13    9   11 1
    14    9   12 1
    15    9   13 1
    16   13   14 1
    17   14   15 1
    18   14   35 1
    19   14   36 1
    20   15   16 1
    21   15   17 1
    22   15   37 1
    23   16   21 1
    24   17   18 1
    25   17   19 1
    26   17   38 1
    27   18   39 1
    28   19   20 1
    29   19   21 1
    30   19   40 1
    31   20   41 1
    32   21   22 1
    33   21   42 1
    34   22   23 ar
    35   22   31 ar
    36   23   24 ar
    37   23   43 1
    38   24   25 ar
    39   24   47 1
    40   25   26 ar
    41   25   31 ar
    42   26   27 1
    43   26   28 ar
    44   27   44 1
    45   27   45 1
    46   28   29 ar
    47   29   30 ar
    48   29   46 1
    49   30   31 ar
@<TRIPOS>SUBSTRUCTURE
     1 ATP         1 GROUP 0 A     ****
@<TRIPOS>MOLECULE
[5-(6-amino-7,8-dihydropurin-8-ylium-9-yl)-3,4-dihydroxy-tetrahydrofuran-2-yl]methyl [hydroxy(phosphonooxy)phosphoryl] phosphate
   47    49     1     0     0
SMALL
USER_CHARGES

@<TRIPOS>ATOM
      1 PG          2.9676    4.6798   -5.9359 P.3       1 ATP         1.8237
      2 O1G         1.7851    5.4358   -6.4655 O.2       1 ATP        -0.8455
      3 O2G         4.2105    4.5633   -6.9636 O.3       1 ATP        -0.7970
      4 O3G         3.6469    5.3227   -4.6166 O.3       1 ATP        -0.7970
      5 PB          1.6774    2.5206   -4.4181 P.3       1 ATP         1.9358
      6 O1B         1.9097    2.9649   -3.0042 O.2       1 ATP        -0.8836
      7 O2B         0.2155    2.8691   -5.0136 O.3       1 ATP        -0.8065
      8 O3B         2.6852    3.1475   -5.5132 O.3       1 ATP        -0.8233
      9 PA          3.0648   -0.0870   -4.4293 P.3       1 ATP         1.5686
     10 O1A         4.2654    0.4430   -5.1830 O.co2     1 ATP        -0.8169
     11 O2A         2.5779   -1.5030   -4.6479 O.co2     1 ATP        -0.8169
     12 O3A         1.8088    0.9287   -4.6595 O.3       1 ATP        -0.7987
     13 O5'         3.2883    0.1336   -2.8242 O.3       1 ATP        -0.5693
     14 C5'         2.2816   -0.2918   -1.9206 C.3       1 ATP         0.1841
     15 C4'         2.7248    0.0226   -0.4980 C.3       1 ATP         0.0904
     16 O4'         2.4697    1.4219   -0.2462 O.3       1 ATP        -0.4083
     17 C3'         1.9404   -0.7419    0.5596 C.3       1 ATP         0.0826
     18 O3'         2.7418   -0.8086    1.7389 O.3       1 ATP        -0.6106
     19 C2'         0.7477    0.1630    0.7858 C.3       1 ATP         0.1294
     20 O2'         0.1373   -0.0577    2.0407 O.3       1 ATP        -0.5701
     21 C1'         1.3733    1.5427    0.6747 C.3       1 ATP         0.3967
     22 N9          0.4520    2.5240    0.1767 N.pl3     1 ATP        -0.5600
     23 C8         -0.2172    2.5216   -0.9668 C.ar      1 ATP         0.3009
     24 N7         -1.0011    3.5855   -1.1321 N.pl3     1 ATP        -0.5113
     25 C5         -0.8184    4.3200   -0.0123 C.ar      1 ATP        -0.2824
     26 C6         -1.3349    5.5079    0.4144 C.ar      1 ATP         0.7670
     27 N6         -2.2567    6.1930   -0.4036 N.pl3     1 ATP        -0.9491
     28 N1         -0.9716    6.0291    1.6069 N.ar      1 ATP        -0.7474
     29 C2         -0.0765    5.3009    2.3312 C.ar      1 ATP         0.7118
     30 N3          0.4933    4.1191    2.0023 N.ar      1 ATP        -0.6661
     31 C4          0.0865    3.6675    0.8123 C.ar      1 ATP         0.6308
     32 HOG2        4.0717    4.1210   -7.8280 H         1 ATP         0.4930
     33 HOG3        3.1048    5.4231   -3.8051 H         1 ATP         0.4930
     34 HOB2       -0.0658    3.8075   -5.0631 H         1 ATP         0.4808
     35 H5'1        1.3500    0.2325   -2.1560 H         1 ATP         0.0350
     36 H5'2        2.1266   -1.3683   -2.0443 H         1 ATP         0.0350
     37 H4'         3.8050   -0.1388   -0.4008 H         1 ATP         0.1244
     38 H3'         1.6784   -1.7629    0.2714 H         1 ATP         0.0924
     39 HO3'        2.2232   -1.2979    2.3953 H         1 ATP         0.4379
     40 H2'        -0.0011    0.0027    0.0003 H         1 ATP         0.0849
     41 HO2'       -0.6141    0.5574    2.1082 H         1 ATP         0.4417
     42 H1'         1.7826    1.9024    1.6451 H         1 ATP         0.1307
     43 H8         -0.1423    1.7373   -1.6999 H         1 ATP         0.2875
     44 HN61       -2.4811    5.8206   -1.3042 H         1 ATP         0.4559
     45 HN62       -2.5986    7.0863   -0.1113 H         1 ATP         0.4559
     46 H2          0.2128    5.7222    3.2871 H         1 ATP         0.0858
     47 H47        -1.5947    3.7835   -1.9255 H         1 ATP         0.5042
@<TRIPOS>BOND
     1    1    2 2
     2    1    3 1
     3    1    4 1
     4    1    8 1
     5    3   32 1
     6    4   33 1
     7    5    6 2
     8    5    7 1
     9    5    8 1
    10    5   12 1
    11    7   34 1
    12    9   10 2
    13    9   11 1
    14    9   12 1
    15    9   13 1
    16   13   14 1
    17   14   15 1
    18   14   35 1
    19   14   36 1
    20   15   16 1
    21   15   17 1
    22   15   37 1
    23   16   21 1
    24   17   18 1
    25   17   19 1
    26   17   38 1
    27   18   39 1
    28   19   20 1
    29   19   21 1
    30   19   40 1
    31   20   41 1
    32   21   22 1
    33   21   42 1
    34   22   23 ar
    35   22   31 ar
    36   23   24 ar
    37   23   43 1
    38   24   25 ar
    39   24   47 1
    40   25   26 ar
    41   25   31 ar
    42   26   27 1
    43   26   28 ar
    44   27   44 1
    45   27   45 1
    46   28   29 ar
    47   29   30 ar
    48   29   46 1
    49   30   31 ar
@<TRIPOS>SUBSTRUCTURE
     1 ATP         1 GROUP 0 A     ****
@<TRIPOS>MOLECULE
[5-(6-amino-7,8-dihydropurin-8-ylium-9-yl)-3,4-dihydroxy-tetrahydrofuran-2-yl]methyl [hydroxy(phosphonooxy)phosphoryl] phosphate
   47    49     1     0     0
SMALL
USER_CHARGES

@<TRIPOS>ATOM
      1 PG         -1.5149   -0.7388   -5.3655 P.3       1 ATP         1.8237
      2 O1G        -1.3215   -0.6078   -3.8836 O.2       1 ATP        -0.8455
      3 O2G        -1.6795   -2.2581   -5.8937 O.3       1 ATP        -0.7970
      4 O3G        -2.8373   -0.0087   -5.9429 O.3       1 ATP        -0.7970
      5 PB          1.2431   -0.5398   -6.3573 P.3       1 ATP         1.9358
      6 O1B         1.5323   -1.9630   -6.7334 O.2       1 ATP        -0.8836
      7 O2B         1.8554    0.5709   -7.3597 O.3       1 ATP        -0.8065
      8 O3B        -0.3221   -0.1503   -6.2805 O.3       1 ATP        -0.8233
      9 PA          3.3322   -0.0533   -4.3265 P.3       1 ATP         1.5686
     10 O1A         4.1270    0.9770   -5.0991 O.co2     1 ATP        -0.8169
     11 O2A         3.8287   -1.4771   -4.1997 O.co2     1 ATP        -0.8169
     12 O3A         1.8098   -0.0911   -4.9126 O.3       1 ATP        -0.7987
     13 O5'         3.0197    0.5137   -2.8245 O.3       1 ATP        -0.5693
     14 C5'         2.2816   -0.2918   -1.9206 C.3       1 ATP         0.1841
     15 C4'         2.7248    0.0226   -0.4980 C.3       1 ATP         0.0904
     16 O4'         2.4697    1.4219   -0.2462 O.3       1 ATP        -0.4083
     17 C3'         1.9404   -0.7419    0.5596 C.3       1 ATP         0.0826
     18 O3'         2.7418   -0.8086    1.7389 O.3       1 ATP        -0.6106
     19 C2'         0.7477    0.1630    0.7858 C.3       1 ATP         0.1294
     20 O2'         0.1373   -0.0577    2.0407 O.3       1 ATP        -0.5701
     21 C1'         1.3733    1.5427    0.6747 C.3       1 ATP         0.3967
     22 N9          0.4520    2.5240    0.1767 N.pl3     1 ATP        -0.5600
     23 C8          0.1928    2.8484   -1.0815 C.ar      1 ATP         0.3009
     24 N7         -0.7248    3.8048   -1.2110 N.pl3     1 ATP        -0.5113
     25 C5         -1.0765    4.1129    0.0571 C.ar      1 ATP        -0.2824
     26 C6         -1.9614    5.0063    0.5851 C.ar      1 ATP         0.7670
     27 N6         -2.7145    5.8254   -0.2810 N.pl3     1 ATP        -0.9491
     28 N1         -2.1199    5.1113    1.9228 N.ar      1 ATP        -0.7474
     29 C2         -1.3522    4.2822    2.6839 C.ar      1 ATP         0.7118
     30 N3         -0.4501    3.3660    2.2638 N.ar      1 ATP        -0.6661
     31 C4         -0.3487    3.3198    0.9322 C.ar      1 ATP         0.6308
     32 HOG2       -0.9508   -2.8961   -5.7383 H         1 ATP         0.4930
     33 HOG3       -3.7168   -0.2878   -5.6098 H         1 ATP         0.4930
     34 HOB2        2.8264    0.6058   -7.4939 H         1 ATP         0.4808
     35 H5'1        1.2153   -0.0781   -2.0454 H         1 ATP         0.0350
     36 H5'2        2.4645   -1.3454   -2.1547 H         1 ATP         0.0350
     37 H4'         3.8050   -0.1388   -0.4008 H         1 ATP         0.1244
     38 H3'         1.6784   -1.7629    0.2714 H         1 ATP         0.0924
     39 HO3'        2.2232   -1.2979    2.3953 H         1 ATP         0.4379
     40 H2'        -0.0011    0.0027    0.0003 H         1 ATP         0.0849
     41 HO2'       -0.6141    0.5574    2.1082 H         1 ATP         0.4417
     42 H1'         1.7826    1.9024    1.6451 H         1 ATP         0.1307
     43 H8          0.6728    2.3873   -1.9272 H         1 ATP         0.2875
     44 HN61       -2.5537    5.7714   -1.2667 H         1 ATP         0.4559
     45 HN62       -3.3282    6.5126    0.1080 H         1 ATP         0.4559
     46 H2         -1.4818    4.3694    3.7565 H         1 ATP         0.0858
     47 H47        -1.0701    4.2005   -2.0743 H         1 ATP         0.5042
@<TRIPOS>BOND
     1    1    2 2
     2    1    3 1
     3    1    4 1
     4    1    8 1
     5    3   32 1
     6    4   33 1
     7    5    6 2
     8    5    7 1
     9    5    8 1
    10    5   12 1
    11    7   34 1
    12    9   10 2
    13    9   11 1
    14    9   12 1
    15    9   13 1
    16   13   14 1
    17   14   15 1
    18   14   35 1
    19   14   36 1
    20   15   16 1
    21   15   17 1
    22   15   37 1
    23   16   21 1
    24   17   18 1
    25   17   19 1
    26   17   38 1
    27   18   39 1
    28   19   20 1
    29   19   21 1
    30   19   40 1
    31   20   41 1
    32   21   22 1
    33   21   42 1
    34   22   23 ar
    35   22   31 ar
    36   23   24 ar
    37   23   43 1
    38   24   25 ar
    39   24   47 1
    40   25   26 ar
    41   25   31 ar
    42   26   27 1
    43   26   28 ar
    44   27   44 1
    45   27   45 1
    46   28   29 ar
    47   29   30 ar
    48   29   46 1
    49   30   31 ar
@<TRIPOS>SUBSTRUCTURE
     1 ATP         1 GROUP 0 A     ****
@<TRIPOS>MOLECULE
[5-(6-amino-7,8-dihydropurin-8-ylium-9-yl)-3,4-dihydroxy-tetrahydrofuran-2-yl]methyl [hydroxy(phosphonooxy)phosphoryl] phosphate
   47    49     1     0     0
SMALL
USER_CHARGES

@<TRIPOS>ATOM
      1 PG          1.7408   -0.4514   -8.2988 P.3       1 ATP         1.8237
      2 O1G         2.6117    0.5890   -8.9386 O.2       1 ATP        -0.8455
      3 O2G         0.1766   -0.0542   -8.1979 O.3       1 ATP        -0.7970
      4 O3G         1.7052   -1.8723   -9.0702 O.3       1 ATP        -0.7970
      5 PB          3.4815   -1.4701   -6.1628 P.3       1 ATP         1.9358
      6 O1B         3.8842   -2.8064   -6.7129 O.2       1 ATP        -0.8836
      7 O2B         4.5643   -0.2885   -6.3740 O.3       1 ATP        -0.8065
      8 O3B         2.1258   -0.8486   -6.7821 O.3       1 ATP        -0.8233
      9 PA          2.1361   -2.2694   -3.6576 P.3       1 ATP         1.5686
     10 O1A         2.4847   -3.7413   -3.7034 O.co2     1 ATP        -0.8169
     11 O2A         0.7444   -1.7928   -4.0127 O.co2     1 ATP        -0.8169
     12 O3A         3.2088   -1.4460   -4.5707 O.3       1 ATP        -0.7987
     13 O5'         2.5237   -1.6631   -2.1889 O.3       1 ATP        -0.5693
     14 C5'         2.2816   -0.2918   -1.9206 C.3       1 ATP         0.1841
     15 C4'         2.7248    0.0226   -0.4980 C.3       1 ATP         0.0904
     16 O4'         2.4697    1.4219   -0.2462 O.3       1 ATP        -0.4083
     17 C3'         1.9404   -0.7419    0.5596 C.3       1 ATP         0.0826
     18 O3'         2.7418   -0.8086    1.7389 O.3       1 ATP        -0.6106
     19 C2'         0.7477    0.1630    0.7858 C.3       1 ATP         0.1294
     20 O2'         0.1373   -0.0577    2.0407 O.3       1 ATP        -0.5701
     21 C1'         1.3733    1.5427    0.6747 C.3       1 ATP         0.3967
     22 N9          0.4520    2.5240    0.1767 N.pl3     1 ATP        -0.5600
     23 C8          0.1928    2.8484   -1.0815 C.ar      1 ATP         0.3009
     24 N7         -0.7248    3.8048   -1.2110 N.pl3     1 ATP        -0.5113
     25 C5         -1.0765    4.1129    0.0571 C.ar      1 ATP        -0.2824
     26 C6         -1.9614    5.0063    0.5851 C.ar      1 ATP         0.7670
     27 N6         -2.7145    5.8254   -0.2810 N.pl3     1 ATP        -0.9491
     28 N1         -2.1199    5.1113    1.9228 N.ar      1 ATP        -0.7474
     29 C2         -1.3522    4.2822    2.6839 C.ar      1 ATP         0.7118
     30 N3         -0.4501    3.3660    2.2638 N.ar      1 ATP        -0.6661
     31 C4         -0.3487    3.3198    0.9322 C.ar      1 ATP         0.6308
     32 HOG2       -0.0779    0.7465   -7.6918 H         1 ATP         0.4930
     33 HOG3        2.5427   -2.3695   -9.1873 H         1 ATP         0.4930
     34 HOB2        4.8285   -0.0440   -7.2865 H         1 ATP         0.4808
     35 H5'1        2.8429    0.3140   -2.6391 H         1 ATP         0.0350
     36 H5'2        1.2125   -0.0906   -2.0420 H         1 ATP         0.0350
     37 H4'         3.8050   -0.1388   -0.4008 H         1 ATP         0.1244
     38 H3'         1.6784   -1.7629    0.2714 H         1 ATP         0.0924
     39 HO3'        2.2232   -1.2979    2.3953 H         1 ATP         0.4379
     40 H2'        -0.0011    0.0027    0.0003 H         1 ATP         0.0849
     41 HO2'       -0.6141    0.5574    2.1082 H         1 ATP         0.4417
     42 H1'         1.7826    1.9024    1.6451 H         1 ATP         0.1307
     43 H8          0.6728    2.3873   -1.9272 H         1 ATP         0.2875
     44 HN61       -2.5537    5.7714   -1.2667 H         1 ATP         0.4559
     45 HN62       -3.3282    6.5126    0.1080 H         1 ATP         0.4559
     46 H2         -1.4818    4.3694    3.7565 H         1 ATP         0.0858
     47 H47        -1.0701    4.2005   -2.0743 H         1 ATP         0.5042
@<TRIPOS>BOND
     1    1    2 2
     2    1    3 1
     3    1    4 1
     4    1    8 1
     5    3   32 1
     6    4   33 1
     7    5    6 2
     8    5    7 1
     9    5    8 1
    10    5   12 1
    11    7   34 1
    12    9   10 2
    13    9   11 1
    14    9   12 1
    15    9   13 1
    16   13   14 1
    17   14   15 1
    18   14   35 1
    19   14   36 1
    20   15   16 1
    21   15   17 1
    22   15   37 1
    23   16   21 1
    24   17   18 1
    25   17   19 1
    26   17   38 1
    27   18   39 1
    28   19   20 1
    29   19   21 1
    30   19   40 1
    31   20   41 1
    32   21   22 1
    33   21   42 1
    34   22   23 ar
    35   22   31 ar
    36   23   24 ar
    37   23   43 1
    38   24   25 ar
    39   24   47 1
    40   25   26 ar
    41   25   31 ar
    42   26   27 1
    43   26   28 ar
    44   27   44 1
    45   27   45 1
    46   28   29 ar
    47   29   30 ar
    48   29   46 1
    49   30   31 ar
@<TRIPOS>SUBSTRUCTURE
     1 ATP         1 GROUP 0 A     ****
@<TRIPOS>MOLECULE
[5-(6-amino-7,8-dihydropurin-8-ylium-9-yl)-3,4-dihydroxy-tetrahydrofuran-2-yl]methyl [hydroxy(phosphonooxy)phosphoryl] phosphate
   47    49     1     0     0
SMALL
USER_CHARGES

@<TRIPOS>ATOM
      1 PG          1.0659   -3.8931   -5.5508 P.3       1 ATP         1.8237
      2 O1G         1.9012   -4.4958   -6.6413 O.2       1 ATP        -0.8455
      3 O2G        -0.2507   -4.7459   -5.1586 O.3       1 ATP        -0.7970
      4 O3G         1.8240   -3.7235   -4.1324 O.3       1 ATP        -0.7970
      5 PB          1.2365   -1.0264   -6.1696 P.3       1 ATP         1.9358
      6 O1B         2.1057   -1.0326   -7.3922 O.2       1 ATP        -0.8836
      7 O2B         0.0340    0.0536   -6.1902 O.3       1 ATP        -0.8065
      8 O3B         0.4822   -2.4184   -5.8517 O.3       1 ATP        -0.8233
      9 PA          2.8596    0.6156   -4.3272 P.3       1 ATP         1.5686
     10 O1A         1.9183    1.7964   -4.2286 O.co2     1 ATP        -0.8169
     11 O2A         4.1119    0.6934   -5.1730 O.co2     1 ATP        -0.8169
     12 O3A         2.0092   -0.6980   -4.7894 O.3       1 ATP        -0.7987
     13 O5'         3.2883    0.1336   -2.8242 O.3       1 ATP        -0.5693
     14 C5'         2.2816   -0.2918   -1.9206 C.3       1 ATP         0.1841
     15 C4'         2.7248    0.0226   -0.4980 C.3       1 ATP         0.0904
     16 O4'         2.4697    1.4219   -0.2462 O.3       1 ATP        -0.4083
     17 C3'         1.9404   -0.7419    0.5596 C.3       1 ATP         0.0826
     18 O3'         2.7418   -0.8086    1.7389 O.3       1 ATP        -0.6106
     19 C2'         0.7477    0.1630    0.7858 C.3       1 ATP         0.1294
     20 O2'         0.1373   -0.0577    2.0407 O.3       1 ATP        -0.5701
     21 C1'         1.3733    1.5427    0.6747 C.3       1 ATP         0.3967
     22 N9          0.4520    2.5240    0.1767 N.pl3     1 ATP        -0.5600
     23 C8          0.1928    2.8484   -1.0815 C.ar      1 ATP         0.3009
     24 N7         -0.7248    3.8048   -1.2110 N.pl3     1 ATP        -0.5113
     25 C5         -1.0765    4.1129    0.0571 C.ar      1 ATP        -0.2824
     26 C6         -1.9614    5.0063    0.5851 C.ar      1 ATP         0.7670
     27 N6         -2.7145    5.8254   -0.2810 N.pl3     1 ATP        -0.9491
     28 N1         -2.1199    5.1113    1.9228 N.ar      1 ATP        -0.7474
     29 C2         -1.3522    4.2822    2.6839 C.ar      1 ATP         0.7118
     30 N3         -0.4501    3.3660    2.2638 N.ar      1 ATP        -0.6661
     31 C4         -0.3487    3.3198    0.9322 C.ar      1 ATP         0.6308
     32 HOG2       -0.9283   -4.9162   -5.8471 H         1 ATP         0.4930
     33 HOG3        2.6286   -3.1640   -4.0886 H         1 ATP         0.4930
     34 HOB2        0.2527    1.0065   -6.2697 H         1 ATP         0.4808
     35 H5'1        1.3500    0.2325   -2.1560 H         1 ATP         0.0350
     36 H5'2        2.1266   -1.3683   -2.0443 H         1 ATP         0.0350
     37 H4'         3.8050   -0.1388   -0.4008 H         1 ATP         0.1244
     38 H3'         1.6784   -1.7629    0.2714 H         1 ATP         0.0924
     39 HO3'        2.2232   -1.2979    2.3953 H         1 ATP         0.4379
     40 H2'        -0.0011    0.0027    0.0003 H         1 ATP         0.0849
     41 HO2'       -0.6141    0.5574    2.1082 H         1 ATP         0.4417
     42 H1'         1.7826    1.9024    1.6451 H         1 ATP         0.1307
     43 H8          0.6728    2.3873   -1.9272 H         1 ATP         0.2875
     44 HN61       -2.5537    5.7714   -1.2667 H         1 ATP         0.4559
     45 HN62       -3.3282    6.5126    0.1080 H         1 ATP         0.4559
     46 H2         -1.4818    4.3694    3.7565 H         1 ATP         0.0858
     47 H47        -1.0701    4.2005   -2.0743 H         1 ATP         0.5042
@<TRIPOS>BOND
     1    1    2 2
     2    1    3 1
     3    1    4 1
     4    1    8 1
     5    3   32 1
     6    4   33 1
     7    5    6 2
     8    5    7 1
     9    5    8 1
    10    5   12 1
    11    7   34 1
    12    9   10 2
    13    9   11 1
    14    9   12 1
    15    9   13 1
    16   13   14 1
    17   14   15 1
    18   14   35 1
    19   14   36 1
    20   15   16 1
    21   15   17 1
    22   15   37 1
    23   16   21 1
    24   17   18 1
    25   17   19 1
    26   17   38 1
    27   18   39 1
    28   19   20 1
    29   19   21 1
    30   19   40 1
    31   20   41 1
    32   21   22 1
    33   21   42 1
    34   22   23 ar
    35   22   31 ar
    36   23   24 ar
    37   23   43 1
    38   24   25 ar
    39   24   47 1
    40   25   26 ar
    41   25   31 ar
    42   26   27 1
    43   26   28 ar
    44   27   44 1
    45   27   45 1
    46   28   29 ar
    47   29   30 ar
    48   29   46 1
    49   30   31 ar
@<TRIPOS>SUBSTRUCTURE
     1 ATP         1 GROUP 0 A     ****
@<TRIPOS>MOLECULE
[5-(6-amino-7,8-dihydropurin-8-ylium-9-yl)-3,4-dihydroxy-tetrahydrofuran-2-yl]methyl [hydroxy(phosphonooxy)phosphoryl] phosphate
   47    49     1     0     0
SMALL
USER_CHARGES

@<TRIPOS>ATOM
      1 PG          1.1176    1.5280   -6.2420 P.3       1 ATP         1.8237
      2 O1G         1.6126    1.9550   -4.8918 O.2       1 ATP        -0.8455
      3 O2G        -0.4621    1.7683   -6.4896 O.3       1 ATP        -0.7970
      4 O3G         1.8015    2.2984   -7.4886 O.3       1 ATP        -0.7970
      5 PB          0.7667   -1.3652   -5.8728 P.3       1 ATP         1.9358
      6 O1B        -0.7271   -1.4811   -5.7978 O.2       1 ATP        -0.8836
      7 O2B         1.5068   -2.5605   -6.6708 O.3       1 ATP        -0.8065
      8 O3B         1.3203   -0.0334   -6.5989 O.3       1 ATP        -0.8233
      9 PA          1.5535   -2.4535   -3.2419 P.3       1 ATP         1.5686
     10 O1A         2.2581   -3.6962   -3.7414 O.co2     1 ATP        -0.8169
     11 O2A         0.1699   -2.5402   -2.6352 O.co2     1 ATP        -0.8169
     12 O3A         1.5187   -1.3497   -4.4431 O.3       1 ATP        -0.7987
     13 O5'         2.5237   -1.6631   -2.1889 O.3       1 ATP        -0.5693
     14 C5'         2.2816   -0.2918   -1.9206 C.3       1 ATP         0.1841
     15 C4'         2.7248    0.0226   -0.4980 C.3       1 ATP         0.0904
     16 O4'         2.4697    1.4219   -0.2462 O.3       1 ATP        -0.4083
     17 C3'         1.9404   -0.7419    0.5596 C.3       1 ATP         0.0826
     18 O3'         2.7418   -0.8086    1.7389 O.3       1 ATP        -0.6106
     19 C2'         0.7477    0.1630    0.7858 C.3       1 ATP         0.1294
     20 O2'         0.1373   -0.0577    2.0407 O.3       1 ATP        -0.5701
     21 C1'         1.3733    1.5427    0.6747 C.3       1 ATP         0.3967
     22 N9          0.4520    2.5240    0.1767 N.pl3     1 ATP        -0.5600
     23 C8          0.1928    2.8484   -1.0815 C.ar      1 ATP         0.3009
     24 N7         -0.7248    3.8048   -1.2110 N.pl3     1 ATP        -0.5113
     25 C5         -1.0765    4.1129    0.0571 C.ar      1 ATP        -0.2824
     26 C6         -1.9614    5.0063    0.5851 C.ar      1 ATP         0.7670
     27 N6         -2.7145    5.8254   -0.2810 N.pl3     1 ATP        -0.9491
     28 N1         -2.1199    5.1113    1.9228 N.ar      1 ATP        -0.7474
     29 C2         -1.3522    4.2822    2.6839 C.ar      1 ATP         0.7118
     30 N3         -0.4501    3.3660    2.2638 N.ar      1 ATP        -0.6661
     31 C4         -0.3487    3.3198    0.9322 C.ar      1 ATP         0.6308
     32 HOG2       -1.1078    1.3245   -5.8995 H         1 ATP         0.4930
     33 HOG3        2.7726    2.2332   -7.6114 H         1 ATP         0.4930
     34 HOB2        1.4059   -3.4811   -6.3475 H         1 ATP         0.4808
     35 H5'1        2.8429    0.3140   -2.6391 H         1 ATP         0.0350
     36 H5'2        1.2125   -0.0906   -2.0420 H         1 ATP         0.0350
     37 H4'         3.8050   -0.1388   -0.4008 H         1 ATP         0.1244
     38 H3'         1.6784   -1.7629    0.2714 H         1 ATP         0.0924
     39 HO3'        2.2232   -1.2979    2.3953 H         1 ATP         0.4379
     40 H2'        -0.0011    0.0027    0.0003 H         1 ATP         0.0849
     41 HO2'       -0.1563   -0.9855    2.0596 H         1 ATP         0.4417
     42 H1'         1.7826    1.9024    1.6451 H         1 ATP         0.1307
     43 H8          0.6728    2.3873   -1.9272 H         1 ATP         0.2875
     44 HN61       -3.3968    6.4465    0.1048 H         1 ATP         0.4559
     45 HN62       -2.6221    5.7051   -1.2696 H         1 ATP         0.4559
     46 H2         -1.4818    4.3694    3.7565 H         1 ATP         0.0858
     47 H47        -1.0701    4.2005   -2.0743 H         1 ATP         0.5042
@<TRIPOS>BOND
     1    1    2 2
     2    1    3 1
     3    1    4 1
     4    1    8 1
     5    3   32 1
     6    4   33 1
     7    5    6 2
     8    5    7 1
     9    5    8 1
    10    5   12 1
    11    7   34 1
    12    9   10 2
    13    9   11 1
    14    9   12 1
    15    9   13 1
    16   13   14 1
    17   14   15 1
    18   14   35 1
    19   14   36 1
    20   15   16 1
    21   15   17 1
    22   15   37 1
    23   16   21 1
    24   17   18 1
    25   17   19 1
    26   17   38 1
    27   18   39 1
    28   19   20 1
    29   19   21 1
    30   19   40 1
    31   20   41 1
    32   21   22 1
    33   21   42 1
    34   22   23 ar
    35   22   31 ar
    36   23   24 ar
    37   23   43 1
    38   24   25 ar
    39   24   47 1
    40   25   26 ar
    41   25   31 ar
    42   26   27 1
    43   26   28 ar
    44   27   44 1
    45   27   45 1
    46   28   29 ar
    47   29   30 ar
    48   29   46 1
    49   30   31 ar
@<TRIPOS>SUBSTRUCTURE
     1 ATP         1 GROUP 0 A     ****
@<TRIPOS>MOLECULE
[5-(6-amino-7,8-dihydropurin-8-ylium-9-yl)-3,4-dihydroxy-tetrahydrofuran-2-yl]methyl [hydroxy(phosphonooxy)phosphoryl] phosphate
   47    49     1     0     0
SMALL
USER_CHARGES

@<TRIPOS>ATOM
      1 PG         -1.6152   -0.6761   -5.4266 P.3       1 ATP         1.8237
      2 O1G        -2.4004   -1.8706   -5.8816 O.2       1 ATP        -0.8455
      3 O2G        -2.3168    0.7489   -5.7295 O.3       1 ATP        -0.7970
      4 O3G        -1.3394   -0.6135   -3.8344 O.3       1 ATP        -0.7970
      5 PB          1.1400   -1.4929   -6.0364 P.3       1 ATP         1.9358
      6 O1B         0.9279   -2.8577   -6.6219 O.2       1 ATP        -0.8836
      7 O2B         2.2967   -0.6154   -6.7472 O.3       1 ATP        -0.8065
      8 O3B        -0.1459   -0.5170   -6.0763 O.3       1 ATP        -0.8233
      9 PA          2.8591   -2.1295   -3.7203 P.3       1 ATP         1.5686
     10 O1A         4.1100   -1.4252   -4.1992 O.co2     1 ATP        -0.8169
     11 O2A         2.7453   -3.6368   -3.7902 O.co2     1 ATP        -0.8169
     12 O3A         1.5676   -1.4818   -4.4786 O.3       1 ATP        -0.7987
     13 O5'         2.5237   -1.6631   -2.1889 O.3       1 ATP        -0.5693
     14 C5'         2.2816   -0.2918   -1.9206 C.3       1 ATP         0.1841
     15 C4'         2.7248    0.0226   -0.4980 C.3       1 ATP         0.0904
     16 O4'         2.4697    1.4219   -0.2462 O.3       1 ATP        -0.4083
     17 C3'         1.9404   -0.7419    0.5596 C.3       1 ATP         0.0826
     18 O3'         2.7418   -0.8086    1.7389 O.3       1 ATP        -0.6106
     19 C2'         0.7477    0.1630    0.7858 C.3       1 ATP         0.1294
     20 O2'         0.1373   -0.0577    2.0407 O.3       1 ATP        -0.5701
     21 C1'         1.3733    1.5427    0.6747 C.3       1 ATP         0.3967
     22 N9          0.4520    2.5240    0.1767 N.pl3     1 ATP        -0.5600
     23 C8          0.1928    2.8484   -1.0815 C.ar      1 ATP         0.3009
     24 N7         -0.7248    3.8048   -1.2110 N.pl3     1 ATP        -0.5113
     25 C5         -1.0765    4.1129    0.0571 C.ar      1 ATP        -0.2824
     26 C6         -1.9614    5.0063    0.5851 C.ar      1 ATP         0.7670
     27 N6         -2.7145    5.8254   -0.2810 N.pl3     1 ATP        -0.9491
     28 N1         -2.1199    5.1113    1.9228 N.ar      1 ATP        -0.7474
     29 C2         -1.3522    4.2822    2.6839 C.ar      1 ATP         0.7118
     30 N3         -0.4501    3.3660    2.2638 N.ar      1 ATP        -0.6661
     31 C4         -0.3487    3.3198    0.9322 C.ar      1 ATP         0.6308
     32 HOG2       -2.5148    0.9923   -6.6589 H         1 ATP         0.4930
     33 HOG3       -0.8398   -1.3436   -3.4105 H         1 ATP         0.4930
     34 HOB2        3.2151   -0.9598   -6.7579 H         1 ATP         0.4808
     35 H5'1        2.8429    0.3140   -2.6391 H         1 ATP         0.0350
     36 H5'2        1.2125   -0.0906   -2.0420 H         1 ATP         0.0350
     37 H4'         3.8050   -0.1388   -0.4008 H         1 ATP         0.1244
     38 H3'         1.6784   -1.7629    0.2714 H         1 ATP         0.0924
     39 HO3'        3.5554   -1.2733    1.4914 H         1 ATP         0.4379
     40 H2'        -0.0011    0.0027    0.0003 H         1 ATP         0.0849
     41 HO2'       -0.6141    0.5574    2.1082 H         1 ATP         0.4417
     42 H1'         1.7826    1.9024    1.6451 H         1 ATP         0.1307
     43 H8          0.6728    2.3873   -1.9272 H         1 ATP         0.2875
     44 HN61       -2.5537    5.7714   -1.2667 H         1 ATP         0.4559
     45 HN62       -3.3282    6.5126    0.1080 H         1 ATP         0.4559
     46 H2         -1.4818    4.3694    3.7565 H         1 ATP         0.0858
     47 H47        -1.0701    4.2005   -2.0743 H         1 ATP         0.5042
@<TRIPOS>BOND
     1    1    2 2
     2    1    3 1
     3    1    4 1
     4    1    8 1
     5    3   32 1
     6    4   33 1
     7    5    6 2
     8    5    7 1
     9    5    8 1
    10    5   12 1
    11    7   34 1
    12    9   10 2
    13    9   11 1
    14    9   12 1
    15    9   13 1
    16   13   14 1
    17   14   15 1
    18   14   35 1
    19   14   36 1
    20   15   16 1
    21   15   17 1
    22   15   37 1
    23   16   21 1
    24   17   18 1
    25   17   19 1
    26   17   38 1
    27   18   39 1
    28   19   20 1
    29   19   21 1
    30   19   40 1
    31   20   41 1
    32   21   22 1
    33   21   42 1
    34   22   23 ar
    35   22   31 ar
    36   23   24 ar
    37   23   43 1
    38   24   25 ar
    39   24   47 1
    40   25   26 ar
    41   25   31 ar
    42   26   27 1
    43   26   28 ar
    44   27   44 1
    45   27   45 1
    46   28   29 ar
    47   29   30 ar
    48   29   46 1
    49   30   31 ar
@<TRIPOS>SUBSTRUCTURE
     1 ATP         1 GROUP 0 A     ****
@<TRIPOS>MOLECULE
[5-(6-amino-7,8-dihydropurin-8-ylium-9-yl)-3,4-dihydroxy-tetrahydrofuran-2-yl]methyl [hydroxy(phosphonooxy)phosphoryl] phosphate
   47    49     1     0     0
SMALL
USER_CHARGES

@<TRIPOS>ATOM
      1 PG          6.7778    0.9611   -4.0873 P.3       1 ATP         1.8237
      2 O1G         6.5004    2.0168   -5.1164 O.2       1 ATP        -0.8455
      3 O2G         8.2769    0.9853   -3.4817 O.3       1 ATP        -0.7970
      4 O3G         5.8509    1.0446   -2.7648 O.3       1 ATP        -0.7970
      5 PB          5.3095   -1.3418   -5.1693 P.3       1 ATP         1.9358
      6 O1B         4.7284   -0.7658   -6.4268 O.2       1 ATP        -0.8836
      7 O2B         5.8188   -2.8713   -5.2888 O.3       1 ATP        -0.8065
      8 O3B         6.5985   -0.5641   -4.5850 O.3       1 ATP        -0.8233
      9 PA          2.8591   -2.1295   -3.7203 P.3       1 ATP         1.5686
     10 O1A         3.0780   -3.6265   -3.7548 O.co2     1 ATP        -0.8169
     11 O2A         1.8561   -1.4730   -4.6439 O.co2     1 ATP        -0.8169
     12 O3A         4.2973   -1.3829   -3.9109 O.3       1 ATP        -0.7987
     13 O5'         2.5237   -1.6631   -2.1889 O.3       1 ATP        -0.5693
     14 C5'         2.2816   -0.2918   -1.9206 C.3       1 ATP         0.1841
     15 C4'         2.7248    0.0226   -0.4980 C.3       1 ATP         0.0904
     16 O4'         2.4697    1.4219   -0.2462 O.3       1 ATP        -0.4083
     17 C3'         1.9404   -0.7419    0.5596 C.3       1 ATP         0.0826
     18 O3'         2.7418   -0.8086    1.7389 O.3       1 ATP        -0.6106
     19 C2'         0.7477    0.1630    0.7858 C.3       1 ATP         0.1294
     20 O2'         0.1373   -0.0577    2.0407 O.3       1 ATP        -0.5701
     21 C1'         1.3733    1.5427    0.6747 C.3       1 ATP         0.3967
     22 N9          0.4520    2.5240    0.1767 N.pl3     1 ATP        -0.5600
     23 C8          0.1928    2.8484   -1.0815 C.ar      1 ATP         0.3009
     24 N7         -0.7248    3.8048   -1.2110 N.pl3     1 ATP        -0.5113
     25 C5         -1.0765    4.1129    0.0571 C.ar      1 ATP        -0.2824
     26 C6         -1.9614    5.0063    0.5851 C.ar      1 ATP         0.7670
     27 N6         -2.7145    5.8254   -0.2810 N.pl3     1 ATP        -0.9491
     28 N1         -2.1199    5.1113    1.9228 N.ar      1 ATP        -0.7474
     29 C2         -1.3522    4.2822    2.6839 C.ar      1 ATP         0.7118
     30 N3         -0.4501    3.3660    2.2638 N.ar      1 ATP        -0.6661
     31 C4         -0.3487    3.3198    0.9322 C.ar      1 ATP         0.6308
     32 HOG2        8.5884    1.7915   -3.0180 H         1 ATP         0.4930
     33 HOG3        4.8778    0.9662   -2.8619 H         1 ATP         0.4930
     34 HOB2        5.1742   -3.5687   -5.5343 H         1 ATP         0.4808
     35 H5'1        2.8429    0.3140   -2.6391 H         1 ATP         0.0350
     36 H5'2        1.2125   -0.0906   -2.0420 H         1 ATP         0.0350
     37 H4'         3.8050   -0.1388   -0.4008 H         1 ATP         0.1244
     38 H3'         1.6784   -1.7629    0.2714 H         1 ATP         0.0924
     39 HO3'        2.2232   -1.2979    2.3953 H         1 ATP         0.4379
     40 H2'        -0.0011    0.0027    0.0003 H         1 ATP         0.0849
     41 HO2'       -0.1563   -0.9855    2.0596 H         1 ATP         0.4417
     42 H1'         1.7826    1.9024    1.6451 H         1 ATP         0.1307
     43 H8          0.6728    2.3873   -1.9272 H         1 ATP         0.2875
     44 HN61       -2.5537    5.7714   -1.2667 H         1 ATP         0.4559
     45 HN62       -3.3282    6.5126    0.1080 H         1 ATP         0.4559
     46 H2         -1.4818    4.3694    3.7565 H         1 ATP         0.0858
     47 H47        -1.0701    4.2005   -2.0743 H         1 ATP         0.5042
@<TRIPOS>BOND
     1    1    2 2
     2    1    3 1
     3    1    4 1
     4    1    8 1
     5    3   32 1
     6    4   33 1
     7    5    6 2
     8    5    7 1
     9    5    8 1
    10    5   12 1
    11    7   34 1
    12    9   10 2
    13    9   11 1
    14    9   12 1
    15    9   13 1
    16   13   14 1
    17   14   15 1
    18   14   35 1
    19   14   36 1
    20   15   16 1
    21   15   17 1
    22   15   37 1
    23   16   21 1
    24   17   18 1
    25   17   19 1
    26   17   38 1
    27   18   39 1
    28   19   20 1
    29   19   21 1
    30   19   40 1
    31   20   41 1
    32   21   22 1
    33   21   42 1
    34   22   23 ar
    35   22   31 ar
    36   23   24 ar
    37   23   43 1
    38   24   25 ar
    39   24   47 1
    40   25   26 ar
    41   25   31 ar
    42   26   27 1
    43   26   28 ar
    44   27   44 1
    45   27   45 1
    46   28   29 ar
    47   29   30 ar
    48   29   46 1
    49   30   31 ar
@<TRIPOS>SUBSTRUCTURE
     1 ATP         1 GROUP 0 A     ****
@<TRIPOS>MOLECULE
[5-(6-amino-7,8-dihydropurin-8-ylium-9-yl)-3,4-dihydroxy-tetrahydrofuran-2-yl]methyl [hydroxy(phosphonooxy)phosphoryl] phosphate
   47    49     1     0     0
SMALL
USER_CHARGES

@<TRIPOS>ATOM
      1 PG         -1.6187   -0.7712   -5.4944 P.3       1 ATP         1.8237
      2 O1G        -2.4228   -0.1217   -4.4071 O.2       1 ATP        -0.8455
      3 O2G        -2.4198   -1.0049   -6.8793 O.3       1 ATP        -0.7970
      4 O3G        -0.3167    0.0646   -5.9651 O.3       1 ATP        -0.7970
      5 PB         -0.0224   -2.7222   -3.9858 P.3       1 ATP         1.9358
      6 O1B        -0.4970   -2.4808   -2.5833 O.2       1 ATP        -0.8836
      7 O2B         0.2552   -4.2707   -4.3575 O.3       1 ATP        -0.8065
      8 O3B        -1.0304   -2.2344   -5.1494 O.3       1 ATP        -0.8233
      9 PA          2.8591   -2.1295   -3.7203 P.3       1 ATP         1.5686
     10 O1A         3.7685   -1.1094   -4.3702 O.co2     1 ATP        -0.8169
     11 O2A         3.2339   -3.5954   -3.6958 O.co2     1 ATP        -0.8169
     12 O3A         1.3673   -1.9921   -4.3670 O.3       1 ATP        -0.7987
     13 O5'         2.5237   -1.6631   -2.1889 O.3       1 ATP        -0.5693
     14 C5'         2.2816   -0.2918   -1.9206 C.3       1 ATP         0.1841
     15 C4'         2.7248    0.0226   -0.4980 C.3       1 ATP         0.0904
     16 O4'         2.4697    1.4219   -0.2462 O.3       1 ATP        -0.4083
     17 C3'         1.9404   -0.7419    0.5596 C.3       1 ATP         0.0826
     18 O3'         2.7418   -0.8086    1.7389 O.3       1 ATP        -0.6106
     19 C2'         0.7477    0.1630    0.7858 C.3       1 ATP         0.1294
     20 O2'         0.1373   -0.0577    2.0407 O.3       1 ATP        -0.5701
     21 C1'         1.3733    1.5427    0.6747 C.3       1 ATP         0.3967
     22 N9          0.4520    2.5240    0.1767 N.pl3     1 ATP        -0.5600
     23 C8          0.1928    2.8484   -1.0815 C.ar      1 ATP         0.3009
     24 N7         -0.7248    3.8048   -1.2110 N.pl3     1 ATP        -0.5113
     25 C5         -1.0765    4.1129    0.0571 C.ar      1 ATP        -0.2824
     26 C6         -1.9614    5.0063    0.5851 C.ar      1 ATP         0.7670
     27 N6         -2.7145    5.8254   -0.2810 N.pl3     1 ATP        -0.9491
     28 N1         -2.1199    5.1113    1.9228 N.ar      1 ATP        -0.7474
     29 C2         -1.3522    4.2822    2.6839 C.ar      1 ATP         0.7118
     30 N3         -0.4501    3.3660    2.2638 N.ar      1 ATP        -0.6661
     31 C4         -0.3487    3.3198    0.9322 C.ar      1 ATP         0.6308
     32 HOG2       -3.2237   -1.5670   -6.8735 H         1 ATP         0.4930
     33 HOG3        0.3810    0.2666   -5.3057 H         1 ATP         0.4930
     34 HOB2        0.9258   -4.7695   -3.8440 H         1 ATP         0.4808
     35 H5'1        2.8429    0.3140   -2.6391 H         1 ATP         0.0350
     36 H5'2        1.2125   -0.0906   -2.0420 H         1 ATP         0.0350
     37 H4'         3.8050   -0.1388   -0.4008 H         1 ATP         0.1244
     38 H3'         1.6784   -1.7629    0.2714 H         1 ATP         0.0924
     39 HO3'        2.2232   -1.2979    2.3953 H         1 ATP         0.4379
     40 H2'        -0.0011    0.0027    0.0003 H         1 ATP         0.0849
     41 HO2'       -0.6141    0.5574    2.1082 H         1 ATP         0.4417
     42 H1'         1.7826    1.9024    1.6451 H         1 ATP         0.1307
     43 H8          0.6728    2.3873   -1.9272 H         1 ATP         0.2875
     44 HN61       -2.5537    5.7714   -1.2667 H         1 ATP         0.4559
     45 HN62       -3.3282    6.5126    0.1080 H         1 ATP         0.4559
     46 H2         -1.4818    4.3694    3.7565 H         1 ATP         0.0858
     47 H47        -1.0701    4.2005   -2.0743 H         1 ATP         0.5042
@<TRIPOS>BOND
     1    1    2 2
     2    1    3 1
     3    1    4 1
     4    1    8 1
     5    3   32 1
     6    4   33 1
     7    5    6 2
     8    5    7 1
     9    5    8 1
    10    5   12 1
    11    7   34 1
    12    9   10 2
    13    9   11 1
    14    9   12 1
    15    9   13 1
    16   13   14 1
    17   14   15 1
    18   14   35 1
    19   14   36 1
    20   15   16 1
    21   15   17 1
    22   15   37 1
    23   16   21 1
    24   17   18 1
    25   17   19 1
    26   17   38 1
    27   18   39 1
    28   19   20 1
    29   19   21 1
    30   19   40 1
    31   20   41 1
    32   21   22 1
    33   21   42 1
    34   22   23 ar
    35   22   31 ar
    36   23   24 ar
    37   23   43 1
    38   24   25 ar
    39   24   47 1
    40   25   26 ar
    41   25   31 ar
    42   26   27 1
    43   26   28 ar
    44   27   44 1
    45   27   45 1
    46   28   29 ar
    47   29   30 ar
    48   29   46 1
    49   30   31 ar
@<TRIPOS>SUBSTRUCTURE
     1 ATP         1 GROUP 0 A     ****
@<TRIPOS>MOLECULE
[5-(6-amino-7,8-dihydropurin-8-ylium-9-yl)-3,4-dihydroxy-tetrahydrofuran-2-yl]methyl [hydroxy(phosphonooxy)phosphoryl] phosphate
   47    49     1     0     0
SMALL
USER_CHARGES

@<TRIPOS>ATOM
      1 PG          2.5071    0.7674   -6.9513 P.3       1 ATP         1.8237
      2 O1G         1.2591    1.5200   -7.3070 O.2       1 ATP        -0.8455
      3 O2G         3.7699    1.0575   -7.9186 O.3       1 ATP        -0.7970
      4 O3G         3.0957    1.0893   -5.4798 O.3       1 ATP        -0.7970
      5 PB          1.4302   -1.8390   -6.1284 P.3       1 ATP         1.9358
      6 O1B        -0.0434   -1.6299   -6.3161 O.2       1 ATP        -0.8836
      7 O2B         1.9710   -3.3061   -6.5388 O.3       1 ATP        -0.8065
      8 O3B         2.3818   -0.8420   -6.9699 O.3       1 ATP        -0.8233
      9 PA          1.5535   -2.4535   -3.2419 P.3       1 ATP         1.5686
     10 O1A         2.0065   -3.8924   -3.3623 O.co2     1 ATP        -0.8169
     11 O2A         0.1171   -2.1210   -2.9012 O.co2     1 ATP        -0.8169
     12 O3A         1.9530   -1.6599   -4.6105 O.3       1 ATP        -0.7987
     13 O5'         2.5237   -1.6631   -2.1889 O.3       1 ATP        -0.5693
     14 C5'         2.2816   -0.2918   -1.9206 C.3       1 ATP         0.1841
     15 C4'         2.7248    0.0226   -0.4980 C.3       1 ATP         0.0904
     16 O4'         2.4697    1.4219   -0.2462 O.3       1 ATP        -0.4083
     17 C3'         1.9404   -0.7419    0.5596 C.3       1 ATP         0.0826
     18 O3'         2.7418   -0.8086    1.7389 O.3       1 ATP        -0.6106
     19 C2'         0.7477    0.1630    0.7858 C.3       1 ATP         0.1294
     20 O2'         0.1373   -0.0577    2.0407 O.3       1 ATP        -0.5701
     21 C1'         1.3733    1.5427    0.6747 C.3       1 ATP         0.3967
     22 N9          0.4520    2.5240    0.1767 N.pl3     1 ATP        -0.5600
     23 C8          0.1928    2.8484   -1.0815 C.ar      1 ATP         0.3009
     24 N7         -0.7248    3.8048   -1.2110 N.pl3     1 ATP        -0.5113
     25 C5         -1.0765    4.1129    0.0571 C.ar      1 ATP        -0.2824
     26 C6         -1.9614    5.0063    0.5851 C.ar      1 ATP         0.7670
     27 N6         -2.7145    5.8254   -0.2810 N.pl3     1 ATP        -0.9491
     28 N1         -2.1199    5.1113    1.9228 N.ar      1 ATP        -0.7474
     29 C2         -1.3522    4.2822    2.6839 C.ar      1 ATP         0.7118
     30 N3         -0.4501    3.3660    2.2638 N.ar      1 ATP        -0.6661
     31 C4         -0.3487    3.3198    0.9322 C.ar      1 ATP         0.6308
     32 HOG2        3.6908    0.8564   -8.8753 H         1 ATP         0.4930
     33 HOG3        2.5346    0.9111   -4.6951 H         1 ATP         0.4930
     34 HOB2        1.6095   -4.0920   -6.0764 H         1 ATP         0.4808
     35 H5'1        2.8429    0.3140   -2.6391 H         1 ATP         0.0350
     36 H5'2        1.2125   -0.0906   -2.0420 H         1 ATP         0.0350
     37 H4'         3.8050   -0.1388   -0.4008 H         1 ATP         0.1244
     38 H3'         1.6784   -1.7629    0.2714 H         1 ATP         0.0924
     39 HO3'        2.2232   -1.2979    2.3953 H         1 ATP         0.4379
     40 H2'        -0.0011    0.0027    0.0003 H         1 ATP         0.0849
     41 HO2'       -0.6141    0.5574    2.1082 H         1 ATP         0.4417
     42 H1'         1.7826    1.9024    1.6451 H         1 ATP         0.1307
     43 H8          0.6728    2.3873   -1.9272 H         1 ATP         0.2875
     44 HN61       -2.5537    5.7714   -1.2667 H         1 ATP         0.4559
     45 HN62       -3.3282    6.5126    0.1080 H         1 ATP         0.4559
     46 H2         -1.4818    4.3694    3.7565 H         1 ATP         0.0858
     47 H47        -1.0701    4.2005   -2.0743 H         1 ATP         0.5042
@<TRIPOS>BOND
     1    1    2 2
     2    1    3 1
     3    1    4 1
     4    1    8 1
     5    3   32 1
     6    4   33 1
     7    5    6 2
     8    5    7 1
     9    5    8 1
    10    5   12 1
    11    7   34 1
    12    9   10 2
    13    9   11 1
    14    9   12 1
    15    9   13 1
    16   13   14 1
    17   14   15 1
    18   14   35 1
    19   14   36 1
    20   15   16 1
    21   15   17 1
    22   15   37 1
    23   16   21 1
    24   17   18 1
    25   17   19 1
    26   17   38 1
    27   18   39 1
    28   19   20 1
    29   19   21 1
    30   19   40 1
    31   20   41 1
    32   21   22 1
    33   21   42 1
    34   22   23 ar
    35   22   31 ar
    36   23   24 ar
    37   23   43 1
    38   24   25 ar
    39   24   47 1
    40   25   26 ar
    41   25   31 ar
    42   26   27 1
    43   26   28 ar
    44   27   44 1
    45   27   45 1
    46   28   29 ar
    47   29   30 ar
    48   29   46 1
    49   30   31 ar
@<TRIPOS>SUBSTRUCTURE
     1 ATP         1 GROUP 0 A     ****
@<TRIPOS>MOLECULE
[5-(6-amino-7,8-dihydropurin-8-ylium-9-yl)-3,4-dihydroxy-tetrahydrofuran-2-yl]methyl [hydroxy(phosphonooxy)phosphoryl] phosphate
   47    49     1     0     0
SMALL
USER_CHARGES

@<TRIPOS>ATOM
      1 PG          2.4178   -1.5657   -8.8047 P.3       1 ATP         1.8237
      2 O1G         1.9216   -2.9525   -9.0888 O.2       1 ATP        -0.8455
      3 O2G         3.9333   -1.2778   -9.2893 O.3       1 ATP        -0.7970
      4 O3G         1.5771   -0.3854   -9.5226 O.3       1 ATP        -0.7970
      5 PB          1.2365   -1.0264   -6.1696 P.3       1 ATP         1.9358
      6 O1B         0.1392   -0.0659   -6.5213 O.2       1 ATP        -0.8836
      7 O2B         0.7673   -2.5615   -5.9785 O.3       1 ATP        -0.8065
      8 O3B         2.4326   -1.1338   -7.2492 O.3       1 ATP        -0.8233
      9 PA          2.8596    0.6156   -4.3272 P.3       1 ATP         1.5686
     10 O1A         1.9183    1.7964   -4.2286 O.co2     1 ATP        -0.8169
     11 O2A         4.1119    0.6934   -5.1730 O.co2     1 ATP        -0.8169
     12 O3A         2.0092   -0.6980   -4.7894 O.3       1 ATP        -0.7987
     13 O5'         3.2883    0.1336   -2.8242 O.3       1 ATP        -0.5693
     14 C5'         2.2816   -0.2918   -1.9206 C.3       1 ATP         0.1841
     15 C4'         2.7248    0.0226   -0.4980 C.3       1 ATP         0.0904
     16 O4'         2.4697    1.4219   -0.2462 O.3       1 ATP        -0.4083
     17 C3'         1.9404   -0.7419    0.5596 C.3       1 ATP         0.0826
     18 O3'         2.7418   -0.8086    1.7389 O.3       1 ATP        -0.6106
     19 C2'         0.7477    0.1630    0.7858 C.3       1 ATP         0.1294
     20 O2'         0.1373   -0.0577    2.0407 O.3       1 ATP        -0.5701
     21 C1'         1.3733    1.5427    0.6747 C.3       1 ATP         0.3967
     22 N9          0.4520    2.5240    0.1767 N.pl3     1 ATP        -0.5600
     23 C8          0.1928    2.8484   -1.0815 C.ar      1 ATP         0.3009
     24 N7         -0.7248    3.8048   -1.2110 N.pl3     1 ATP        -0.5113
     25 C5         -1.0765    4.1129    0.0571 C.ar      1 ATP        -0.2824
     26 C6         -1.9614    5.0063    0.5851 C.ar      1 ATP         0.7670
     27 N6         -2.7145    5.8254   -0.2810 N.pl3     1 ATP        -0.9491
     28 N1         -2.1199    5.1113    1.9228 N.ar      1 ATP        -0.7474
     29 C2         -1.3522    4.2822    2.6839 C.ar      1 ATP         0.7118
     30 N3         -0.4501    3.3660    2.2638 N.ar      1 ATP        -0.6661
     31 C4         -0.3487    3.3198    0.9322 C.ar      1 ATP         0.6308
     32 HOG2        4.6611   -1.8214   -8.9193 H         1 ATP         0.4930
     33 HOG3        0.6219   -0.2922   -9.3193 H         1 ATP         0.4930
     34 HOB2        0.3453   -3.0265   -6.7321 H         1 ATP         0.4808
     35 H5'1        1.3500    0.2325   -2.1560 H         1 ATP         0.0350
     36 H5'2        2.1266   -1.3683   -2.0443 H         1 ATP         0.0350
     37 H4'         3.8050   -0.1388   -0.4008 H         1 ATP         0.1244
     38 H3'         1.6784   -1.7629    0.2714 H         1 ATP         0.0924
     39 HO3'        2.2232   -1.2979    2.3953 H         1 ATP         0.4379
     40 H2'        -0.0011    0.0027    0.0003 H         1 ATP         0.0849
     41 HO2'       -0.6141    0.5574    2.1082 H         1 ATP         0.4417
     42 H1'         1.7826    1.9024    1.6451 H         1 ATP         0.1307
     43 H8          0.6728    2.3873   -1.9272 H         1 ATP         0.2875
     44 HN61       -2.5537    5.7714   -1.2667 H         1 ATP         0.4559
     45 HN62       -3.3282    6.5126    0.1080 H         1 ATP         0.4559
     46 H2         -1.4818    4.3694    3.7565 H         1 ATP         0.0858
     47 H47        -1.0701    4.2005   -2.0743 H         1 ATP         0.5042
@<TRIPOS>BOND
     1    1    2 2
     2    1    3 1
     3    1    4 1
     4    1    8 1
     5    3   32 1
     6    4   33 1
     7    5    6 2
     8    5    7 1
     9    5    8 1
    10    5   12 1
    11    7   34 1
    12    9   10 2
    13    9   11 1
    14    9   12 1
    15    9   13 1
    16   13   14 1
    17   14   15 1
    18   14   35 1
    19   14   36 1
    20   15   16 1
    21   15   17 1
    22   15   37 1
    23   16   21 1
    24   17   18 1
    25   17   19 1
    26   17   38 1
    27   18   39 1
    28   19   20 1
    29   19   21 1
    30   19   40 1
    31   20   41 1
    32   21   22 1
    33   21   42 1
    34   22   23 ar
    35   22   31 ar
    36   23   24 ar
    37   23   43 1
    38   24   25 ar
    39   24   47 1
    40   25   26 ar
    41   25   31 ar
    42   26   27 1
    43   26   28 ar
    44   27   44 1
    45   27   45 1
    46   28   29 ar
    47   29   30 ar
    48   29   46 1
    49   30   31 ar
@<TRIPOS>SUBSTRUCTURE
     1 ATP         1 GROUP 0 A     ****
@<TRIPOS>MOLECULE
[5-(6-amino-7,8-dihydropurin-8-ylium-9-yl)-3,4-dihydroxy-tetrahydrofuran-2-yl]methyl [hydroxy(phosphonooxy)phosphoryl] phosphate
   47    49     1     0     0
SMALL
USER_CHARGES

@<TRIPOS>ATOM
      1 PG          1.1381   -3.2516   -7.4822 P.3       1 ATP         1.8237
      2 O1G        -0.3344   -3.4408   -7.6979 O.2       1 ATP        -0.8455
      3 O2G         1.9202   -4.5696   -6.9667 O.3       1 ATP        -0.7970
      4 O3G         1.9678   -2.8316   -8.8052 O.3       1 ATP        -0.7970
      5 PB          1.2431   -0.5398   -6.3573 P.3       1 ATP         1.9358
      6 O1B         1.7788    0.2475   -7.5165 O.2       1 ATP        -0.8836
      7 O2B        -0.3607   -0.4719   -6.1667 O.3       1 ATP        -0.8065
      8 O3B         1.5468   -2.1252   -6.4003 O.3       1 ATP        -0.8233
      9 PA          3.3322   -0.0533   -4.3265 P.3       1 ATP         1.5686
     10 O1A         4.1270    0.9770   -5.0991 O.co2     1 ATP        -0.8169
     11 O2A         3.8287   -1.4771   -4.1997 O.co2     1 ATP        -0.8169
     12 O3A         1.8098   -0.0911   -4.9126 O.3       1 ATP        -0.7987
     13 O5'         3.0197    0.5137   -2.8245 O.3       1 ATP        -0.5693
     14 C5'         2.2816   -0.2918   -1.9206 C.3       1 ATP         0.1841
     15 C4'         2.7248    0.0226   -0.4980 C.3       1 ATP         0.0904
     16 O4'         2.4697    1.4219   -0.2462 O.3       1 ATP        -0.4083
     17 C3'         1.9404   -0.7419    0.5596 C.3       1 ATP         0.0826
     18 O3'         2.7418   -0.8086    1.7389 O.3       1 ATP        -0.6106
     19 C2'         0.7477    0.1630    0.7858 C.3       1 ATP         0.1294
     20 O2'         0.1373   -0.0577    2.0407 O.3       1 ATP        -0.5701
     21 C1'         1.3733    1.5427    0.6747 C.3       1 ATP         0.3967
     22 N9          0.4520    2.5240    0.1767 N.pl3     1 ATP        -0.5600
     23 C8          0.1928    2.8484   -1.0815 C.ar      1 ATP         0.3009
     24 N7         -0.7248    3.8048   -1.2110 N.pl3     1 ATP        -0.5113
     25 C5         -1.0765    4.1129    0.0571 C.ar      1 ATP        -0.2824
     26 C6         -1.9614    5.0063    0.5851 C.ar      1 ATP         0.7670
     27 N6         -2.7145    5.8254   -0.2810 N.pl3     1 ATP        -0.9491
     28 N1         -2.1199    5.1113    1.9228 N.ar      1 ATP        -0.7474
     29 C2         -1.3522    4.2822    2.6839 C.ar      1 ATP         0.7118
     30 N3         -0.4501    3.3660    2.2638 N.ar      1 ATP        -0.6661
     31 C4         -0.3487    3.3198    0.9322 C.ar      1 ATP         0.6308
     32 HOG2        1.6527   -4.9777   -6.1158 H         1 ATP         0.4930
     33 HOG3        1.9638   -3.4348   -9.5789 H         1 ATP         0.4930
     34 HOB2       -0.9391   -0.7894   -6.8925 H         1 ATP         0.4808
     35 H5'1        1.2153   -0.0781   -2.0454 H         1 ATP         0.0350
     36 H5'2        2.4645   -1.3454   -2.1547 H         1 ATP         0.0350
     37 H4'         3.8050   -0.1388   -0.4008 H         1 ATP         0.1244
     38 H3'         1.6784   -1.7629    0.2714 H         1 ATP         0.0924
     39 HO3'        2.2232   -1.2979    2.3953 H         1 ATP         0.4379
     40 H2'        -0.0011    0.0027    0.0003 H         1 ATP         0.0849
     41 HO2'       -0.6141    0.5574    2.1082 H         1 ATP         0.4417
     42 H1'         1.7826    1.9024    1.6451 H         1 ATP         0.1307
     43 H8          0.6728    2.3873   -1.9272 H         1 ATP         0.2875
     44 HN61       -2.5537    5.7714   -1.2667 H         1 ATP         0.4559
     45 HN62       -3.3282    6.5126    0.1080 H         1 ATP         0.4559
     46 H2         -1.4818    4.3694    3.7565 H         1 ATP         0.0858
     47 H47        -1.0701    4.2005   -2.0743 H         1 ATP         0.5042
@<TRIPOS>BOND
     1    1    2 2
     2    1    3 1
     3    1    4 1
     4    1    8 1
     5    3   32 1
     6    4   33 1
     7    5    6 2
     8    5    7 1
     9    5    8 1
    10    5   12 1
    11    7   34 1
    12    9   10 2
    13    9   11 1
    14    9   12 1
    15    9   13 1
    16   13   14 1
    17   14   15 1
    18   14   35 1
    19   14   36 1
    20   15   16 1
    21   15   17 1
    22   15   37 1
    23   16   21 1
    24   17   18 1
    25   17   19 1
    26   17   38 1
    27   18   39 1
    28   19   20 1
    29   19   21 1
    30   19   40 1
    31   20   41 1
    32   21   22 1
    33   21   42 1
    34   22   23 ar
    35   22   31 ar
    36   23   24 ar
    37   23   43 1
    38   24   25 ar
    39   24   47 1
    40   25   26 ar
    41   25   31 ar
    42   26   27 1
    43   26   28 ar
    44   27   44 1
    45   27   45 1
    46   28   29 ar
    47   29   30 ar
    48   29   46 1
    49   30   31 ar
@<TRIPOS>SUBSTRUCTURE
     1 ATP         1 GROUP 0 A     ****
@<TRIPOS>MOLECULE
[5-(6-amino-7,8-dihydropurin-8-ylium-9-yl)-3,4-dihydroxy-tetrahydrofuran-2-yl]methyl [hydroxy(phosphonooxy)phosphoryl] phosphate
   47    49     1     0     0
SMALL
USER_CHARGES

@<TRIPOS>ATOM
      1 PG         -0.8746   -0.4239   -7.4901 P.3       1 ATP         1.8237
      2 O1G        -0.4454   -0.1833   -8.9073 O.2       1 ATP        -0.8455
      3 O2G        -2.1681    0.4263   -7.0224 O.3       1 ATP        -0.7970
      4 O3G        -1.3044   -1.9480   -7.1622 O.3       1 ATP        -0.7970
      5 PB          0.9773    1.2976   -5.9945 P.3       1 ATP         1.9358
      6 O1B         1.7951    1.8948   -7.1013 O.2       1 ATP        -0.8836
      7 O2B        -0.2172    2.2368   -5.4427 O.3       1 ATP        -0.8065
      8 O3B         0.2265   -0.0847   -6.3593 O.3       1 ATP        -0.8233
      9 PA          3.0648   -0.0870   -4.4293 P.3       1 ATP         1.5686
     10 O1A         4.2654    0.4430   -5.1830 O.co2     1 ATP        -0.8169
     11 O2A         2.5779   -1.5030   -4.6479 O.co2     1 ATP        -0.8169
     12 O3A         1.8088    0.9287   -4.6595 O.3       1 ATP        -0.7987
     13 O5'         3.2883    0.1336   -2.8242 O.3       1 ATP        -0.5693
     14 C5'         2.2816   -0.2918   -1.9206 C.3       1 ATP         0.1841
     15 C4'         2.7248    0.0226   -0.4980 C.3       1 ATP         0.0904
     16 O4'         2.4697    1.4219   -0.2462 O.3       1 ATP        -0.4083
     17 C3'         1.9404   -0.7419    0.5596 C.3       1 ATP         0.0826
     18 O3'         2.7418   -0.8086    1.7389 O.3       1 ATP        -0.6106
     19 C2'         0.7477    0.1630    0.7858 C.3       1 ATP         0.1294
     20 O2'         0.1373   -0.0577    2.0407 O.3       1 ATP        -0.5701
     21 C1'         1.3733    1.5427    0.6747 C.3       1 ATP         0.3967
     22 N9          0.4520    2.5240    0.1767 N.pl3     1 ATP        -0.5600
     23 C8          0.1928    2.8484   -1.0815 C.ar      1 ATP         0.3009
     24 N7         -0.7248    3.8048   -1.2110 N.pl3     1 ATP        -0.5113
     25 C5         -1.0765    4.1129    0.0571 C.ar      1 ATP        -0.2824
     26 C6         -1.9614    5.0063    0.5851 C.ar      1 ATP         0.7670
     27 N6         -2.7145    5.8254   -0.2810 N.pl3     1 ATP        -0.9491
     28 N1         -2.1199    5.1113    1.9228 N.ar      1 ATP        -0.7474
     29 C2         -1.3522    4.2822    2.6839 C.ar      1 ATP         0.7118
     30 N3         -0.4501    3.3660    2.2638 N.ar      1 ATP        -0.6661
     31 C4         -0.3487    3.3198    0.9322 C.ar      1 ATP         0.6308
     32 HOG2       -2.5022    0.3167   -6.1067 H         1 ATP         0.4930
     33 HOG3       -2.0502   -2.3477   -7.6585 H         1 ATP         0.4930
     34 HOB2       -0.9212    2.5232   -6.0628 H         1 ATP         0.4808
     35 H5'1        1.3500    0.2325   -2.1560 H         1 ATP         0.0350
     36 H5'2        2.1266   -1.3683   -2.0443 H         1 ATP         0.0350
     37 H4'         3.8050   -0.1388   -0.4008 H         1 ATP         0.1244
     38 H3'         1.6784   -1.7629    0.2714 H         1 ATP         0.0924
     39 HO3'        2.2232   -1.2979    2.3953 H         1 ATP         0.4379
     40 H2'        -0.0011    0.0027    0.0003 H         1 ATP         0.0849
     41 HO2'       -0.1563   -0.9855    2.0596 H         1 ATP         0.4417
     42 H1'         1.7826    1.9024    1.6451 H         1 ATP         0.1307
     43 H8          0.6728    2.3873   -1.9272 H         1 ATP         0.2875
     44 HN61       -3.3968    6.4465    0.1048 H         1 ATP         0.4559
     45 HN62       -2.6221    5.7051   -1.2696 H         1 ATP         0.4559
     46 H2         -1.4818    4.3694    3.7565 H         1 ATP         0.0858
     47 H47        -1.0701    4.2005   -2.0743 H         1 ATP         0.5042
@<TRIPOS>BOND
     1    1    2 2
     2    1    3 1
     3    1    4 1
     4    1    8 1
     5    3   32 1
     6    4   33 1
     7    5    6 2
     8    5    7 1
     9    5    8 1
    10    5   12 1
    11    7   34 1
    12    9   10 2
    13    9   11 1
    14    9   12 1
    15    9   13 1
    16   13   14 1
    17   14   15 1
    18   14   35 1
    19   14   36 1
    20   15   16 1
    21   15   17 1
    22   15   37 1
    23   16   21 1
    24   17   18 1
    25   17   19 1
    26   17   38 1
    27   18   39 1
    28   19   20 1
    29   19   21 1
    30   19   40 1
    31   20   41 1
    32   21   22 1
    33   21   42 1
    34   22   23 ar
    35   22   31 ar
    36   23   24 ar
    37   23   43 1
    38   24   25 ar
    39   24   47 1
    40   25   26 ar
    41   25   31 ar
    42   26   27 1
    43   26   28 ar
    44   27   44 1
    45   27   45 1
    46   28   29 ar
    47   29   30 ar
    48   29   46 1
    49   30   31 ar
@<TRIPOS>SUBSTRUCTURE
     1 ATP         1 GROUP 0 A     ****
@<TRIPOS>MOLECULE
[5-(6-amino-7,8-dihydropurin-8-ylium-9-yl)-3,4-dihydroxy-tetrahydrofuran-2-yl]methyl [hydroxy(phosphonooxy)phosphoryl] phosphate
   47    49     1     0     0
SMALL
USER_CHARGES

@<TRIPOS>ATOM
      1 PG          1.1115   -3.8808   -5.6575 P.3       1 ATP         1.8237
      2 O1G         1.1875   -4.8229   -4.4926 O.2       1 ATP        -0.8455
      3 O2G         0.6461   -4.5620   -7.0482 O.3       1 ATP        -0.7970
      4 O3G         0.0590   -2.6661   -5.4785 O.3       1 ATP        -0.7970
      5 PB          3.4383   -2.1493   -5.1905 P.3       1 ATP         1.9358
      6 O1B         4.0012   -2.7336   -3.9287 O.2       1 ATP        -0.8836
      7 O2B         4.5389   -1.6605   -6.2689 O.3       1 ATP        -0.8065
      8 O3B         2.4910   -3.1379   -6.0466 O.3       1 ATP        -0.8233
      9 PA          2.8596    0.6156   -4.3272 P.3       1 ATP         1.5686
     10 O1A         1.5860    1.4295   -4.2515 O.co2     1 ATP        -0.8169
     11 O2A         4.0898    1.1666   -5.0150 O.co2     1 ATP        -0.8169
     12 O3A         2.5158   -0.8400   -4.9794 O.3       1 ATP        -0.7987
     13 O5'         3.2883    0.1336   -2.8242 O.3       1 ATP        -0.5693
     14 C5'         2.2816   -0.2918   -1.9206 C.3       1 ATP         0.1841
     15 C4'         2.7248    0.0226   -0.4980 C.3       1 ATP         0.0904
     16 O4'         2.4697    1.4219   -0.2462 O.3       1 ATP        -0.4083
     17 C3'         1.9404   -0.7419    0.5596 C.3       1 ATP         0.0826
     18 O3'         2.7418   -0.8086    1.7389 O.3       1 ATP        -0.6106
     19 C2'         0.7477    0.1630    0.7858 C.3       1 ATP         0.1294
     20 O2'         0.1373   -0.0577    2.0407 O.3       1 ATP        -0.5701
     21 C1'         1.3733    1.5427    0.6747 C.3       1 ATP         0.3967
     22 N9          0.4520    2.5240    0.1767 N.pl3     1 ATP        -0.5600
     23 C8          0.1928    2.8484   -1.0815 C.ar      1 ATP         0.3009
     24 N7         -0.7248    3.8048   -1.2110 N.pl3     1 ATP        -0.5113
     25 C5         -1.0765    4.1129    0.0571 C.ar      1 ATP        -0.2824
     26 C6         -1.9614    5.0063    0.5851 C.ar      1 ATP         0.7670
     27 N6         -2.7145    5.8254   -0.2810 N.pl3     1 ATP        -0.9491
     28 N1         -2.1199    5.1113    1.9228 N.ar      1 ATP        -0.7474
     29 C2         -1.3522    4.2822    2.6839 C.ar      1 ATP         0.7118
     30 N3         -0.4501    3.3660    2.2638 N.ar      1 ATP        -0.6661
     31 C4         -0.3487    3.3198    0.9322 C.ar      1 ATP         0.6308
     32 HOG2        1.1863   -5.2891   -7.4245 H         1 ATP         0.4930
     33 HOG3        0.1800   -2.0396   -4.7333 H         1 ATP         0.4930
     34 HOB2        5.1811   -0.9655   -6.0104 H         1 ATP         0.4808
     35 H5'1        1.3500    0.2325   -2.1560 H         1 ATP         0.0350
     36 H5'2        2.1266   -1.3683   -2.0443 H         1 ATP         0.0350
     37 H4'         3.8050   -0.1388   -0.4008 H         1 ATP         0.1244
     38 H3'         1.6784   -1.7629    0.2714 H         1 ATP         0.0924
     39 HO3'        2.2232   -1.2979    2.3953 H         1 ATP         0.4379
     40 H2'        -0.0011    0.0027    0.0003 H         1 ATP         0.0849
     41 HO2'       -0.6141    0.5574    2.1082 H         1 ATP         0.4417
     42 H1'         1.7826    1.9024    1.6451 H         1 ATP         0.1307
     43 H8          0.6728    2.3873   -1.9272 H         1 ATP         0.2875
     44 HN61       -3.3968    6.4465    0.1048 H         1 ATP         0.4559
     45 HN62       -2.6221    5.7051   -1.2696 H         1 ATP         0.4559
     46 H2         -1.4818    4.3694    3.7565 H         1 ATP         0.0858
     47 H47        -1.0701    4.2005   -2.0743 H         1 ATP         0.5042
@<TRIPOS>BOND
     1    1    2 2
     2    1    3 1
     3    1    4 1
     4    1    8 1
     5    3   32 1
     6    4   33 1
     7    5    6 2
     8    5    7 1
     9    5    8 1
    10    5   12 1
    11    7   34 1
    12    9   10 2
    13    9   11 1
    14    9   12 1
    15    9   13 1
    16   13   14 1
    17   14   15 1
    18   14   35 1
    19   14   36 1
    20   15   16 1
    21   15   17 1
    22   15   37 1
    23   16   21 1
    24   17   18 1
    25   17   19 1
    26   17   38 1
    27   18   39 1
    28   19   20 1
    29   19   21 1
    30   19   40 1
    31   20   41 1
    32   21   22 1
    33   21   42 1
    34   22   23 ar
    35   22   31 ar
    36   23   24 ar
    37   23   43 1
    38   24   25 ar
    39   24   47 1
    40   25   26 ar
    41   25   31 ar
    42   26   27 1
    43   26   28 ar
    44   27   44 1
    45   27   45 1
    46   28   29 ar
    47   29   30 ar
    48   29   46 1
    49   30   31 ar
@<TRIPOS>SUBSTRUCTURE
     1 ATP         1 GROUP 0 A     ****
@<TRIPOS>MOLECULE
[5-(6-amino-7,8-dihydropurin-8-ylium-9-yl)-3,4-dihydroxy-tetrahydrofuran-2-yl]methyl [hydroxy(phosphonooxy)phosphoryl] phosphate
   47    49     1     0     0
SMALL
USER_CHARGES

@<TRIPOS>ATOM
      1 PG         -2.1199   -1.1796   -6.3859 P.3       1 ATP         1.8237
      2 O1G        -2.2078    0.0681   -7.2142 O.2       1 ATP        -0.8455
      3 O2G        -3.3290   -1.3764   -5.3305 O.3       1 ATP        -0.7970
      4 O3G        -2.1489   -2.5575   -7.2320 O.3       1 ATP        -0.7970
      5 PB          0.7667   -1.3652   -5.8728 P.3       1 ATP         1.9358
      6 O1B         1.1631   -2.4914   -6.7810 O.2       1 ATP        -0.8836
      7 O2B         1.0455    0.1160   -6.4572 O.3       1 ATP        -0.8065
      8 O3B        -0.7968   -1.3195   -5.4715 O.3       1 ATP        -0.8233
      9 PA          1.5535   -2.4535   -3.2419 P.3       1 ATP         1.5686
     10 O1A         2.2581   -3.6962   -3.7414 O.co2     1 ATP        -0.8169
     11 O2A         0.1699   -2.5402   -2.6352 O.co2     1 ATP        -0.8169
     12 O3A         1.5187   -1.3497   -4.4431 O.3       1 ATP        -0.7987
     13 O5'         2.5237   -1.6631   -2.1889 O.3       1 ATP        -0.5693
     14 C5'         2.2816   -0.2918   -1.9206 C.3       1 ATP         0.1841
     15 C4'         2.7248    0.0226   -0.4980 C.3       1 ATP         0.0904
     16 O4'         2.4697    1.4219   -0.2462 O.3       1 ATP        -0.4083
     17 C3'         1.9404   -0.7419    0.5596 C.3       1 ATP         0.0826
     18 O3'         2.7418   -0.8086    1.7389 O.3       1 ATP        -0.6106
     19 C2'         0.7477    0.1630    0.7858 C.3       1 ATP         0.1294
     20 O2'         0.1373   -0.0577    2.0407 O.3       1 ATP        -0.5701
     21 C1'         1.3733    1.5427    0.6747 C.3       1 ATP         0.3967
     22 N9          0.4520    2.5240    0.1767 N.pl3     1 ATP        -0.5600
     23 C8          0.1928    2.8484   -1.0815 C.ar      1 ATP         0.3009
     24 N7         -0.7248    3.8048   -1.2110 N.pl3     1 ATP        -0.5113
     25 C5         -1.0765    4.1129    0.0571 C.ar      1 ATP        -0.2824
     26 C6         -1.9614    5.0063    0.5851 C.ar      1 ATP         0.7670
     27 N6         -2.7145    5.8254   -0.2810 N.pl3     1 ATP        -0.9491
     28 N1         -2.1199    5.1113    1.9228 N.ar      1 ATP        -0.7474
     29 C2         -1.3522    4.2822    2.6839 C.ar      1 ATP         0.7118
     30 N3         -0.4501    3.3660    2.2638 N.ar      1 ATP        -0.6661
     31 C4         -0.3487    3.3198    0.9322 C.ar      1 ATP         0.6308
     32 HOG2       -3.4699   -0.6962   -4.6381 H         1 ATP         0.4930
     33 HOG3       -1.4471   -2.7200   -7.8979 H         1 ATP         0.4930
     34 HOB2        0.6094    0.3866   -7.2931 H         1 ATP         0.4808
     35 H5'1        2.8429    0.3140   -2.6391 H         1 ATP         0.0350
     36 H5'2        1.2125   -0.0906   -2.0420 H         1 ATP         0.0350
     37 H4'         3.8050   -0.1388   -0.4008 H         1 ATP         0.1244
     38 H3'         1.6784   -1.7629    0.2714 H         1 ATP         0.0924
     39 HO3'        2.2232   -1.2979    2.3953 H         1 ATP         0.4379
     40 H2'        -0.0011    0.0027    0.0003 H         1 ATP         0.0849
     41 HO2'       -0.6141    0.5574    2.1082 H         1 ATP         0.4417
     42 H1'         1.7826    1.9024    1.6451 H         1 ATP         0.1307
     43 H8          0.6728    2.3873   -1.9272 H         1 ATP         0.2875
     44 HN61       -3.3968    6.4465    0.1048 H         1 ATP         0.4559
     45 HN62       -2.6221    5.7051   -1.2696 H         1 ATP         0.4559
     46 H2         -1.4818    4.3694    3.7565 H         1 ATP         0.0858
     47 H47        -1.0701    4.2005   -2.0743 H         1 ATP         0.5042
@<TRIPOS>BOND
     1    1    2 2
     2    1    3 1
     3    1    4 1
     4    1    8 1
     5    3   32 1
     6    4   33 1
     7    5    6 2
     8    5    7 1
     9    5    8 1
    10    5   12 1
    11    7   34 1
    12    9   10 2
    13    9   11 1
    14    9   12 1
    15    9   13 1
    16   13   14 1
    17   14   15 1
    18   14   35 1
    19   14   36 1
    20   15   16 1
    21   15   17 1
    22   15   37 1
    23   16   21 1
    24   17   18 1
    25   17   19 1
    26   17   38 1
    27   18   39 1
    28   19   20 1
    29   19   21 1
    30   19   40 1
    31   20   41 1
    32   21   22 1
    33   21   42 1
    34   22   23 ar
    35   22   31 ar
    36   23   24 ar
    37   23   43 1
    38   24   25 ar
    39   24   47 1
    40   25   26 ar
    41   25   31 ar
    42   26   27 1
    43   26   28 ar
    44   27   44 1
    45   27   45 1
    46   28   29 ar
    47   29   30 ar
    48   29   46 1
    49   30   31 ar
@<TRIPOS>SUBSTRUCTURE
     1 ATP         1 GROUP 0 A     ****
@<TRIPOS>MOLECULE
[5-(6-amino-7,8-dihydropurin-8-ylium-9-yl)-3,4-dihydroxy-tetrahydrofuran-2-yl]methyl [hydroxy(phosphonooxy)phosphoryl] phosphate
   47    49     1     0     0
SMALL
USER_CHARGES

@<TRIPOS>ATOM
      1 PG          7.4079   -1.4823   -6.8459 P.3       1 ATP         1.8237
      2 O1G         7.0139   -2.3182   -8.0276 O.2       1 ATP        -0.8455
      3 O2G         8.5802   -2.1166   -5.9304 O.3       1 ATP        -0.7970
      4 O3G         7.9880   -0.0186   -7.2152 O.3       1 ATP        -0.7970
      5 PB          5.3185   -2.1638   -4.8966 P.3       1 ATP         1.9358
      6 O1B         4.4867   -3.1403   -5.6744 O.2       1 ATP        -0.8836
      7 O2B         6.3792   -2.8299   -3.8746 O.3       1 ATP        -0.8065
      8 O3B         6.2305   -1.1715   -5.7861 O.3       1 ATP        -0.8233
      9 PA          3.3322   -0.0533   -4.3265 P.3       1 ATP         1.5686
     10 O1A         2.1130   -0.7769   -4.8559 O.co2     1 ATP        -0.8169
     11 O2A         3.9798    1.0571   -5.1250 O.co2     1 ATP        -0.8169
     12 O3A         4.4780   -1.1544   -3.9562 O.3       1 ATP        -0.7987
     13 O5'         3.0197    0.5137   -2.8245 O.3       1 ATP        -0.5693
     14 C5'         2.2816   -0.2918   -1.9206 C.3       1 ATP         0.1841
     15 C4'         2.7248    0.0226   -0.4980 C.3       1 ATP         0.0904
     16 O4'         2.4697    1.4219   -0.2462 O.3       1 ATP        -0.4083
     17 C3'         1.9404   -0.7419    0.5596 C.3       1 ATP         0.0826
     18 O3'         2.7418   -0.8086    1.7389 O.3       1 ATP        -0.6106
     19 C2'         0.7477    0.1630    0.7858 C.3       1 ATP         0.1294
     20 O2'         0.1373   -0.0577    2.0407 O.3       1 ATP        -0.5701
     21 C1'         1.3733    1.5427    0.6747 C.3       1 ATP         0.3967
     22 N9          0.4520    2.5240    0.1767 N.pl3     1 ATP        -0.5600
     23 C8          0.1928    2.8484   -1.0815 C.ar      1 ATP         0.3009
     24 N7         -0.7248    3.8048   -1.2110 N.pl3     1 ATP        -0.5113
     25 C5         -1.0765    4.1129    0.0571 C.ar      1 ATP        -0.2824
     26 C6         -1.9614    5.0063    0.5851 C.ar      1 ATP         0.7670
     27 N6         -2.7145    5.8254   -0.2810 N.pl3     1 ATP        -0.9491
     28 N1         -2.1199    5.1113    1.9228 N.ar      1 ATP        -0.7474
     29 C2         -1.3522    4.2822    2.6839 C.ar      1 ATP         0.7118
     30 N3         -0.4501    3.3660    2.2638 N.ar      1 ATP        -0.6661
     31 C4         -0.3487    3.3198    0.9322 C.ar      1 ATP         0.6308
     32 HOG2        8.8862   -1.6213   -5.1410 H         1 ATP         0.4930
     33 HOG3        7.4168    0.6069   -7.7101 H         1 ATP         0.4930
     34 HOB2        7.0727   -3.4251   -4.2310 H         1 ATP         0.4808
     35 H5'1        1.2153   -0.0781   -2.0454 H         1 ATP         0.0350
     36 H5'2        2.4645   -1.3454   -2.1547 H         1 ATP         0.0350
     37 H4'         3.8050   -0.1388   -0.4008 H         1 ATP         0.1244
     38 H3'         1.6784   -1.7629    0.2714 H         1 ATP         0.0924
     39 HO3'        2.2232   -1.2979    2.3953 H         1 ATP         0.4379
     40 H2'        -0.0011    0.0027    0.0003 H         1 ATP         0.0849
     41 HO2'       -0.6141    0.5574    2.1082 H         1 ATP         0.4417
     42 H1'         1.7826    1.9024    1.6451 H         1 ATP         0.1307
     43 H8          0.6728    2.3873   -1.9272 H         1 ATP         0.2875
     44 HN61       -2.5537    5.7714   -1.2667 H         1 ATP         0.4559
     45 HN62       -3.3282    6.5126    0.1080 H         1 ATP         0.4559
     46 H2         -1.4818    4.3694    3.7565 H         1 ATP         0.0858
     47 H47        -1.0701    4.2005   -2.0743 H         1 ATP         0.5042
@<TRIPOS>BOND
     1    1    2 2
     2    1    3 1
     3    1    4 1
     4    1    8 1
     5    3   32 1
     6    4   33 1
     7    5    6 2
     8    5    7 1
     9    5    8 1
    10    5   12 1
    11    7   34 1
    12    9   10 2
    13    9   11 1
    14    9   12 1
    15    9   13 1
    16   13   14 1
    17   14   15 1
    18   14   35 1
    19   14   36 1
    20   15   16 1
    21   15   17 1
    22   15   37 1
    23   16   21 1
    24   17   18 1
    25   17   19 1
    26   17   38 1
    27   18   39 1
    28   19   20 1
    29   19   21 1
    30   19   40 1
    31   20   41 1
    32   21   22 1
    33   21   42 1
    34   22   23 ar
    35   22   31 ar
    36   23   24 ar
    37   23   43 1
    38   24   25 ar
    39   24   47 1
    40   25   26 ar
    41   25   31 ar
    42   26   27 1
    43   26   28 ar
    44   27   44 1
    45   27   45 1
    46   28   29 ar
    47   29   30 ar
    48   29   46 1
    49   30   31 ar
@<TRIPOS>SUBSTRUCTURE
     1 ATP         1 GROUP 0 A     ****
@<TRIPOS>MOLECULE
[5-(6-amino-7,8-dihydropurin-8-ylium-9-yl)-3,4-dihydroxy-tetrahydrofuran-2-yl]methyl [hydroxy(phosphonooxy)phosphoryl] phosphate
   47    49     1     0     0
SMALL
USER_CHARGES

@<TRIPOS>ATOM
      1 PG          3.4679   -4.6274    3.2884 P.3       1 ATP         1.8237
      2 O1G         4.1850   -4.0670    4.4809 O.2       1 ATP        -0.8455
      3 O2G         3.3271   -3.6057    2.0430 O.3       1 ATP        -0.7970
      4 O3G         4.1737   -5.9196    2.6195 O.3       1 ATP        -0.7970
      5 PB          1.3546   -6.2316    4.5495 P.3       1 ATP         1.9358
      6 O1B         1.8593   -7.6263    4.3249 O.2       1 ATP        -0.8836
      7 O2B         1.6579   -5.6218    6.0156 O.3       1 ATP        -0.8065
      8 O3B         1.9504   -5.1122    3.5497 O.3       1 ATP        -0.8233
      9 PA         -1.2316   -6.3272    3.1257 P.3       1 ATP         1.5686
     10 O1A        -2.6266   -5.8630    3.4843 O.co2     1 ATP        -0.8169
     11 O2A        -0.9894   -7.7354    2.6275 O.co2     1 ATP        -0.8169
     12 O3A        -0.2439   -6.0554    4.3957 O.3       1 ATP        -0.7987
     13 O5'        -0.5697   -5.2855    2.0524 O.3       1 ATP        -0.5693
     14 C5'        -0.7840   -3.8935    2.2172 C.3       1 ATP         0.1841
     15 C4'        -0.0724   -3.1466    1.1027 C.3       1 ATP         0.0904
     16 O4'        -0.8674   -3.1929   -0.0945 O.3       1 ATP        -0.4083
     17 C3'         0.1338   -1.6715    1.4027 C.3       1 ATP         0.0826
     18 O3'         1.2893   -1.4445    2.1808 O.3       1 ATP        -0.6106
     19 C2'         0.2158   -1.0724    0.0128 C.3       1 ATP         0.1294
     20 O2'         1.5141   -1.2448   -0.5513 O.3       1 ATP        -0.5701
     21 C1'        -0.7897   -1.9176   -0.7583 C.3       1 ATP         0.3967
     22 N9         -2.1040   -1.3333   -0.7704 N.pl3     1 ATP        -0.5600
     23 C8         -3.0822   -1.4850    0.1102 C.ar      1 ATP         0.3009
     24 N7         -4.1844   -0.7999   -0.1888 N.pl3     1 ATP        -0.5113
     25 C5         -3.8875   -0.1651   -1.3445 C.ar      1 ATP        -0.2824
     26 C6         -4.5941    0.6799   -2.1486 C.ar      1 ATP         0.7670
     27 N6         -5.9138    1.0274   -1.7939 N.pl3     1 ATP        -0.9491
     28 N1         -4.0421    1.1824   -3.2748 N.ar      1 ATP        -0.7474
     29 C2         -2.7637    0.7937   -3.5405 C.ar      1 ATP         0.7118
     30 N3         -1.9788   -0.0343   -2.8140 N.ar      1 ATP        -0.6661
     31 C4         -2.5915   -0.4902   -1.7174 C.ar      1 ATP         0.6308
     32 HOG2        2.8480   -2.7600    2.1748 H         1 ATP         0.4930
     33 HOG3        4.2994   -6.7261    3.1636 H         1 ATP         0.4930
     34 HOB2        2.5894   -5.5340    6.3101 H         1 ATP         0.4808
     35 H5'1       -1.8599   -3.6946    2.1849 H         1 ATP         0.0350
     36 H5'2       -0.3934   -3.5881    3.1930 H         1 ATP         0.0350
     37 H4'         0.8886   -3.6447    0.8779 H         1 ATP         0.1244
     38 H3'        -0.7373   -1.2359    1.9870 H         1 ATP         0.0924
     39 HO3'        1.3408   -0.4870    2.3219 H         1 ATP         0.4379
     40 H2'        -0.0384   -0.0310    0.0096 H         1 ATP         0.0849
     41 HO2'        2.1463   -0.7958    0.0370 H         1 ATP         0.4417
     42 H1'        -0.4769   -2.1002   -1.8093 H         1 ATP         0.1307
     43 H8         -3.0031   -2.1011    0.9891 H         1 ATP         0.2875
     44 HN61       -6.3271    0.6117   -0.9836 H         1 ATP         0.4559
     45 HN62       -6.4471    1.6092   -2.4083 H         1 ATP         0.4559
     46 H2         -2.3243    1.1986   -4.4449 H         1 ATP         0.0858
     47 H47        -5.0436   -0.7722    0.3425 H         1 ATP         0.5042
@<TRIPOS>BOND
     1    1    2 2
     2    1    3 1
     3    1    4 1
     4    1    8 1
     5    3   32 1
     6    4   33 1
     7    5    6 2
     8    5    7 1
     9    5    8 1
    10    5   12 1
    11    7   34 1
    12    9   10 2
    13    9   11 1
    14    9   12 1
    15    9   13 1
    16   13   14 1
    17   14   15 1
    18   14   35 1
    19   14   36 1
    20   15   16 1
    21   15   17 1
    22   15   37 1
    23   16   21 1
    24   17   18 1
    25   17   19 1
    26   17   38 1
    27   18   39 1
    28   19   20 1
    29   19   21 1
    30   19   40 1
    31   20   41 1
    32   21   22 1
    33   21   42 1
    34   22   23 ar
    35   22   31 ar
    36   23   24 ar
    37   23   43 1
    38   24   25 ar
    39   24   47 1
    40   25   26 ar
    41   25   31 ar
    42   26   27 1
    43   26   28 ar
    44   27   44 1
    45   27   45 1
    46   28   29 ar
    47   29   30 ar
    48   29   46 1
    49   30   31 ar
@<TRIPOS>SUBSTRUCTURE
     1 ATP         1 GROUP 0 A     ****
@<TRIPOS>MOLECULE
[5-(6-amino-7,8-dihydropurin-8-ylium-9-yl)-3,4-dihydroxy-tetrahydrofuran-2-yl]methyl [hydroxy(phosphonooxy)phosphoryl] phosphate
   47    49     1     0     0
SMALL
USER_CHARGES

@<TRIPOS>ATOM
      1 PG         -1.2179   -5.5317   -5.4208 P.3       1 ATP         1.8237
      2 O1G        -1.3844   -5.3475   -6.9002 O.2       1 ATP        -0.8455
      3 O2G        -2.6024   -5.5940   -4.5877 O.3       1 ATP        -0.7970
      4 O3G        -0.4726   -6.9003   -4.9885 O.3       1 ATP        -0.7970
      5 PB         -0.6370   -2.7934   -4.5297 P.3       1 ATP         1.9358
      6 O1B        -0.6793   -2.0387   -5.8255 O.2       1 ATP        -0.8836
      7 O2B        -1.9874   -2.7108   -3.6450 O.3       1 ATP        -0.8065
      8 O3B        -0.3756   -4.3813   -4.6637 O.3       1 ATP        -0.8233
      9 PA          2.1361   -2.2694   -3.6576 P.3       1 ATP         1.5686
     10 O1A         2.4968   -1.2636   -4.7294 O.co2     1 ATP        -0.8169
     11 O2A         2.6449   -3.6926   -3.7300 O.co2     1 ATP        -0.8169
     12 O3A         0.5124   -2.3123   -3.5015 O.3       1 ATP        -0.7987
     13 O5'         2.5237   -1.6631   -2.1889 O.3       1 ATP        -0.5693
     14 C5'         2.2816   -0.2918   -1.9206 C.3       1 ATP         0.1841
     15 C4'         2.7248    0.0226   -0.4980 C.3       1 ATP         0.0904
     16 O4'         2.4697    1.4219   -0.2462 O.3       1 ATP        -0.4083
     17 C3'         1.9404   -0.7419    0.5596 C.3       1 ATP         0.0826
     18 O3'         2.7418   -0.8086    1.7389 O.3       1 ATP        -0.6106
     19 C2'         0.7477    0.1630    0.7858 C.3       1 ATP         0.1294
     20 O2'         0.1373   -0.0577    2.0407 O.3       1 ATP        -0.5701
     21 C1'         1.3733    1.5427    0.6747 C.3       1 ATP         0.3967
     22 N9          0.4520    2.5240    0.1767 N.pl3     1 ATP        -0.5600
     23 C8          0.1928    2.8484   -1.0815 C.ar      1 ATP         0.3009
     24 N7         -0.7248    3.8048   -1.2110 N.pl3     1 ATP        -0.5113
     25 C5         -1.0765    4.1129    0.0571 C.ar      1 ATP        -0.2824
     26 C6         -1.9614    5.0063    0.5851 C.ar      1 ATP         0.7670
     27 N6         -2.7145    5.8254   -0.2810 N.pl3     1 ATP        -0.9491
     28 N1         -2.1199    5.1113    1.9228 N.ar      1 ATP        -0.7474
     29 C2         -1.3522    4.2822    2.6839 C.ar      1 ATP         0.7118
     30 N3         -0.4501    3.3660    2.2638 N.ar      1 ATP        -0.6661
     31 C4         -0.3487    3.3198    0.9322 C.ar      1 ATP         0.6308
     32 HOG2       -2.5658   -5.7132   -3.6148 H         1 ATP         0.4930
     33 HOG3       -0.8718   -7.7590   -5.2446 H         1 ATP         0.4930
     34 HOB2       -2.8272   -3.0427   -4.0282 H         1 ATP         0.4808
     35 H5'1        2.8429    0.3140   -2.6391 H         1 ATP         0.0350
     36 H5'2        1.2125   -0.0906   -2.0420 H         1 ATP         0.0350
     37 H4'         3.8050   -0.1388   -0.4008 H         1 ATP         0.1244
     38 H3'         1.6784   -1.7629    0.2714 H         1 ATP         0.0924
     39 HO3'        2.2232   -1.2979    2.3953 H         1 ATP         0.4379
     40 H2'        -0.0011    0.0027    0.0003 H         1 ATP         0.0849
     41 HO2'       -0.1563   -0.9855    2.0596 H         1 ATP         0.4417
     42 H1'         1.7826    1.9024    1.6451 H         1 ATP         0.1307
     43 H8          0.6728    2.3873   -1.9272 H         1 ATP         0.2875
     44 HN61       -2.5537    5.7714   -1.2667 H         1 ATP         0.4559
     45 HN62       -3.3282    6.5126    0.1080 H         1 ATP         0.4559
     46 H2         -1.4818    4.3694    3.7565 H         1 ATP         0.0858
     47 H47        -1.0701    4.2005   -2.0743 H         1 ATP         0.5042
@<TRIPOS>BOND
     1    1    2 2
     2    1    3 1
     3    1    4 1
     4    1    8 1
     5    3   32 1
     6    4   33 1
     7    5    6 2
     8    5    7 1
     9    5    8 1
    10    5   12 1
    11    7   34 1
    12    9   10 2
    13    9   11 1
    14    9   12 1
    15    9   13 1
    16   13   14 1
    17   14   15 1
    18   14   35 1
    19   14   36 1
    20   15   16 1
    21   15   17 1
    22   15   37 1
    23   16   21 1
    24   17   18 1
    25   17   19 1
    26   17   38 1
    27   18   39 1
    28   19   20 1
    29   19   21 1
    30   19   40 1
    31   20   41 1
    32   21   22 1
    33   21   42 1
    34   22   23 ar
    35   22   31 ar
    36   23   24 ar
    37   23   43 1
    38   24   25 ar
    39   24   47 1
    40   25   26 ar
    41   25   31 ar
    42   26   27 1
    43   26   28 ar
    44   27   44 1
    45   27   45 1
    46   28   29 ar
    47   29   30 ar
    48   29   46 1
    49   30   31 ar
@<TRIPOS>SUBSTRUCTURE
     1 ATP         1 GROUP 0 A     ****
@<TRIPOS>MOLECULE
[5-(6-amino-7,8-dihydropurin-8-ylium-9-yl)-3,4-dihydroxy-tetrahydrofuran-2-yl]methyl [hydroxy(phosphonooxy)phosphoryl] phosphate
   47    49     1     0     0
SMALL
USER_CHARGES

@<TRIPOS>ATOM
      1 PG         -1.5909   -4.3513   -2.4303 P.3       1 ATP         1.8237
      2 O1G        -0.7483   -4.0335   -1.2305 O.2       1 ATP        -0.8455
      3 O2G        -1.4926   -5.8833   -2.9382 O.3       1 ATP        -0.7970
      4 O3G        -3.1800   -4.1413   -2.2166 O.3       1 ATP        -0.7970
      5 PB          0.0873   -3.3627   -4.6295 P.3       1 ATP         1.9358
      6 O1B         0.5963   -4.6442   -5.2205 O.2       1 ATP        -0.8836
      7 O2B        -0.2694   -2.2080   -5.7030 O.3       1 ATP        -0.8065
      8 O3B        -1.2665   -3.4937   -3.7590 O.3       1 ATP        -0.8233
      9 PA          2.6176   -2.0495   -3.8562 P.3       1 ATP         1.5686
     10 O1A         2.5475   -0.8911   -4.8275 O.co2     1 ATP        -0.8169
     11 O2A         3.5417   -3.2199   -4.1138 O.co2     1 ATP        -0.8169
     12 O3A         1.1108   -2.6284   -3.6180 O.3       1 ATP        -0.7987
     13 O5'         2.9201   -1.4821   -2.3524 O.3       1 ATP        -0.5693
     14 C5'         2.2816   -0.2918   -1.9206 C.3       1 ATP         0.1841
     15 C4'         2.7248    0.0226   -0.4980 C.3       1 ATP         0.0904
     16 O4'         2.4697    1.4219   -0.2462 O.3       1 ATP        -0.4083
     17 C3'         1.9404   -0.7419    0.5596 C.3       1 ATP         0.0826
     18 O3'         2.7418   -0.8086    1.7389 O.3       1 ATP        -0.6106
     19 C2'         0.7477    0.1630    0.7858 C.3       1 ATP         0.1294
     20 O2'         0.1373   -0.0577    2.0407 O.3       1 ATP        -0.5701
     21 C1'         1.3733    1.5427    0.6747 C.3       1 ATP         0.3967
     22 N9          0.4520    2.5240    0.1767 N.pl3     1 ATP        -0.5600
     23 C8         -0.2172    2.5216   -0.9668 C.ar      1 ATP         0.3009
     24 N7         -1.0011    3.5855   -1.1321 N.pl3     1 ATP        -0.5113
     25 C5         -0.8184    4.3200   -0.0123 C.ar      1 ATP        -0.2824
     26 C6         -1.3349    5.5079    0.4144 C.ar      1 ATP         0.7670
     27 N6         -2.2567    6.1930   -0.4036 N.pl3     1 ATP        -0.9491
     28 N1         -0.9716    6.0291    1.6069 N.ar      1 ATP        -0.7474
     29 C2         -0.0765    5.3009    2.3312 C.ar      1 ATP         0.7118
     30 N3          0.4933    4.1191    2.0023 N.ar      1 ATP        -0.6661
     31 C4          0.0865    3.6675    0.8123 C.ar      1 ATP         0.6308
     32 HOG2       -0.6208   -6.2356   -3.2173 H         1 ATP         0.4930
     33 HOG3       -3.5130   -3.2494   -1.9798 H         1 ATP         0.4930
     34 HOB2        0.4385   -1.8739   -6.2940 H         1 ATP         0.4808
     35 H5'1        2.5581    0.5235   -2.5966 H         1 ATP         0.0350
     36 H5'2        1.1974   -0.4370   -1.9607 H         1 ATP         0.0350
     37 H4'         3.8050   -0.1388   -0.4008 H         1 ATP         0.1244
     38 H3'         1.6784   -1.7629    0.2714 H         1 ATP         0.0924
     39 HO3'        2.2232   -1.2979    2.3953 H         1 ATP         0.4379
     40 H2'        -0.0011    0.0027    0.0003 H         1 ATP         0.0849
     41 HO2'       -0.6141    0.5574    2.1082 H         1 ATP         0.4417
     42 H1'         1.7826    1.9024    1.6451 H         1 ATP         0.1307
     43 H8         -0.1423    1.7373   -1.6999 H         1 ATP         0.2875
     44 HN61       -2.4811    5.8206   -1.3042 H         1 ATP         0.4559
     45 HN62       -2.5986    7.0863   -0.1113 H         1 ATP         0.4559
     46 H2          0.2128    5.7222    3.2871 H         1 ATP         0.0858
     47 H47        -1.5947    3.7835   -1.9255 H         1 ATP         0.5042
@<TRIPOS>BOND
     1    1    2 2
     2    1    3 1
     3    1    4 1
     4    1    8 1
     5    3   32 1
     6    4   33 1
     7    5    6 2
     8    5    7 1
     9    5    8 1
    10    5   12 1
    11    7   34 1
    12    9   10 2
    13    9   11 1
    14    9   12 1
    15    9   13 1
    16   13   14 1
    17   14   15 1
    18   14   35 1
    19   14   36 1
    20   15   16 1
    21   15   17 1
    22   15   37 1
    23   16   21 1
    24   17   18 1
    25   17   19 1
    26   17   38 1
    27   18   39 1
    28   19   20 1
    29   19   21 1
    30   19   40 1
    31   20   41 1
    32   21   22 1
    33   21   42 1
    34   22   23 ar
    35   22   31 ar
    36   23   24 ar
    37   23   43 1
    38   24   25 ar
    39   24   47 1
    40   25   26 ar
    41   25   31 ar
    42   26   27 1
    43   26   28 ar
    44   27   44 1
    45   27   45 1
    46   28   29 ar
    47   29   30 ar
    48   29   46 1
    49   30   31 ar
@<TRIPOS>SUBSTRUCTURE
     1 ATP         1 GROUP 0 A     ****
@<TRIPOS>MOLECULE
[5-(6-amino-7,8-dihydropurin-8-ylium-9-yl)-3,4-dihydroxy-tetrahydrofuran-2-yl]methyl [hydroxy(phosphonooxy)phosphoryl] phosphate
   47    49     1     0     0
SMALL
USER_CHARGES

@<TRIPOS>ATOM
      1 PG         -2.1295    1.4251   -3.9390 P.3       1 ATP         1.8237
      2 O1G        -2.9503    0.2249   -4.3083 O.2       1 ATP        -0.8455
      3 O2G        -2.9867    2.7616   -3.6329 O.3       1 ATP        -0.7970
      4 O3G        -1.2393    1.2506   -2.6002 O.3       1 ATP        -0.7970
      5 PB          0.1927    1.1425   -5.7158 P.3       1 ATP         1.9358
      6 O1B        -0.1464   -0.1162   -6.4583 O.2       1 ATP        -0.8836
      7 O2B         0.9030    2.2910   -6.6044 O.3       1 ATP        -0.8065
      8 O3B        -1.0617    1.9098   -5.0485 O.3       1 ATP        -0.8233
      9 PA          2.7386    0.3748   -4.4298 P.3       1 ATP         1.5686
     10 O1A         3.6399    1.3283   -5.1839 O.co2     1 ATP        -0.8169
     11 O2A         2.7068   -1.0976   -4.7776 O.co2     1 ATP        -0.8169
     12 O3A         1.2110    0.9462   -4.4771 O.3       1 ATP        -0.7987
     13 O5'         3.0197    0.5137   -2.8245 O.3       1 ATP        -0.5693
     14 C5'         2.2816   -0.2918   -1.9206 C.3       1 ATP         0.1841
     15 C4'         2.7248    0.0226   -0.4980 C.3       1 ATP         0.0904
     16 O4'         2.4697    1.4219   -0.2462 O.3       1 ATP        -0.4083
     17 C3'         1.9404   -0.7419    0.5596 C.3       1 ATP         0.0826
     18 O3'         2.7418   -0.8086    1.7389 O.3       1 ATP        -0.6106
     19 C2'         0.7477    0.1630    0.7858 C.3       1 ATP         0.1294
     20 O2'         0.1373   -0.0577    2.0407 O.3       1 ATP        -0.5701
     21 C1'         1.3733    1.5427    0.6747 C.3       1 ATP         0.3967
     22 N9          0.4520    2.5240    0.1767 N.pl3     1 ATP        -0.5600
     23 C8         -0.8602    2.5861    0.3496 C.ar      1 ATP         0.3009
     24 N7         -1.4308    3.6326   -0.2443 N.pl3     1 ATP        -0.5113
     25 C5         -0.4080    4.2856   -0.8394 C.ar      1 ATP        -0.2824
     26 C6         -0.3432    5.4196   -1.5943 C.ar      1 ATP         0.7670
     27 N6         -1.5276    6.1333   -1.8702 N.pl3     1 ATP        -0.9491
     28 N1          0.8395    5.8603   -2.0764 N.ar      1 ATP        -0.7474
     29 C2          1.9319    5.1095   -1.7617 C.ar      1 ATP         0.7118
     30 N3          1.9773    3.9761   -1.0249 N.ar      1 ATP        -0.6661
     31 C4          0.7724    3.6031   -0.5836 C.ar      1 ATP         0.6308
     32 HOG2       -3.5588    3.1305   -4.3392 H         1 ATP         0.4930
     33 HOG3       -0.6789    1.9987   -2.3025 H         1 ATP         0.4930
     34 HOB2        1.7595    2.0931   -7.0395 H         1 ATP         0.4808
     35 H5'1        1.2153   -0.0781   -2.0454 H         1 ATP         0.0350
     36 H5'2        2.4645   -1.3454   -2.1547 H         1 ATP         0.0350
     37 H4'         3.8050   -0.1388   -0.4008 H         1 ATP         0.1244
     38 H3'         1.6784   -1.7629    0.2714 H         1 ATP         0.0924
     39 HO3'        3.5554   -1.2733    1.4914 H         1 ATP         0.4379
     40 H2'        -0.0011    0.0027    0.0003 H         1 ATP         0.0849
     41 HO2'       -0.1563   -0.9855    2.0596 H         1 ATP         0.4417
     42 H1'         1.7826    1.9024    1.6451 H         1 ATP         0.1307
     43 H8         -1.4217    1.8638    0.9164 H         1 ATP         0.2875
     44 HN61       -2.4023    5.7711   -1.5477 H         1 ATP         0.4559
     45 HN62       -1.4857    6.9379   -2.4627 H         1 ATP         0.4559
     46 H2          2.8789    5.4660   -2.1503 H         1 ATP         0.0858
     47 H47        -2.4129    3.8706   -0.2402 H         1 ATP         0.5042
@<TRIPOS>BOND
     1    1    2 2
     2    1    3 1
     3    1    4 1
     4    1    8 1
     5    3   32 1
     6    4   33 1
     7    5    6 2
     8    5    7 1
     9    5    8 1
    10    5   12 1
    11    7   34 1
    12    9   10 2
    13    9   11 1
    14    9   12 1
    15    9   13 1
    16   13   14 1
    17   14   15 1
    18   14   35 1
    19   14   36 1
    20   15   16 1
    21   15   17 1
    22   15   37 1
    23   16   21 1
    24   17   18 1
    25   17   19 1
    26   17   38 1
    27   18   39 1
    28   19   20 1
    29   19   21 1
    30   19   40 1
    31   20   41 1
    32   21   22 1
    33   21   42 1
    34   22   23 ar
    35   22   31 ar
    36   23   24 ar
    37   23   43 1
    38   24   25 ar
    39   24   47 1
    40   25   26 ar
    41   25   31 ar
    42   26   27 1
    43   26   28 ar
    44   27   44 1
    45   27   45 1
    46   28   29 ar
    47   29   30 ar
    48   29   46 1
    49   30   31 ar
@<TRIPOS>SUBSTRUCTURE
     1 ATP         1 GROUP 0 A     ****
@<TRIPOS>MOLECULE
[5-(6-amino-7,8-dihydropurin-8-ylium-9-yl)-3,4-dihydroxy-tetrahydrofuran-2-yl]methyl [hydroxy(phosphonooxy)phosphoryl] phosphate
   47    49     1     0     0
SMALL
USER_CHARGES

@<TRIPOS>ATOM
      1 PG          1.8491   -5.9623    6.3404 P.3       1 ATP         1.8237
      2 O1G         2.8877   -4.9647    5.9204 O.2       1 ATP        -0.8455
      3 O2G         2.2011   -6.7752    7.6931 O.3       1 ATP        -0.7970
      4 O3G         0.3958   -5.3311    6.6643 O.3       1 ATP        -0.7970
      5 PB          0.9785   -7.0563    3.7568 P.3       1 ATP         1.9358
      6 O1B         1.8392   -6.2879    2.7980 O.2       1 ATP        -0.8836
      7 O2B         0.7400   -8.6077    3.3702 O.3       1 ATP        -0.8065
      8 O3B         1.5299   -7.1303    5.2727 O.3       1 ATP        -0.8233
      9 PA         -1.7212   -6.2752    2.8479 P.3       1 ATP         1.5686
     10 O1A        -2.8747   -5.5667    3.5244 O.co2     1 ATP        -0.8169
     11 O2A        -1.9369   -7.5858    2.1227 O.co2     1 ATP        -0.8169
     12 O3A        -0.5207   -6.4812    3.9336 O.3       1 ATP        -0.7987
     13 O5'        -0.9729   -5.2427    1.8237 O.3       1 ATP        -0.5693
     14 C5'        -0.7840   -3.8935    2.2172 C.3       1 ATP         0.1841
     15 C4'        -0.0724   -3.1466    1.1027 C.3       1 ATP         0.0904
     16 O4'        -0.8674   -3.1929   -0.0945 O.3       1 ATP        -0.4083
     17 C3'         0.1338   -1.6715    1.4027 C.3       1 ATP         0.0826
     18 O3'         1.2893   -1.4445    2.1808 O.3       1 ATP        -0.6106
     19 C2'         0.2158   -1.0724    0.0128 C.3       1 ATP         0.1294
     20 O2'         1.5141   -1.2448   -0.5513 O.3       1 ATP        -0.5701
     21 C1'        -0.7897   -1.9176   -0.7583 C.3       1 ATP         0.3967
     22 N9         -2.1040   -1.3333   -0.7704 N.pl3     1 ATP        -0.5600
     23 C8         -3.0822   -1.4850    0.1102 C.ar      1 ATP         0.3009
     24 N7         -4.1844   -0.7999   -0.1888 N.pl3     1 ATP        -0.5113
     25 C5         -3.8875   -0.1651   -1.3445 C.ar      1 ATP        -0.2824
     26 C6         -4.5941    0.6799   -2.1486 C.ar      1 ATP         0.7670
     27 N6         -5.9138    1.0274   -1.7939 N.pl3     1 ATP        -0.9491
     28 N1         -4.0421    1.1824   -3.2748 N.ar      1 ATP        -0.7474
     29 C2         -2.7637    0.7937   -3.5405 C.ar      1 ATP         0.7118
     30 N3         -1.9788   -0.0343   -2.8140 N.ar      1 ATP        -0.6661
     31 C4         -2.5915   -0.4902   -1.7174 C.ar      1 ATP         0.6308
     32 HOG2        3.0146   -7.3226    7.7196 H         1 ATP         0.4930
     33 HOG3       -0.0795   -4.8468    5.9559 H         1 ATP         0.4930
     34 HOB2        0.3083   -8.8234    2.5162 H         1 ATP         0.4808
     35 H5'1       -1.7613   -3.4427    2.4167 H         1 ATP         0.0350
     36 H5'2       -0.1870   -3.8723    3.1344 H         1 ATP         0.0350
     37 H4'         0.8886   -3.6447    0.8779 H         1 ATP         0.1244
     38 H3'        -0.7373   -1.2359    1.9870 H         1 ATP         0.0924
     39 HO3'        1.1626   -1.9325    3.0084 H         1 ATP         0.4379
     40 H2'        -0.0384   -0.0310    0.0096 H         1 ATP         0.0849
     41 HO2'        2.1463   -0.7958    0.0370 H         1 ATP         0.4417
     42 H1'        -0.4769   -2.1002   -1.8093 H         1 ATP         0.1307
     43 H8         -3.0031   -2.1011    0.9891 H         1 ATP         0.2875
     44 HN61       -6.3271    0.6117   -0.9836 H         1 ATP         0.4559
     45 HN62       -6.4471    1.6092   -2.4083 H         1 ATP         0.4559
     46 H2         -2.3243    1.1986   -4.4449 H         1 ATP         0.0858
     47 H47        -5.0436   -0.7722    0.3425 H         1 ATP         0.5042
@<TRIPOS>BOND
     1    1    2 2
     2    1    3 1
     3    1    4 1
     4    1    8 1
     5    3   32 1
     6    4   33 1
     7    5    6 2
     8    5    7 1
     9    5    8 1
    10    5   12 1
    11    7   34 1
    12    9   10 2
    13    9   11 1
    14    9   12 1
    15    9   13 1
    16   13   14 1
    17   14   15 1
    18   14   35 1
    19   14   36 1
    20   15   16 1
    21   15   17 1
    22   15   37 1
    23   16   21 1
    24   17   18 1
    25   17   19 1
    26   17   38 1
    27   18   39 1
    28   19   20 1
    29   19   21 1
    30   19   40 1
    31   20   41 1
    32   21   22 1
    33   21   42 1
    34   22   23 ar
    35   22   31 ar
    36   23   24 ar
    37   23   43 1
    38   24   25 ar
    39   24   47 1
    40   25   26 ar
    41   25   31 ar
    42   26   27 1
    43   26   28 ar
    44   27   44 1
    45   27   45 1
    46   28   29 ar
    47   29   30 ar
    48   29   46 1
    49   30   31 ar
@<TRIPOS>SUBSTRUCTURE
     1 ATP         1 GROUP 0 A     ****
@<TRIPOS>MOLECULE
[5-(6-amino-7,8-dihydropurin-8-ylium-9-yl)-3,4-dihydroxy-tetrahydrofuran-2-yl]methyl [hydroxy(phosphonooxy)phosphoryl] phosphate
   47    49     1     0     0
SMALL
USER_CHARGES

@<TRIPOS>ATOM
      1 PG          1.9547   -3.7589   -5.8573 P.3       1 ATP         1.8237
      2 O1G         2.9397   -3.6808   -4.7285 O.2       1 ATP        -0.8455
      3 O2G         2.6186   -3.8128   -7.3307 O.3       1 ATP        -0.7970
      4 O3G         1.0060   -5.0685   -5.8388 O.3       1 ATP        -0.7970
      5 PB          1.1565   -0.9482   -6.1619 P.3       1 ATP         1.9358
      6 O1B         1.8733   -0.5657   -7.4230 O.2       1 ATP        -0.8836
      7 O2B        -0.3226   -0.3173   -5.9971 O.3       1 ATP        -0.8065
      8 O3B         0.9112   -2.5315   -5.9603 O.3       1 ATP        -0.8233
      9 PA          2.3317    0.9615   -4.2392 P.3       1 ATP         1.5686
     10 O1A         1.0779    1.7613   -3.9590 O.co2     1 ATP        -0.8169
     11 O2A         3.4167    1.5139   -5.1378 O.co2     1 ATP        -0.8169
     12 O3A         1.9029   -0.5105   -4.7977 O.3       1 ATP        -0.7987
     13 O5'         3.0197    0.5137   -2.8245 O.3       1 ATP        -0.5693
     14 C5'         2.2816   -0.2918   -1.9206 C.3       1 ATP         0.1841
     15 C4'         2.7248    0.0226   -0.4980 C.3       1 ATP         0.0904
     16 O4'         2.4697    1.4219   -0.2462 O.3       1 ATP        -0.4083
     17 C3'         1.9404   -0.7419    0.5596 C.3       1 ATP         0.0826
     18 O3'         2.7418   -0.8086    1.7389 O.3       1 ATP        -0.6106
     19 C2'         0.7477    0.1630    0.7858 C.3       1 ATP         0.1294
     20 O2'         0.1373   -0.0577    2.0407 O.3       1 ATP        -0.5701
     21 C1'         1.3733    1.5427    0.6747 C.3       1 ATP         0.3967
     22 N9          0.4520    2.5240    0.1767 N.pl3     1 ATP        -0.5600
     23 C8          0.5305    3.2394   -0.9358 C.ar      1 ATP         0.3009
     24 N7         -0.4966    4.0680   -1.1145 N.pl3     1 ATP        -0.5113
     25 C5         -1.2879    3.8664   -0.0375 C.ar      1 ATP        -0.2824
     26 C6         -2.4754    4.4084    0.3577 C.ar      1 ATP         0.7670
     27 N6         -3.0892    5.3882   -0.4495 N.pl3     1 ATP        -0.9491
     28 N1         -3.0632    4.0158    1.5092 N.ar      1 ATP        -0.7474
     29 C2         -2.4008    3.0654    2.2262 C.ar      1 ATP         0.7118
     30 N3         -1.2259    2.4663    1.9260 N.ar      1 ATP        -0.6661
     31 C4         -0.7062    2.9047    0.7757 C.ar      1 ATP         0.6308
     32 HOG2        3.1863   -3.0682   -7.6229 H         1 ATP         0.4930
     33 HOG3        1.4216   -5.9559   -5.8857 H         1 ATP         0.4930
     34 HOB2       -0.4239    0.6582   -5.9820 H         1 ATP         0.4808
     35 H5'1        1.2153   -0.0781   -2.0454 H         1 ATP         0.0350
     36 H5'2        2.4645   -1.3454   -2.1547 H         1 ATP         0.0350
     37 H4'         3.8050   -0.1388   -0.4008 H         1 ATP         0.1244
     38 H3'         1.6784   -1.7629    0.2714 H         1 ATP         0.0924
     39 HO3'        2.2232   -1.2979    2.3953 H         1 ATP         0.4379
     40 H2'        -0.0011    0.0027    0.0003 H         1 ATP         0.0849
     41 HO2'       -0.1563   -0.9855    2.0596 H         1 ATP         0.4417
     42 H1'         1.7826    1.9024    1.6451 H         1 ATP         0.1307
     43 H8          1.3437    3.1645   -1.6367 H         1 ATP         0.2875
     44 HN61       -2.6210    5.7042   -1.2748 H         1 ATP         0.4559
     45 HN62       -3.9356    5.8187   -0.1356 H         1 ATP         0.4559
     46 H2         -2.8752    2.7532    3.1495 H         1 ATP         0.0858
     47 H47        -0.6372    4.7004   -1.8900 H         1 ATP         0.5042
@<TRIPOS>BOND
     1    1    2 2
     2    1    3 1
     3    1    4 1
     4    1    8 1
     5    3   32 1
     6    4   33 1
     7    5    6 2
     8    5    7 1
     9    5    8 1
    10    5   12 1
    11    7   34 1
    12    9   10 2
    13    9   11 1
    14    9   12 1
    15    9   13 1
    16   13   14 1
    17   14   15 1
    18   14   35 1
    19   14   36 1
    20   15   16 1
    21   15   17 1
    22   15   37 1
    23   16   21 1
    24   17   18 1
    25   17   19 1
    26   17   38 1
    27   18   39 1
    28   19   20 1
    29   19   21 1
    30   19   40 1
    31   20   41 1
    32   21   22 1
    33   21   42 1
    34   22   23 ar
    35   22   31 ar
    36   23   24 ar
    37   23   43 1
    38   24   25 ar
    39   24   47 1
    40   25   26 ar
    41   25   31 ar
    42   26   27 1
    43   26   28 ar
    44   27   44 1
    45   27   45 1
    46   28   29 ar
    47   29   30 ar
    48   29   46 1
    49   30   31 ar
@<TRIPOS>SUBSTRUCTURE
     1 ATP         1 GROUP 0 A     ****
@<TRIPOS>MOLECULE
[5-(6-amino-7,8-dihydropurin-8-ylium-9-yl)-3,4-dihydroxy-tetrahydrofuran-2-yl]methyl [hydroxy(phosphonooxy)phosphoryl] phosphate
   47    49     1     0     0
SMALL
USER_CHARGES

@<TRIPOS>ATOM
      1 PG         -1.1433   -0.9466   -7.2909 P.3       1 ATP         1.8237
      2 O1G        -2.5914   -0.6410   -7.0458 O.2       1 ATP        -0.8455
      3 O2G        -0.7864   -2.5224   -7.3524 O.3       1 ATP        -0.7970
      4 O3G        -0.5611   -0.3878   -8.6923 O.3       1 ATP        -0.7970
      5 PB          0.1927    1.1425   -5.7158 P.3       1 ATP         1.9358
      6 O1B         0.6805    2.0667   -6.7921 O.2       1 ATP        -0.8836
      7 O2B        -1.1844    1.5930   -4.9991 O.3       1 ATP        -0.8065
      8 O3B        -0.1117   -0.3706   -6.1908 O.3       1 ATP        -0.8233
      9 PA          2.7386    0.3748   -4.4298 P.3       1 ATP         1.5686
     10 O1A         3.6399    1.3283   -5.1839 O.co2     1 ATP        -0.8169
     11 O2A         2.7068   -1.0976   -4.7776 O.co2     1 ATP        -0.8169
     12 O3A         1.2110    0.9462   -4.4771 O.3       1 ATP        -0.7987
     13 O5'         3.0197    0.5137   -2.8245 O.3       1 ATP        -0.5693
     14 C5'         2.2816   -0.2918   -1.9206 C.3       1 ATP         0.1841
     15 C4'         2.7248    0.0226   -0.4980 C.3       1 ATP         0.0904
     16 O4'         2.4697    1.4219   -0.2462 O.3       1 ATP        -0.4083
     17 C3'         1.9404   -0.7419    0.5596 C.3       1 ATP         0.0826
     18 O3'         2.7418   -0.8086    1.7389 O.3       1 ATP        -0.6106
     19 C2'         0.7477    0.1630    0.7858 C.3       1 ATP         0.1294
     20 O2'         0.1373   -0.0577    2.0407 O.3       1 ATP        -0.5701
     21 C1'         1.3733    1.5427    0.6747 C.3       1 ATP         0.3967
     22 N9          0.4520    2.5240    0.1767 N.pl3     1 ATP        -0.5600
     23 C8         -0.6854    2.9365    0.7168 C.ar      1 ATP         0.3009
     24 N7         -1.3118    3.8692    0.0018 N.pl3     1 ATP        -0.5113
     25 C5         -0.5159    4.0659   -1.0727 C.ar      1 ATP        -0.2824
     26 C6         -0.6068    4.8856   -2.1589 C.ar      1 ATP         0.7670
     27 N6         -1.7186    5.7437   -2.2844 N.pl3     1 ATP        -0.9491
     28 N1          0.3541    4.8807   -3.1087 N.ar      1 ATP        -0.7474
     29 C2          1.3913    4.0207   -2.9071 C.ar      1 ATP         0.7118
     30 N3          1.5770    3.1707   -1.8715 N.ar      1 ATP        -0.6661
     31 C4          0.5883    3.2318   -0.9747 C.ar      1 ATP         0.6308
     32 HOG2       -0.9701   -3.0816   -6.5677 H         1 ATP         0.4930
     33 HOG3       -0.5848    0.5777   -8.8645 H         1 ATP         0.4930
     34 HOB2       -1.9940    1.6898   -5.5444 H         1 ATP         0.4808
     35 H5'1        1.2153   -0.0781   -2.0454 H         1 ATP         0.0350
     36 H5'2        2.4645   -1.3454   -2.1547 H         1 ATP         0.0350
     37 H4'         3.8050   -0.1388   -0.4008 H         1 ATP         0.1244
     38 H3'         1.6784   -1.7629    0.2714 H         1 ATP         0.0924
     39 HO3'        2.2232   -1.2979    2.3953 H         1 ATP         0.4379
     40 H2'        -0.0011    0.0027    0.0003 H         1 ATP         0.0849
     41 HO2'       -0.1563   -0.9855    2.0596 H         1 ATP         0.4417
     42 H1'         1.7826    1.9024    1.6451 H         1 ATP         0.1307
     43 H8         -1.0749    2.5601    1.6468 H         1 ATP         0.2875
     44 HN61       -2.4460    5.7038   -1.5992 H         1 ATP         0.4559
     45 HN62       -1.8079    6.3099   -3.1040 H         1 ATP         0.4559
     46 H2          2.1601    4.0194   -3.6712 H         1 ATP         0.0858
     47 H47        -2.1877    4.3195    0.2279 H         1 ATP         0.5042
@<TRIPOS>BOND
     1    1    2 2
     2    1    3 1
     3    1    4 1
     4    1    8 1
     5    3   32 1
     6    4   33 1
     7    5    6 2
     8    5    7 1
     9    5    8 1
    10    5   12 1
    11    7   34 1
    12    9   10 2
    13    9   11 1
    14    9   12 1
    15    9   13 1
    16   13   14 1
    17   14   15 1
    18   14   35 1
    19   14   36 1
    20   15   16 1
    21   15   17 1
    22   15   37 1
    23   16   21 1
    24   17   18 1
    25   17   19 1
    26   17   38 1
    27   18   39 1
    28   19   20 1
    29   19   21 1
    30   19   40 1
    31   20   41 1
    32   21   22 1
    33   21   42 1
    34   22   23 ar
    35   22   31 ar
    36   23   24 ar
    37   23   43 1
    38   24   25 ar
    39   24   47 1
    40   25   26 ar
    41   25   31 ar
    42   26   27 1
    43   26   28 ar
    44   27   44 1
    45   27   45 1
    46   28   29 ar
    47   29   30 ar
    48   29   46 1
    49   30   31 ar
@<TRIPOS>SUBSTRUCTURE
     1 ATP         1 GROUP 0 A     ****
@<TRIPOS>MOLECULE
[5-(6-amino-7,8-dihydropurin-8-ylium-9-yl)-3,4-dihydroxy-tetrahydrofuran-2-yl]methyl [hydroxy(phosphonooxy)phosphoryl] phosphate
   47    49     1     0     0
SMALL
USER_CHARGES

@<TRIPOS>ATOM
      1 PG          6.3065   -4.2270   -2.1436 P.3       1 ATP         1.8237
      2 O1G         7.7014   -4.1598   -2.6915 O.2       1 ATP        -0.8455
      3 O2G         6.0254   -5.4819   -1.1634 O.3       1 ATP        -0.7970
      4 O3G         5.8716   -2.9574   -1.2413 O.3       1 ATP        -0.7970
      5 PB          4.7074   -3.3458   -4.4449 P.3       1 ATP         1.9358
      6 O1B         5.7702   -3.0980   -5.4742 O.2       1 ATP        -0.8836
      7 O2B         3.3453   -4.0057   -5.0128 O.3       1 ATP        -0.8065
      8 O3B         5.1288   -4.3375   -3.2422 O.3       1 ATP        -0.8233
      9 PA          3.4817   -0.6663   -4.2376 P.3       1 ATP         1.5686
     10 O1A         2.1248   -1.0219   -4.8054 O.co2     1 ATP        -0.8169
     11 O2A         4.4957    0.0866   -5.0712 O.co2     1 ATP        -0.8169
     12 O3A         4.1884   -2.0246   -3.6737 O.3       1 ATP        -0.7987
     13 O5'         3.2883    0.1336   -2.8242 O.3       1 ATP        -0.5693
     14 C5'         2.2816   -0.2918   -1.9206 C.3       1 ATP         0.1841
     15 C4'         2.7248    0.0226   -0.4980 C.3       1 ATP         0.0904
     16 O4'         2.4697    1.4219   -0.2462 O.3       1 ATP        -0.4083
     17 C3'         1.9404   -0.7419    0.5596 C.3       1 ATP         0.0826
     18 O3'         2.7418   -0.8086    1.7389 O.3       1 ATP        -0.6106
     19 C2'         0.7477    0.1630    0.7858 C.3       1 ATP         0.1294
     20 O2'         0.1373   -0.0577    2.0407 O.3       1 ATP        -0.5701
     21 C1'         1.3733    1.5427    0.6747 C.3       1 ATP         0.3967
     22 N9          0.4520    2.5240    0.1767 N.pl3     1 ATP        -0.5600
     23 C8         -0.2172    2.5216   -0.9668 C.ar      1 ATP         0.3009
     24 N7         -1.0011    3.5855   -1.1321 N.pl3     1 ATP        -0.5113
     25 C5         -0.8184    4.3200   -0.0123 C.ar      1 ATP        -0.2824
     26 C6         -1.3349    5.5079    0.4144 C.ar      1 ATP         0.7670
     27 N6         -2.2567    6.1930   -0.4036 N.pl3     1 ATP        -0.9491
     28 N1         -0.9716    6.0291    1.6069 N.ar      1 ATP        -0.7474
     29 C2         -0.0765    5.3009    2.3312 C.ar      1 ATP         0.7118
     30 N3          0.4933    4.1191    2.0023 N.ar      1 ATP        -0.6661
     31 C4          0.0865    3.6675    0.8123 C.ar      1 ATP         0.6308
     32 HOG2        6.5577   -5.5729   -0.3445 H         1 ATP         0.4930
     33 HOG3        5.8751   -2.0640   -1.6466 H         1 ATP         0.4930
     34 HOB2        2.8343   -3.5246   -5.6982 H         1 ATP         0.4808
     35 H5'1        1.3500    0.2325   -2.1560 H         1 ATP         0.0350
     36 H5'2        2.1266   -1.3683   -2.0443 H         1 ATP         0.0350
     37 H4'         3.8050   -0.1388   -0.4008 H         1 ATP         0.1244
     38 H3'         1.6784   -1.7629    0.2714 H         1 ATP         0.0924
     39 HO3'        3.5554   -1.2733    1.4914 H         1 ATP         0.4379
     40 H2'        -0.0011    0.0027    0.0003 H         1 ATP         0.0849
     41 HO2'       -0.1563   -0.9855    2.0596 H         1 ATP         0.4417
     42 H1'         1.7826    1.9024    1.6451 H         1 ATP         0.1307
     43 H8         -0.1423    1.7373   -1.6999 H         1 ATP         0.2875
     44 HN61       -2.4811    5.8206   -1.3042 H         1 ATP         0.4559
     45 HN62       -2.5986    7.0863   -0.1113 H         1 ATP         0.4559
     46 H2          0.2128    5.7222    3.2871 H         1 ATP         0.0858
     47 H47        -1.5947    3.7835   -1.9255 H         1 ATP         0.5042
@<TRIPOS>BOND
     1    1    2 2
     2    1    3 1
     3    1    4 1
     4    1    8 1
     5    3   32 1
     6    4   33 1
     7    5    6 2
     8    5    7 1
     9    5    8 1
    10    5   12 1
    11    7   34 1
    12    9   10 2
    13    9   11 1
    14    9   12 1
    15    9   13 1
    16   13   14 1
    17   14   15 1
    18   14   35 1
    19   14   36 1
    20   15   16 1
    21   15   17 1
    22   15   37 1
    23   16   21 1
    24   17   18 1
    25   17   19 1
    26   17   38 1
    27   18   39 1
    28   19   20 1
    29   19   21 1
    30   19   40 1
    31   20   41 1
    32   21   22 1
    33   21   42 1
    34   22   23 ar
    35   22   31 ar
    36   23   24 ar
    37   23   43 1
    38   24   25 ar
    39   24   47 1
    40   25   26 ar
    41   25   31 ar
    42   26   27 1
    43   26   28 ar
    44   27   44 1
    45   27   45 1
    46   28   29 ar
    47   29   30 ar
    48   29   46 1
    49   30   31 ar
@<TRIPOS>SUBSTRUCTURE
     1 ATP         1 GROUP 0 A     ****
@<TRIPOS>MOLECULE
[5-(6-amino-7,8-dihydropurin-8-ylium-9-yl)-3,4-dihydroxy-tetrahydrofuran-2-yl]methyl [hydroxy(phosphonooxy)phosphoryl] phosphate
   47    49     1     0     0
SMALL
USER_CHARGES

@<TRIPOS>ATOM
      1 PG          4.2280   -3.6304   -7.7599 P.3       1 ATP         1.8237
      2 O1G         3.3771   -3.4811   -8.9863 O.2       1 ATP        -0.8455
      3 O2G         4.2882   -5.1298   -7.1578 O.3       1 ATP        -0.7970
      4 O3G         5.7884   -3.2607   -7.9693 O.3       1 ATP        -0.7970
      5 PB          2.4139   -2.6990   -5.6453 P.3       1 ATP         1.9358
      6 O1B         1.1850   -2.3524   -6.4327 O.2       1 ATP        -0.8836
      7 O2B         2.3809   -4.1469   -4.9272 O.3       1 ATP        -0.8065
      8 O3B         3.7890   -2.7337   -6.4913 O.3       1 ATP        -0.8233
      9 PA          3.0648   -0.0870   -4.4293 P.3       1 ATP         1.5686
     10 O1A         1.8228    0.6556   -4.8721 O.co2     1 ATP        -0.8169
     11 O2A         4.3895    0.1375   -5.1255 O.co2     1 ATP        -0.8169
     12 O3A         2.7493   -1.6879   -4.4309 O.3       1 ATP        -0.7987
     13 O5'         3.2883    0.1336   -2.8242 O.3       1 ATP        -0.5693
     14 C5'         2.2816   -0.2918   -1.9206 C.3       1 ATP         0.1841
     15 C4'         2.7248    0.0226   -0.4980 C.3       1 ATP         0.0904
     16 O4'         2.4697    1.4219   -0.2462 O.3       1 ATP        -0.4083
     17 C3'         1.9404   -0.7419    0.5596 C.3       1 ATP         0.0826
     18 O3'         2.7418   -0.8086    1.7389 O.3       1 ATP        -0.6106
     19 C2'         0.7477    0.1630    0.7858 C.3       1 ATP         0.1294
     20 O2'         0.1373   -0.0577    2.0407 O.3       1 ATP        -0.5701
     21 C1'         1.3733    1.5427    0.6747 C.3       1 ATP         0.3967
     22 N9          0.4520    2.5240    0.1767 N.pl3     1 ATP        -0.5600
     23 C8          0.1928    2.8484   -1.0815 C.ar      1 ATP         0.3009
     24 N7         -0.7248    3.8048   -1.2110 N.pl3     1 ATP        -0.5113
     25 C5         -1.0765    4.1129    0.0571 C.ar      1 ATP        -0.2824
     26 C6         -1.9614    5.0063    0.5851 C.ar      1 ATP         0.7670
     27 N6         -2.7145    5.8254   -0.2810 N.pl3     1 ATP        -0.9491
     28 N1         -2.1199    5.1113    1.9228 N.ar      1 ATP        -0.7474
     29 C2         -1.3522    4.2822    2.6839 C.ar      1 ATP         0.7118
     30 N3         -0.4501    3.3660    2.2638 N.ar      1 ATP        -0.6661
     31 C4         -0.3487    3.3198    0.9322 C.ar      1 ATP         0.6308
     32 HOG2        4.8272   -5.2978   -6.3556 H         1 ATP         0.4930
     33 HOG3        6.0263   -2.3538   -8.2581 H         1 ATP         0.4930
     34 HOB2        2.2805   -4.9499   -5.4816 H         1 ATP         0.4808
     35 H5'1        1.3500    0.2325   -2.1560 H         1 ATP         0.0350
     36 H5'2        2.1266   -1.3683   -2.0443 H         1 ATP         0.0350
     37 H4'         3.8050   -0.1388   -0.4008 H         1 ATP         0.1244
     38 H3'         1.6784   -1.7629    0.2714 H         1 ATP         0.0924
     39 HO3'        2.2232   -1.2979    2.3953 H         1 ATP         0.4379
     40 H2'        -0.0011    0.0027    0.0003 H         1 ATP         0.0849
     41 HO2'       -0.6141    0.5574    2.1082 H         1 ATP         0.4417
     42 H1'         1.7826    1.9024    1.6451 H         1 ATP         0.1307
     43 H8          0.6728    2.3873   -1.9272 H         1 ATP         0.2875
     44 HN61       -2.5537    5.7714   -1.2667 H         1 ATP         0.4559
     45 HN62       -3.3282    6.5126    0.1080 H         1 ATP         0.4559
     46 H2         -1.4818    4.3694    3.7565 H         1 ATP         0.0858
     47 H47        -1.0701    4.2005   -2.0743 H         1 ATP         0.5042
@<TRIPOS>BOND
     1    1    2 2
     2    1    3 1
     3    1    4 1
     4    1    8 1
     5    3   32 1
     6    4   33 1
     7    5    6 2
     8    5    7 1
     9    5    8 1
    10    5   12 1
    11    7   34 1
    12    9   10 2
    13    9   11 1
    14    9   12 1
    15    9   13 1
    16   13   14 1
    17   14   15 1
    18   14   35 1
    19   14   36 1
    20   15   16 1
    21   15   17 1
    22   15   37 1
    23   16   21 1
    24   17   18 1
    25   17   19 1
    26   17   38 1
    27   18   39 1
    28   19   20 1
    29   19   21 1
    30   19   40 1
    31   20   41 1
    32   21   22 1
    33   21   42 1
    34   22   23 ar
    35   22   31 ar
    36   23   24 ar
    37   23   43 1
    38   24   25 ar
    39   24   47 1
    40   25   26 ar
    41   25   31 ar
    42   26   27 1
    43   26   28 ar
    44   27   44 1
    45   27   45 1
    46   28   29 ar
    47   29   30 ar
    48   29   46 1
    49   30   31 ar
@<TRIPOS>SUBSTRUCTURE
     1 ATP         1 GROUP 0 A     ****
@<TRIPOS>MOLECULE
[5-(6-amino-7,8-dihydropurin-8-ylium-9-yl)-3,4-dihydroxy-tetrahydrofuran-2-yl]methyl [hydroxy(phosphonooxy)phosphoryl] phosphate
   47    49     1     0     0
SMALL
USER_CHARGES

@<TRIPOS>ATOM
      1 PG          2.9558   -5.0717   -4.0000 P.3       1 ATP         1.8237
      2 O1G         4.1401   -5.6701   -4.6997 O.2       1 ATP        -0.8455
      3 O2G         1.8914   -6.1484   -3.4322 O.3       1 ATP        -0.7970
      4 O3G         3.3156   -4.1925   -2.6913 O.3       1 ATP        -0.7970
      5 PB          2.4139   -2.6990   -5.6453 P.3       1 ATP         1.9358
      6 O1B         3.4847   -2.8054   -6.6906 O.2       1 ATP        -0.8836
      7 O2B         0.9823   -2.1749   -6.1828 O.3       1 ATP        -0.8065
      8 O3B         2.0465   -4.0784   -4.8905 O.3       1 ATP        -0.8233
      9 PA          3.0648   -0.0870   -4.4293 P.3       1 ATP         1.5686
     10 O1A         1.8228    0.6556   -4.8721 O.co2     1 ATP        -0.8169
     11 O2A         4.3895    0.1375   -5.1255 O.co2     1 ATP        -0.8169
     12 O3A         2.7493   -1.6879   -4.4309 O.3       1 ATP        -0.7987
     13 O5'         3.2883    0.1336   -2.8242 O.3       1 ATP        -0.5693
     14 C5'         2.2816   -0.2918   -1.9206 C.3       1 ATP         0.1841
     15 C4'         2.7248    0.0226   -0.4980 C.3       1 ATP         0.0904
     16 O4'         2.4697    1.4219   -0.2462 O.3       1 ATP        -0.4083
     17 C3'         1.9404   -0.7419    0.5596 C.3       1 ATP         0.0826
     18 O3'         2.7418   -0.8086    1.7389 O.3       1 ATP        -0.6106
     19 C2'         0.7477    0.1630    0.7858 C.3       1 ATP         0.1294
     20 O2'         0.1373   -0.0577    2.0407 O.3       1 ATP        -0.5701
     21 C1'         1.3733    1.5427    0.6747 C.3       1 ATP         0.3967
     22 N9          0.4520    2.5240    0.1767 N.pl3     1 ATP        -0.5600
     23 C8         -0.2172    2.5216   -0.9668 C.ar      1 ATP         0.3009
     24 N7         -1.0011    3.5855   -1.1321 N.pl3     1 ATP        -0.5113
     25 C5         -0.8184    4.3200   -0.0123 C.ar      1 ATP        -0.2824
     26 C6         -1.3349    5.5079    0.4144 C.ar      1 ATP         0.7670
     27 N6         -2.2567    6.1930   -0.4036 N.pl3     1 ATP        -0.9491
     28 N1         -0.9716    6.0291    1.6069 N.ar      1 ATP        -0.7474
     29 C2         -0.0765    5.3009    2.3312 C.ar      1 ATP         0.7118
     30 N3          0.4933    4.1191    2.0023 N.ar      1 ATP        -0.6661
     31 C4          0.0865    3.6675    0.8123 C.ar      1 ATP         0.6308
     32 HOG2        2.1909   -6.8086   -2.7716 H         1 ATP         0.4930
     33 HOG3        3.8952   -3.4074   -2.7920 H         1 ATP         0.4930
     34 HOB2        0.9269   -1.2884   -6.5991 H         1 ATP         0.4808
     35 H5'1        1.3500    0.2325   -2.1560 H         1 ATP         0.0350
     36 H5'2        2.1266   -1.3683   -2.0443 H         1 ATP         0.0350
     37 H4'         3.8050   -0.1388   -0.4008 H         1 ATP         0.1244
     38 H3'         1.6784   -1.7629    0.2714 H         1 ATP         0.0924
     39 HO3'        3.5554   -1.2733    1.4914 H         1 ATP         0.4379
     40 H2'        -0.0011    0.0027    0.0003 H         1 ATP         0.0849
     41 HO2'       -0.1563   -0.9855    2.0596 H         1 ATP         0.4417
     42 H1'         1.7826    1.9024    1.6451 H         1 ATP         0.1307
     43 H8         -0.1423    1.7373   -1.6999 H         1 ATP         0.2875
     44 HN61       -2.4811    5.8206   -1.3042 H         1 ATP         0.4559
     45 HN62       -2.5986    7.0863   -0.1113 H         1 ATP         0.4559
     46 H2          0.2128    5.7222    3.2871 H         1 ATP         0.0858
     47 H47        -1.5947    3.7835   -1.9255 H         1 ATP         0.5042
@<TRIPOS>BOND
     1    1    2 2
     2    1    3 1
     3    1    4 1
     4    1    8 1
     5    3   32 1
     6    4   33 1
     7    5    6 2
     8    5    7 1
     9    5    8 1
    10    5   12 1
    11    7   34 1
    12    9   10 2
    13    9   11 1
    14    9   12 1
    15    9   13 1
    16   13   14 1
    17   14   15 1
    18   14   35 1
    19   14   36 1
    20   15   16 1
    21   15   17 1
    22   15   37 1
    23   16   21 1
    24   17   18 1
    25   17   19 1
    26   17   38 1
    27   18   39 1
    28   19   20 1
    29   19   21 1
    30   19   40 1
    31   20   41 1
    32   21   22 1
    33   21   42 1
    34   22   23 ar
    35   22   31 ar
    36   23   24 ar
    37   23   43 1
    38   24   25 ar
    39   24   47 1
    40   25   26 ar
    41   25   31 ar
    42   26   27 1
    43   26   28 ar
    44   27   44 1
    45   27   45 1
    46   28   29 ar
    47   29   30 ar
    48   29   46 1
    49   30   31 ar
@<TRIPOS>SUBSTRUCTURE
     1 ATP         1 GROUP 0 A     ****
@<TRIPOS>MOLECULE
[5-(6-amino-7,8-dihydropurin-8-ylium-9-yl)-3,4-dihydroxy-tetrahydrofuran-2-yl]methyl [hydroxy(phosphonooxy)phosphoryl] phosphate
   47    49     1     0     0
SMALL
USER_CHARGES

@<TRIPOS>ATOM
      1 PG          2.4759   -7.1935    5.4137 P.3       1 ATP         1.8237
      2 O1G         2.8815   -8.6264    5.2326 O.2       1 ATP        -0.8455
      3 O2G         3.3718   -6.3668    6.4761 O.3       1 ATP        -0.7970
      4 O3G         2.5715   -6.2886    4.0768 O.3       1 ATP        -0.7970
      5 PB         -0.4534   -7.3705    5.2805 P.3       1 ATP         1.9358
      6 O1B        -0.6580   -8.8423    5.0747 O.2       1 ATP        -0.8836
      7 O2B        -1.5318   -6.6588    6.2520 O.3       1 ATP        -0.8065
      8 O3B         0.9652   -6.9549    5.9305 O.3       1 ATP        -0.8233
      9 PA         -1.7212   -6.2752    2.8479 P.3       1 ATP         1.5686
     10 O1A        -2.8747   -5.5667    3.5244 O.co2     1 ATP        -0.8169
     11 O2A        -1.9369   -7.5858    2.1227 O.co2     1 ATP        -0.8169
     12 O3A        -0.5207   -6.4812    3.9336 O.3       1 ATP        -0.7987
     13 O5'        -0.9729   -5.2427    1.8237 O.3       1 ATP        -0.5693
     14 C5'        -0.7840   -3.8935    2.2172 C.3       1 ATP         0.1841
     15 C4'        -0.0724   -3.1466    1.1027 C.3       1 ATP         0.0904
     16 O4'        -0.8674   -3.1929   -0.0945 O.3       1 ATP        -0.4083
     17 C3'         0.1338   -1.6715    1.4027 C.3       1 ATP         0.0826
     18 O3'         1.2893   -1.4445    2.1808 O.3       1 ATP        -0.6106
     19 C2'         0.2158   -1.0724    0.0128 C.3       1 ATP         0.1294
     20 O2'         1.5141   -1.2448   -0.5513 O.3       1 ATP        -0.5701
     21 C1'        -0.7897   -1.9176   -0.7583 C.3       1 ATP         0.3967
     22 N9         -2.1040   -1.3333   -0.7704 N.pl3     1 ATP        -0.5600
     23 C8         -3.0822   -1.4850    0.1102 C.ar      1 ATP         0.3009
     24 N7         -4.1844   -0.7999   -0.1888 N.pl3     1 ATP        -0.5113
     25 C5         -3.8875   -0.1651   -1.3445 C.ar      1 ATP        -0.2824
     26 C6         -4.5941    0.6799   -2.1486 C.ar      1 ATP         0.7670
     27 N6         -5.9138    1.0274   -1.7939 N.pl3     1 ATP        -0.9491
     28 N1         -4.0421    1.1824   -3.2748 N.ar      1 ATP        -0.7474
     29 C2         -2.7637    0.7937   -3.5405 C.ar      1 ATP         0.7118
     30 N3         -1.9788   -0.0343   -2.8140 N.ar      1 ATP        -0.6661
     31 C4         -2.5915   -0.4902   -1.7174 C.ar      1 ATP         0.6308
     32 HOG2        3.4088   -6.6747    7.4067 H         1 ATP         0.4930
     33 HOG3        2.0372   -6.5412    3.2939 H         1 ATP         0.4930
     34 HOB2       -2.4813   -6.6838    6.0066 H         1 ATP         0.4808
     35 H5'1       -1.7613   -3.4427    2.4167 H         1 ATP         0.0350
     36 H5'2       -0.1870   -3.8723    3.1344 H         1 ATP         0.0350
     37 H4'         0.8886   -3.6447    0.8779 H         1 ATP         0.1244
     38 H3'        -0.7373   -1.2359    1.9870 H         1 ATP         0.0924
     39 HO3'        1.3408   -0.4870    2.3219 H         1 ATP         0.4379
     40 H2'        -0.0384   -0.0310    0.0096 H         1 ATP         0.0849
     41 HO2'        2.1463   -0.7958    0.0370 H         1 ATP         0.4417
     42 H1'        -0.4769   -2.1002   -1.8093 H         1 ATP         0.1307
     43 H8         -3.0031   -2.1011    0.9891 H         1 ATP         0.2875
     44 HN61       -6.3271    0.6117   -0.9836 H         1 ATP         0.4559
     45 HN62       -6.4471    1.6092   -2.4083 H         1 ATP         0.4559
     46 H2         -2.3243    1.1986   -4.4449 H         1 ATP         0.0858
     47 H47        -5.0436   -0.7722    0.3425 H         1 ATP         0.5042
@<TRIPOS>BOND
     1    1    2 2
     2    1    3 1
     3    1    4 1
     4    1    8 1
     5    3   32 1
     6    4   33 1
     7    5    6 2
     8    5    7 1
     9    5    8 1
    10    5   12 1
    11    7   34 1
    12    9   10 2
    13    9   11 1
    14    9   12 1
    15    9   13 1
    16   13   14 1
    17   14   15 1
    18   14   35 1
    19   14   36 1
    20   15   16 1
    21   15   17 1
    22   15   37 1
    23   16   21 1
    24   17   18 1
    25   17   19 1
    26   17   38 1
    27   18   39 1
    28   19   20 1
    29   19   21 1
    30   19   40 1
    31   20   41 1
    32   21   22 1
    33   21   42 1
    34   22   23 ar
    35   22   31 ar
    36   23   24 ar
    37   23   43 1
    38   24   25 ar
    39   24   47 1
    40   25   26 ar
    41   25   31 ar
    42   26   27 1
    43   26   28 ar
    44   27   44 1
    45   27   45 1
    46   28   29 ar
    47   29   30 ar
    48   29   46 1
    49   30   31 ar
@<TRIPOS>SUBSTRUCTURE
     1 ATP         1 GROUP 0 A     ****
@<TRIPOS>MOLECULE
[5-(6-amino-7,8-dihydropurin-8-ylium-9-yl)-3,4-dihydroxy-tetrahydrofuran-2-yl]methyl [hydroxy(phosphonooxy)phosphoryl] phosphate
   47    49     1     0     0
SMALL
USER_CHARGES

@<TRIPOS>ATOM
      1 PG          0.8058    3.2999   -7.0423 P.3       1 ATP         1.8237
      2 O1G        -0.4405    3.0602   -7.8419 O.2       1 ATP        -0.8455
      3 O2G         2.0727    3.8164   -7.9042 O.3       1 ATP        -0.7970
      4 O3G         0.6658    4.4277   -5.8918 O.3       1 ATP        -0.7970
      5 PB          0.7230    1.0875   -5.1114 P.3       1 ATP         1.9358
      6 O1B         0.3294    1.8006   -3.8516 O.2       1 ATP        -0.8836
      7 O2B        -0.4884    0.3510   -5.8881 O.3       1 ATP        -0.8065
      8 O3B         1.3869    2.0173   -6.2525 O.3       1 ATP        -0.8233
      9 PA          3.3322   -0.0533   -4.3265 P.3       1 ATP         1.5686
     10 O1A         4.1270    0.9770   -5.0991 O.co2     1 ATP        -0.8169
     11 O2A         3.8287   -1.4771   -4.1997 O.co2     1 ATP        -0.8169
     12 O3A         1.8098   -0.0911   -4.9126 O.3       1 ATP        -0.7987
     13 O5'         3.0197    0.5137   -2.8245 O.3       1 ATP        -0.5693
     14 C5'         2.2816   -0.2918   -1.9206 C.3       1 ATP         0.1841
     15 C4'         2.7248    0.0226   -0.4980 C.3       1 ATP         0.0904
     16 O4'         2.4697    1.4219   -0.2462 O.3       1 ATP        -0.4083
     17 C3'         1.9404   -0.7419    0.5596 C.3       1 ATP         0.0826
     18 O3'         2.7418   -0.8086    1.7389 O.3       1 ATP        -0.6106
     19 C2'         0.7477    0.1630    0.7858 C.3       1 ATP         0.1294
     20 O2'         0.1373   -0.0577    2.0407 O.3       1 ATP        -0.5701
     21 C1'         1.3733    1.5427    0.6747 C.3       1 ATP         0.3967
     22 N9          0.4520    2.5240    0.1767 N.pl3     1 ATP        -0.5600
     23 C8          0.5305    3.2394   -0.9358 C.ar      1 ATP         0.3009
     24 N7         -0.4966    4.0680   -1.1145 N.pl3     1 ATP        -0.5113
     25 C5         -1.2879    3.8664   -0.0375 C.ar      1 ATP        -0.2824
     26 C6         -2.4754    4.4084    0.3577 C.ar      1 ATP         0.7670
     27 N6         -3.0892    5.3882   -0.4495 N.pl3     1 ATP        -0.9491
     28 N1         -3.0632    4.0158    1.5092 N.ar      1 ATP        -0.7474
     29 C2         -2.4008    3.0654    2.2262 C.ar      1 ATP         0.7118
     30 N3         -1.2259    2.4663    1.9260 N.ar      1 ATP        -0.6661
     31 C4         -0.7062    2.9047    0.7757 C.ar      1 ATP         0.6308
     32 HOG2        2.4156    3.2514   -8.6290 H         1 ATP         0.4930
     33 HOG3        0.0034    4.2992   -5.1797 H         1 ATP         0.4930
     34 HOB2       -1.2454    0.8882   -6.2052 H         1 ATP         0.4808
     35 H5'1        1.2153   -0.0781   -2.0454 H         1 ATP         0.0350
     36 H5'2        2.4645   -1.3454   -2.1547 H         1 ATP         0.0350
     37 H4'         3.8050   -0.1388   -0.4008 H         1 ATP         0.1244
     38 H3'         1.6784   -1.7629    0.2714 H         1 ATP         0.0924
     39 HO3'        2.2232   -1.2979    2.3953 H         1 ATP         0.4379
     40 H2'        -0.0011    0.0027    0.0003 H         1 ATP         0.0849
     41 HO2'       -0.1563   -0.9855    2.0596 H         1 ATP         0.4417
     42 H1'         1.7826    1.9024    1.6451 H         1 ATP         0.1307
     43 H8          1.3437    3.1645   -1.6367 H         1 ATP         0.2875
     44 HN61       -2.6210    5.7042   -1.2748 H         1 ATP         0.4559
     45 HN62       -3.9356    5.8187   -0.1356 H         1 ATP         0.4559
     46 H2         -2.8752    2.7532    3.1495 H         1 ATP         0.0858
     47 H47        -0.6372    4.7004   -1.8900 H         1 ATP         0.5042
@<TRIPOS>BOND
     1    1    2 2
     2    1    3 1
     3    1    4 1
     4    1    8 1
     5    3   32 1
     6    4   33 1
     7    5    6 2
     8    5    7 1
     9    5    8 1
    10    5   12 1
    11    7   34 1
    12    9   10 2
    13    9   11 1
    14    9   12 1
    15    9   13 1
    16   13   14 1
    17   14   15 1
    18   14   35 1
    19   14   36 1
    20   15   16 1
    21   15   17 1
    22   15   37 1
    23   16   21 1
    24   17   18 1
    25   17   19 1
    26   17   38 1
    27   18   39 1
    28   19   20 1
    29   19   21 1
    30   19   40 1
    31   20   41 1
    32   21   22 1
    33   21   42 1
    34   22   23 ar
    35   22   31 ar
    36   23   24 ar
    37   23   43 1
    38   24   25 ar
    39   24   47 1
    40   25   26 ar
    41   25   31 ar
    42   26   27 1
    43   26   28 ar
    44   27   44 1
    45   27   45 1
    46   28   29 ar
    47   29   30 ar
    48   29   46 1
    49   30   31 ar
@<TRIPOS>SUBSTRUCTURE
     1 ATP         1 GROUP 0 A     ****
@<TRIPOS>MOLECULE
[5-(6-amino-7,8-dihydropurin-8-ylium-9-yl)-3,4-dihydroxy-tetrahydrofuran-2-yl]methyl [hydroxy(phosphonooxy)phosphoryl] phosphate
   47    49     1     0     0
SMALL
USER_CHARGES

@<TRIPOS>ATOM
      1 PG         -5.1001   -5.8749    6.5118 P.3       1 ATP         1.8237
      2 O1G        -6.2794   -4.9487    6.5558 O.2       1 ATP        -0.8455
      3 O2G        -4.0344   -5.6692    7.7103 O.3       1 ATP        -0.7970
      4 O3G        -5.4685   -7.4459    6.6197 O.3       1 ATP        -0.7970
      5 PB         -4.5597   -6.0328    3.6285 P.3       1 ATP         1.9358
      6 O1B        -5.0672   -7.4059    3.3009 O.2       1 ATP        -0.8836
      7 O2B        -5.5818   -4.8267    3.2911 O.3       1 ATP        -0.8065
      8 O3B        -4.1905   -5.7854    5.1810 O.3       1 ATP        -0.8233
      9 PA         -1.7212   -6.2752    2.8479 P.3       1 ATP         1.5686
     10 O1A        -1.8047   -7.6453    2.2107 O.co2     1 ATP        -0.8169
     11 O2A        -1.1157   -6.0976    4.2232 O.co2     1 ATP        -0.8169
     12 O3A        -3.2091   -5.6054    2.8520 O.3       1 ATP        -0.7987
     13 O5'        -0.9729   -5.2427    1.8237 O.3       1 ATP        -0.5693
     14 C5'        -0.7840   -3.8935    2.2172 C.3       1 ATP         0.1841
     15 C4'        -0.0724   -3.1466    1.1027 C.3       1 ATP         0.0904
     16 O4'        -0.8674   -3.1929   -0.0945 O.3       1 ATP        -0.4083
     17 C3'         0.1338   -1.6715    1.4027 C.3       1 ATP         0.0826
     18 O3'         1.2893   -1.4445    2.1808 O.3       1 ATP        -0.6106
     19 C2'         0.2158   -1.0724    0.0128 C.3       1 ATP         0.1294
     20 O2'         1.5141   -1.2448   -0.5513 O.3       1 ATP        -0.5701
     21 C1'        -0.7897   -1.9176   -0.7583 C.3       1 ATP         0.3967
     22 N9         -2.1040   -1.3333   -0.7704 N.pl3     1 ATP        -0.5600
     23 C8         -3.0822   -1.4850    0.1102 C.ar      1 ATP         0.3009
     24 N7         -4.1844   -0.7999   -0.1888 N.pl3     1 ATP        -0.5113
     25 C5         -3.8875   -0.1651   -1.3445 C.ar      1 ATP        -0.2824
     26 C6         -4.5941    0.6799   -2.1486 C.ar      1 ATP         0.7670
     27 N6         -5.9138    1.0274   -1.7939 N.pl3     1 ATP        -0.9491
     28 N1         -4.0421    1.1824   -3.2748 N.ar      1 ATP        -0.7474
     29 C2         -2.7637    0.7937   -3.5405 C.ar      1 ATP         0.7118
     30 N3         -1.9788   -0.0343   -2.8140 N.ar      1 ATP        -0.6661
     31 C4         -2.5915   -0.4902   -1.7174 C.ar      1 ATP         0.6308
     32 HOG2       -3.5915   -4.7994    7.8073 H         1 ATP         0.4930
     33 HOG3       -6.0504   -7.8445    5.9379 H         1 ATP         0.4930
     34 HOB2       -6.4596   -4.8117    3.7286 H         1 ATP         0.4808
     35 H5'1       -1.7613   -3.4427    2.4167 H         1 ATP         0.0350
     36 H5'2       -0.1870   -3.8723    3.1344 H         1 ATP         0.0350
     37 H4'         0.8886   -3.6447    0.8779 H         1 ATP         0.1244
     38 H3'        -0.7373   -1.2359    1.9870 H         1 ATP         0.0924
     39 HO3'        1.3408   -0.4870    2.3219 H         1 ATP         0.4379
     40 H2'        -0.0384   -0.0310    0.0096 H         1 ATP         0.0849
     41 HO2'        2.1463   -0.7958    0.0370 H         1 ATP         0.4417
     42 H1'        -0.4769   -2.1002   -1.8093 H         1 ATP         0.1307
     43 H8         -3.0031   -2.1011    0.9891 H         1 ATP         0.2875
     44 HN61       -6.3271    0.6117   -0.9836 H         1 ATP         0.4559
     45 HN62       -6.4471    1.6092   -2.4083 H         1 ATP         0.4559
     46 H2         -2.3243    1.1986   -4.4449 H         1 ATP         0.0858
     47 H47        -5.0436   -0.7722    0.3425 H         1 ATP         0.5042
@<TRIPOS>BOND
     1    1    2 2
     2    1    3 1
     3    1    4 1
     4    1    8 1
     5    3   32 1
     6    4   33 1
     7    5    6 2
     8    5    7 1
     9    5    8 1
    10    5   12 1
    11    7   34 1
    12    9   10 2
    13    9   11 1
    14    9   12 1
    15    9   13 1
    16   13   14 1
    17   14   15 1
    18   14   35 1
    19   14   36 1
    20   15   16 1
    21   15   17 1
    22   15   37 1
    23   16   21 1
    24   17   18 1
    25   17   19 1
    26   17   38 1
    27   18   39 1
    28   19   20 1
    29   19   21 1
    30   19   40 1
    31   20   41 1
    32   21   22 1
    33   21   42 1
    34   22   23 ar
    35   22   31 ar
    36   23   24 ar
    37   23   43 1
    38   24   25 ar
    39   24   47 1
    40   25   26 ar
    41   25   31 ar
    42   26   27 1
    43   26   28 ar
    44   27   44 1
    45   27   45 1
    46   28   29 ar
    47   29   30 ar
    48   29   46 1
    49   30   31 ar
@<TRIPOS>SUBSTRUCTURE
     1 ATP         1 GROUP 0 A     ****
@<TRIPOS>MOLECULE
[5-(6-amino-7,8-dihydropurin-8-ylium-9-yl)-3,4-dihydroxy-tetrahydrofuran-2-yl]methyl [hydroxy(phosphonooxy)phosphoryl] phosphate
   47    49     1     0     0
SMALL
USER_CHARGES

@<TRIPOS>ATOM
      1 PG          0.3259   -6.0524   -5.7866 P.3       1 ATP         1.8237
      2 O1G        -0.9096   -6.7247   -5.2653 O.2       1 ATP        -0.8455
      3 O2G         1.6377   -6.9962   -5.8390 O.3       1 ATP        -0.7970
      4 O3G         0.2106   -5.5069   -7.3047 O.3       1 ATP        -0.7970
      5 PB          0.0873   -3.3627   -4.6295 P.3       1 ATP         1.9358
      6 O1B        -0.3039   -2.5514   -5.8291 O.2       1 ATP        -0.8836
      7 O2B        -1.1377   -3.7990   -3.6692 O.3       1 ATP        -0.8065
      8 O3B         0.8242   -4.7627   -4.9531 O.3       1 ATP        -0.8233
      9 PA          2.6176   -2.0495   -3.8562 P.3       1 ATP         1.5686
     10 O1A         2.5475   -0.8911   -4.8275 O.co2     1 ATP        -0.8169
     11 O2A         3.5417   -3.2199   -4.1138 O.co2     1 ATP        -0.8169
     12 O3A         1.1108   -2.6284   -3.6180 O.3       1 ATP        -0.7987
     13 O5'         2.9201   -1.4821   -2.3524 O.3       1 ATP        -0.5693
     14 C5'         2.2816   -0.2918   -1.9206 C.3       1 ATP         0.1841
     15 C4'         2.7248    0.0226   -0.4980 C.3       1 ATP         0.0904
     16 O4'         2.4697    1.4219   -0.2462 O.3       1 ATP        -0.4083
     17 C3'         1.9404   -0.7419    0.5596 C.3       1 ATP         0.0826
     18 O3'         2.7418   -0.8086    1.7389 O.3       1 ATP        -0.6106
     19 C2'         0.7477    0.1630    0.7858 C.3       1 ATP         0.1294
     20 O2'         0.1373   -0.0577    2.0407 O.3       1 ATP        -0.5701
     21 C1'         1.3733    1.5427    0.6747 C.3       1 ATP         0.3967
     22 N9          0.4520    2.5240    0.1767 N.pl3     1 ATP        -0.5600
     23 C8         -0.2172    2.5216   -0.9668 C.ar      1 ATP         0.3009
     24 N7         -1.0011    3.5855   -1.1321 N.pl3     1 ATP        -0.5113
     25 C5         -0.8184    4.3200   -0.0123 C.ar      1 ATP        -0.2824
     26 C6         -1.3349    5.5079    0.4144 C.ar      1 ATP         0.7670
     27 N6         -2.2567    6.1930   -0.4036 N.pl3     1 ATP        -0.9491
     28 N1         -0.9716    6.0291    1.6069 N.ar      1 ATP        -0.7474
     29 C2         -0.0765    5.3009    2.3312 C.ar      1 ATP         0.7118
     30 N3          0.4933    4.1191    2.0023 N.ar      1 ATP        -0.6661
     31 C4          0.0865    3.6675    0.8123 C.ar      1 ATP         0.6308
     32 HOG2        1.6159   -7.8091   -6.3875 H         1 ATP         0.4930
     33 HOG3       -0.4753   -4.8387   -7.5178 H         1 ATP         0.4930
     34 HOB2       -1.8597   -4.3495   -4.0408 H         1 ATP         0.4808
     35 H5'1        2.5581    0.5235   -2.5966 H         1 ATP         0.0350
     36 H5'2        1.1974   -0.4370   -1.9607 H         1 ATP         0.0350
     37 H4'         3.8050   -0.1388   -0.4008 H         1 ATP         0.1244
     38 H3'         1.6784   -1.7629    0.2714 H         1 ATP         0.0924
     39 HO3'        2.2232   -1.2979    2.3953 H         1 ATP         0.4379
     40 H2'        -0.0011    0.0027    0.0003 H         1 ATP         0.0849
     41 HO2'       -0.6141    0.5574    2.1082 H         1 ATP         0.4417
     42 H1'         1.7826    1.9024    1.6451 H         1 ATP         0.1307
     43 H8         -0.1423    1.7373   -1.6999 H         1 ATP         0.2875
     44 HN61       -2.4811    5.8206   -1.3042 H         1 ATP         0.4559
     45 HN62       -2.5986    7.0863   -0.1113 H         1 ATP         0.4559
     46 H2          0.2128    5.7222    3.2871 H         1 ATP         0.0858
     47 H47        -1.5947    3.7835   -1.9255 H         1 ATP         0.5042
@<TRIPOS>BOND
     1    1    2 2
     2    1    3 1
     3    1    4 1
     4    1    8 1
     5    3   32 1
     6    4   33 1
     7    5    6 2
     8    5    7 1
     9    5    8 1
    10    5   12 1
    11    7   34 1
    12    9   10 2
    13    9   11 1
    14    9   12 1
    15    9   13 1
    16   13   14 1
    17   14   15 1
    18   14   35 1
    19   14   36 1
    20   15   16 1
    21   15   17 1
    22   15   37 1
    23   16   21 1
    24   17   18 1
    25   17   19 1
    26   17   38 1
    27   18   39 1
    28   19   20 1
    29   19   21 1
    30   19   40 1
    31   20   41 1
    32   21   22 1
    33   21   42 1
    34   22   23 ar
    35   22   31 ar
    36   23   24 ar
    37   23   43 1
    38   24   25 ar
    39   24   47 1
    40   25   26 ar
    41   25   31 ar
    42   26   27 1
    43   26   28 ar
    44   27   44 1
    45   27   45 1
    46   28   29 ar
    47   29   30 ar
    48   29   46 1
    49   30   31 ar
@<TRIPOS>SUBSTRUCTURE
     1 ATP         1 GROUP 0 A     ****
@<TRIPOS>MOLECULE
[5-(6-amino-7,8-dihydropurin-8-ylium-9-yl)-3,4-dihydroxy-tetrahydrofuran-2-yl]methyl [hydroxy(phosphonooxy)phosphoryl] phosphate
   47    49     1     0     0
SMALL
USER_CHARGES

@<TRIPOS>ATOM
      1 PG         -2.2284   -2.9038   -2.9458 P.3       1 ATP         1.8237
      2 O1G        -2.5783   -2.4359   -1.5642 O.2       1 ATP        -0.8455
      3 O2G        -3.4182   -3.6806   -3.7176 O.3       1 ATP        -0.7970
      4 O3G        -1.8341   -1.7250   -3.9804 O.3       1 ATP        -0.7970
      5 PB          0.5605   -3.7625   -2.6078 P.3       1 ATP         1.9358
      6 O1B         0.7905   -3.4761   -1.1533 O.2       1 ATP        -0.8836
      7 O2B         1.2509   -5.1175   -3.1560 O.3       1 ATP        -0.8065
      8 O3B        -0.9857   -3.9297   -3.0424 O.3       1 ATP        -0.8233
      9 PA          2.6176   -2.0495   -3.8562 P.3       1 ATP         1.5686
     10 O1A         2.5475   -0.8911   -4.8275 O.co2     1 ATP        -0.8169
     11 O2A         3.5417   -3.2199   -4.1138 O.co2     1 ATP        -0.8169
     12 O3A         1.1108   -2.6284   -3.6180 O.3       1 ATP        -0.7987
     13 O5'         2.9201   -1.4821   -2.3524 O.3       1 ATP        -0.5693
     14 C5'         2.2816   -0.2918   -1.9206 C.3       1 ATP         0.1841
     15 C4'         2.7248    0.0226   -0.4980 C.3       1 ATP         0.0904
     16 O4'         2.4697    1.4219   -0.2462 O.3       1 ATP        -0.4083
     17 C3'         1.9404   -0.7419    0.5596 C.3       1 ATP         0.0826
     18 O3'         2.7418   -0.8086    1.7389 O.3       1 ATP        -0.6106
     19 C2'         0.7477    0.1630    0.7858 C.3       1 ATP         0.1294
     20 O2'         0.1373   -0.0577    2.0407 O.3       1 ATP        -0.5701
     21 C1'         1.3733    1.5427    0.6747 C.3       1 ATP         0.3967
     22 N9          0.4520    2.5240    0.1767 N.pl3     1 ATP        -0.5600
     23 C8         -0.2172    2.5216   -0.9668 C.ar      1 ATP         0.3009
     24 N7         -1.0011    3.5855   -1.1321 N.pl3     1 ATP        -0.5113
     25 C5         -0.8184    4.3200   -0.0123 C.ar      1 ATP        -0.2824
     26 C6         -1.3349    5.5079    0.4144 C.ar      1 ATP         0.7670
     27 N6         -2.2567    6.1930   -0.4036 N.pl3     1 ATP        -0.9491
     28 N1         -0.9716    6.0291    1.6069 N.ar      1 ATP        -0.7474
     29 C2         -0.0765    5.3009    2.3312 C.ar      1 ATP         0.7118
     30 N3          0.4933    4.1191    2.0023 N.ar      1 ATP        -0.6661
     31 C4          0.0865    3.6675    0.8123 C.ar      1 ATP         0.6308
     32 HOG2       -3.7826   -4.5017   -3.3236 H         1 ATP         0.4930
     33 HOG3       -1.0672   -1.1493   -3.7734 H         1 ATP         0.4930
     34 HOB2        2.2257   -5.2109   -3.0982 H         1 ATP         0.4808
     35 H5'1        2.5581    0.5235   -2.5966 H         1 ATP         0.0350
     36 H5'2        1.1974   -0.4370   -1.9607 H         1 ATP         0.0350
     37 H4'         3.8050   -0.1388   -0.4008 H         1 ATP         0.1244
     38 H3'         1.6784   -1.7629    0.2714 H         1 ATP         0.0924
     39 HO3'        2.2232   -1.2979    2.3953 H         1 ATP         0.4379
     40 H2'        -0.0011    0.0027    0.0003 H         1 ATP         0.0849
     41 HO2'       -0.1563   -0.9855    2.0596 H         1 ATP         0.4417
     42 H1'         1.7826    1.9024    1.6451 H         1 ATP         0.1307
     43 H8         -0.1423    1.7373   -1.6999 H         1 ATP         0.2875
     44 HN61       -2.4811    5.8206   -1.3042 H         1 ATP         0.4559
     45 HN62       -2.5986    7.0863   -0.1113 H         1 ATP         0.4559
     46 H2          0.2128    5.7222    3.2871 H         1 ATP         0.0858
     47 H47        -1.5947    3.7835   -1.9255 H         1 ATP         0.5042
@<TRIPOS>BOND
     1    1    2 2
     2    1    3 1
     3    1    4 1
     4    1    8 1
     5    3   32 1
     6    4   33 1
     7    5    6 2
     8    5    7 1
     9    5    8 1
    10    5   12 1
    11    7   34 1
    12    9   10 2
    13    9   11 1
    14    9   12 1
    15    9   13 1
    16   13   14 1
    17   14   15 1
    18   14   35 1
    19   14   36 1
    20   15   16 1
    21   15   17 1
    22   15   37 1
    23   16   21 1
    24   17   18 1
    25   17   19 1
    26   17   38 1
    27   18   39 1
    28   19   20 1
    29   19   21 1
    30   19   40 1
    31   20   41 1
    32   21   22 1
    33   21   42 1
    34   22   23 ar
    35   22   31 ar
    36   23   24 ar
    37   23   43 1
    38   24   25 ar
    39   24   47 1
    40   25   26 ar
    41   25   31 ar
    42   26   27 1
    43   26   28 ar
    44   27   44 1
    45   27   45 1
    46   28   29 ar
    47   29   30 ar
    48   29   46 1
    49   30   31 ar
@<TRIPOS>SUBSTRUCTURE
     1 ATP         1 GROUP 0 A     ****
@<TRIPOS>MOLECULE
[5-(6-amino-7,8-dihydropurin-8-ylium-9-yl)-3,4-dihydroxy-tetrahydrofuran-2-yl]methyl [hydroxy(phosphonooxy)phosphoryl] phosphate
   47    49     1     0     0
SMALL
USER_CHARGES

@<TRIPOS>ATOM
      1 PG          5.6616   -3.1394   -1.4393 P.3       1 ATP         1.8237
      2 O1G         5.5498   -4.6331   -1.3564 O.2       1 ATP        -0.8455
      3 O2G         5.3290   -2.3595   -0.0624 O.3       1 ATP        -0.7970
      4 O3G         7.1345   -2.5908   -1.8201 O.3       1 ATP        -0.7970
      5 PB          4.5889   -2.5983   -4.1200 P.3       1 ATP         1.9358
      6 O1B         5.8377   -2.2739   -4.8853 O.2       1 ATP        -0.8836
      7 O2B         4.0519   -4.1127   -4.2966 O.3       1 ATP        -0.8065
      8 O3B         4.6961   -2.4251   -2.5181 O.3       1 ATP        -0.8233
      9 PA          3.0648   -0.0870   -4.4293 P.3       1 ATP         1.5686
     10 O1A         1.6239    0.2105   -4.7833 O.co2     1 ATP        -0.8169
     11 O2A         4.1983    0.5973   -5.1621 O.co2     1 ATP        -0.8169
     12 O3A         3.3035   -1.6993   -4.5064 O.3       1 ATP        -0.7987
     13 O5'         3.2883    0.1336   -2.8242 O.3       1 ATP        -0.5693
     14 C5'         2.2816   -0.2918   -1.9206 C.3       1 ATP         0.1841
     15 C4'         2.7248    0.0226   -0.4980 C.3       1 ATP         0.0904
     16 O4'         2.4697    1.4219   -0.2462 O.3       1 ATP        -0.4083
     17 C3'         1.9404   -0.7419    0.5596 C.3       1 ATP         0.0826
     18 O3'         2.7418   -0.8086    1.7389 O.3       1 ATP        -0.6106
     19 C2'         0.7477    0.1630    0.7858 C.3       1 ATP         0.1294
     20 O2'         0.1373   -0.0577    2.0407 O.3       1 ATP        -0.5701
     21 C1'         1.3733    1.5427    0.6747 C.3       1 ATP         0.3967
     22 N9          0.4520    2.5240    0.1767 N.pl3     1 ATP        -0.5600
     23 C8         -0.8602    2.5861    0.3496 C.ar      1 ATP         0.3009
     24 N7         -1.4308    3.6326   -0.2443 N.pl3     1 ATP        -0.5113
     25 C5         -0.4080    4.2856   -0.8394 C.ar      1 ATP        -0.2824
     26 C6         -0.3432    5.4196   -1.5943 C.ar      1 ATP         0.7670
     27 N6         -1.5276    6.1333   -1.8702 N.pl3     1 ATP        -0.9491
     28 N1          0.8395    5.8603   -2.0764 N.ar      1 ATP        -0.7474
     29 C2          1.9319    5.1095   -1.7617 C.ar      1 ATP         0.7118
     30 N3          1.9773    3.9761   -1.0249 N.ar      1 ATP        -0.6661
     31 C4          0.7724    3.6031   -0.5836 C.ar      1 ATP         0.6308
     32 HOG2        4.4399   -2.4632    0.3388 H         1 ATP         0.4930
     33 HOG3        7.5348   -2.8603   -2.6742 H         1 ATP         0.4930
     34 HOB2        4.6333   -4.8568   -4.0311 H         1 ATP         0.4808
     35 H5'1        1.3500    0.2325   -2.1560 H         1 ATP         0.0350
     36 H5'2        2.1266   -1.3683   -2.0443 H         1 ATP         0.0350
     37 H4'         3.8050   -0.1388   -0.4008 H         1 ATP         0.1244
     38 H3'         1.6784   -1.7629    0.2714 H         1 ATP         0.0924
     39 HO3'        2.2232   -1.2979    2.3953 H         1 ATP         0.4379
     40 H2'        -0.0011    0.0027    0.0003 H         1 ATP         0.0849
     41 HO2'       -0.1563   -0.9855    2.0596 H         1 ATP         0.4417
     42 H1'         1.7826    1.9024    1.6451 H         1 ATP         0.1307
     43 H8         -1.4217    1.8638    0.9164 H         1 ATP         0.2875
     44 HN61       -2.4023    5.7711   -1.5477 H         1 ATP         0.4559
     45 HN62       -1.4857    6.9379   -2.4627 H         1 ATP         0.4559
     46 H2          2.8789    5.4660   -2.1503 H         1 ATP         0.0858
     47 H47        -2.4129    3.8706   -0.2402 H         1 ATP         0.5042
@<TRIPOS>BOND
     1    1    2 2
     2    1    3 1
     3    1    4 1
     4    1    8 1
     5    3   32 1
     6    4   33 1
     7    5    6 2
     8    5    7 1
     9    5    8 1
    10    5   12 1
    11    7   34 1
    12    9   10 2
    13    9   11 1
    14    9   12 1
    15    9   13 1
    16   13   14 1
    17   14   15 1
    18   14   35 1
    19   14   36 1
    20   15   16 1
    21   15   17 1
    22   15   37 1
    23   16   21 1
    24   17   18 1
    25   17   19 1
    26   17   38 1
    27   18   39 1
    28   19   20 1
    29   19   21 1
    30   19   40 1
    31   20   41 1
    32   21   22 1
    33   21   42 1
    34   22   23 ar
    35   22   31 ar
    36   23   24 ar
    37   23   43 1
    38   24   25 ar
    39   24   47 1
    40   25   26 ar
    41   25   31 ar
    42   26   27 1
    43   26   28 ar
    44   27   44 1
    45   27   45 1
    46   28   29 ar
    47   29   30 ar
    48   29   46 1
    49   30   31 ar
@<TRIPOS>SUBSTRUCTURE
     1 ATP         1 GROUP 0 A     ****
@<TRIPOS>MOLECULE
[5-(6-amino-7,8-dihydropurin-8-ylium-9-yl)-3,4-dihydroxy-tetrahydrofuran-2-yl]methyl [hydroxy(phosphonooxy)phosphoryl] phosphate
   47    49     1     0     0
SMALL
USER_CHARGES

@<TRIPOS>ATOM
      1 PG         -0.3841  -10.2993    5.4973 P.3       1 ATP         1.8237
      2 O1G         0.9241  -10.5276    6.1951 O.2       1 ATP        -0.8455
      3 O2G        -0.7387  -11.3866    4.3542 O.3       1 ATP        -0.7970
      4 O3G        -1.6826  -10.3484    6.4599 O.3       1 ATP        -0.7970
      5 PB         -0.4534   -7.3705    5.2805 P.3       1 ATP         1.9358
      6 O1B        -1.4726   -7.0146    6.3222 O.2       1 ATP        -0.8836
      7 O2B         1.0862   -7.2208    5.7501 O.3       1 ATP        -0.8065
      8 O3B        -0.5295   -8.8866    4.7297 O.3       1 ATP        -0.8233
      9 PA         -1.7212   -6.2752    2.8479 P.3       1 ATP         1.5686
     10 O1A        -2.8747   -5.5667    3.5244 O.co2     1 ATP        -0.8169
     11 O2A        -1.9369   -7.5858    2.1227 O.co2     1 ATP        -0.8169
     12 O3A        -0.5207   -6.4812    3.9336 O.3       1 ATP        -0.7987
     13 O5'        -0.9729   -5.2427    1.8237 O.3       1 ATP        -0.5693
     14 C5'        -0.7840   -3.8935    2.2172 C.3       1 ATP         0.1841
     15 C4'        -0.0724   -3.1466    1.1027 C.3       1 ATP         0.0904
     16 O4'        -0.8674   -3.1929   -0.0945 O.3       1 ATP        -0.4083
     17 C3'         0.1338   -1.6715    1.4027 C.3       1 ATP         0.0826
     18 O3'         1.2893   -1.4445    2.1808 O.3       1 ATP        -0.6106
     19 C2'         0.2158   -1.0724    0.0128 C.3       1 ATP         0.1294
     20 O2'         1.5141   -1.2448   -0.5513 O.3       1 ATP        -0.5701
     21 C1'        -0.7897   -1.9176   -0.7583 C.3       1 ATP         0.3967
     22 N9         -2.1040   -1.3333   -0.7704 N.pl3     1 ATP        -0.5600
     23 C8         -3.0822   -1.4850    0.1102 C.ar      1 ATP         0.3009
     24 N7         -4.1844   -0.7999   -0.1888 N.pl3     1 ATP        -0.5113
     25 C5         -3.8875   -0.1651   -1.3445 C.ar      1 ATP        -0.2824
     26 C6         -4.5941    0.6799   -2.1486 C.ar      1 ATP         0.7670
     27 N6         -5.9138    1.0274   -1.7939 N.pl3     1 ATP        -0.9491
     28 N1         -4.0421    1.1824   -3.2748 N.ar      1 ATP        -0.7474
     29 C2         -2.7637    0.7937   -3.5405 C.ar      1 ATP         0.7118
     30 N3         -1.9788   -0.0343   -2.8140 N.ar      1 ATP        -0.6661
     31 C4         -2.5915   -0.4902   -1.7174 C.ar      1 ATP         0.6308
     32 HOG2       -0.1302  -11.4893    3.5918 H         1 ATP         0.4930
     33 HOG3       -1.7475   -9.7097    7.2017 H         1 ATP         0.4930
     34 HOB2        1.4039   -7.7503    6.5122 H         1 ATP         0.4808
     35 H5'1       -1.7613   -3.4427    2.4167 H         1 ATP         0.0350
     36 H5'2       -0.1870   -3.8723    3.1344 H         1 ATP         0.0350
     37 H4'         0.8886   -3.6447    0.8779 H         1 ATP         0.1244
     38 H3'        -0.7373   -1.2359    1.9870 H         1 ATP         0.0924
     39 HO3'        1.3408   -0.4870    2.3219 H         1 ATP         0.4379
     40 H2'        -0.0384   -0.0310    0.0096 H         1 ATP         0.0849
     41 HO2'        2.1463   -0.7958    0.0370 H         1 ATP         0.4417
     42 H1'        -0.4769   -2.1002   -1.8093 H         1 ATP         0.1307
     43 H8         -3.0031   -2.1011    0.9891 H         1 ATP         0.2875
     44 HN61       -6.3271    0.6117   -0.9836 H         1 ATP         0.4559
     45 HN62       -6.4471    1.6092   -2.4083 H         1 ATP         0.4559
     46 H2         -2.3243    1.1986   -4.4449 H         1 ATP         0.0858
     47 H47        -5.0436   -0.7722    0.3425 H         1 ATP         0.5042
@<TRIPOS>BOND
     1    1    2 2
     2    1    3 1
     3    1    4 1
     4    1    8 1
     5    3   32 1
     6    4   33 1
     7    5    6 2
     8    5    7 1
     9    5    8 1
    10    5   12 1
    11    7   34 1
    12    9   10 2
    13    9   11 1
    14    9   12 1
    15    9   13 1
    16   13   14 1
    17   14   15 1
    18   14   35 1
    19   14   36 1
    20   15   16 1
    21   15   17 1
    22   15   37 1
    23   16   21 1
    24   17   18 1
    25   17   19 1
    26   17   38 1
    27   18   39 1
    28   19   20 1
    29   19   21 1
    30   19   40 1
    31   20   41 1
    32   21   22 1
    33   21   42 1
    34   22   23 ar
    35   22   31 ar
    36   23   24 ar
    37   23   43 1
    38   24   25 ar
    39   24   47 1
    40   25   26 ar
    41   25   31 ar
    42   26   27 1
    43   26   28 ar
    44   27   44 1
    45   27   45 1
    46   28   29 ar
    47   29   30 ar
    48   29   46 1
    49   30   31 ar
@<TRIPOS>SUBSTRUCTURE
     1 ATP         1 GROUP 0 A     ****
@<TRIPOS>MOLECULE
[5-(6-amino-7,8-dihydropurin-8-ylium-9-yl)-3,4-dihydroxy-tetrahydrofuran-2-yl]methyl [hydroxy(phosphonooxy)phosphoryl] phosphate
   47    49     1     0     0
SMALL
USER_CHARGES

@<TRIPOS>ATOM
      1 PG         -2.7435   -1.3404   -3.0494 P.3       1 ATP         1.8237
      2 O1G        -2.0460   -1.3090   -1.7216 O.2       1 ATP        -0.8455
      3 O2G        -3.5340   -2.7152   -3.3649 O.3       1 ATP        -0.7970
      4 O3G        -3.8866   -0.2126   -3.2406 O.3       1 ATP        -0.7970
      5 PB         -0.5435   -2.0173   -4.8747 P.3       1 ATP         1.9358
      6 O1B        -0.8493   -3.4499   -5.1981 O.2       1 ATP        -0.8836
      7 O2B         0.0198   -1.1418   -6.1113 O.3       1 ATP        -0.8065
      8 O3B        -1.7952   -1.1475   -4.3416 O.3       1 ATP        -0.8233
      9 PA          2.1361   -2.2694   -3.6576 P.3       1 ATP         1.5686
     10 O1A         2.9126   -1.5332   -4.7278 O.co2     1 ATP        -0.8169
     11 O2A         2.1795   -3.7795   -3.5713 O.co2     1 ATP        -0.8169
     12 O3A         0.5736   -1.8042   -3.7274 O.3       1 ATP        -0.7987
     13 O5'         2.5237   -1.6631   -2.1889 O.3       1 ATP        -0.5693
     14 C5'         2.2816   -0.2918   -1.9206 C.3       1 ATP         0.1841
     15 C4'         2.7248    0.0226   -0.4980 C.3       1 ATP         0.0904
     16 O4'         2.4697    1.4219   -0.2462 O.3       1 ATP        -0.4083
     17 C3'         1.9404   -0.7419    0.5596 C.3       1 ATP         0.0826
     18 O3'         2.7418   -0.8086    1.7389 O.3       1 ATP        -0.6106
     19 C2'         0.7477    0.1630    0.7858 C.3       1 ATP         0.1294
     20 O2'         0.1373   -0.0577    2.0407 O.3       1 ATP        -0.5701
     21 C1'         1.3733    1.5427    0.6747 C.3       1 ATP         0.3967
     22 N9          0.4520    2.5240    0.1767 N.pl3     1 ATP        -0.5600
     23 C8          0.5305    3.2394   -0.9358 C.ar      1 ATP         0.3009
     24 N7         -0.4966    4.0680   -1.1145 N.pl3     1 ATP        -0.5113
     25 C5         -1.2879    3.8664   -0.0375 C.ar      1 ATP        -0.2824
     26 C6         -2.4754    4.4084    0.3577 C.ar      1 ATP         0.7670
     27 N6         -3.0892    5.3882   -0.4495 N.pl3     1 ATP        -0.9491
     28 N1         -3.0632    4.0158    1.5092 N.ar      1 ATP        -0.7474
     29 C2         -2.4008    3.0654    2.2262 C.ar      1 ATP         0.7118
     30 N3         -1.2259    2.4663    1.9260 N.ar      1 ATP        -0.6661
     31 C4         -0.7062    2.9047    0.7757 C.ar      1 ATP         0.6308
     32 HOG2       -4.2553   -2.9967   -2.7628 H         1 ATP         0.4930
     33 HOG3       -4.6495   -0.2012   -2.6240 H         1 ATP         0.4930
     34 HOB2        0.8538   -1.4178   -6.5478 H         1 ATP         0.4808
     35 H5'1        2.8429    0.3140   -2.6391 H         1 ATP         0.0350
     36 H5'2        1.2125   -0.0906   -2.0420 H         1 ATP         0.0350
     37 H4'         3.8050   -0.1388   -0.4008 H         1 ATP         0.1244
     38 H3'         1.6784   -1.7629    0.2714 H         1 ATP         0.0924
     39 HO3'        3.5554   -1.2733    1.4914 H         1 ATP         0.4379
     40 H2'        -0.0011    0.0027    0.0003 H         1 ATP         0.0849
     41 HO2'       -0.1563   -0.9855    2.0596 H         1 ATP         0.4417
     42 H1'         1.7826    1.9024    1.6451 H         1 ATP         0.1307
     43 H8          1.3437    3.1645   -1.6367 H         1 ATP         0.2875
     44 HN61       -2.6210    5.7042   -1.2748 H         1 ATP         0.4559
     45 HN62       -3.9356    5.8187   -0.1356 H         1 ATP         0.4559
     46 H2         -2.8752    2.7532    3.1495 H         1 ATP         0.0858
     47 H47        -0.6372    4.7004   -1.8900 H         1 ATP         0.5042
@<TRIPOS>BOND
     1    1    2 2
     2    1    3 1
     3    1    4 1
     4    1    8 1
     5    3   32 1
     6    4   33 1
     7    5    6 2
     8    5    7 1
     9    5    8 1
    10    5   12 1
    11    7   34 1
    12    9   10 2
    13    9   11 1
    14    9   12 1
    15    9   13 1
    16   13   14 1
    17   14   15 1
    18   14   35 1
    19   14   36 1
    20   15   16 1
    21   15   17 1
    22   15   37 1
    23   16   21 1
    24   17   18 1
    25   17   19 1
    26   17   38 1
    27   18   39 1
    28   19   20 1
    29   19   21 1
    30   19   40 1
    31   20   41 1
    32   21   22 1
    33   21   42 1
    34   22   23 ar
    35   22   31 ar
    36   23   24 ar
    37   23   43 1
    38   24   25 ar
    39   24   47 1
    40   25   26 ar
    41   25   31 ar
    42   26   27 1
    43   26   28 ar
    44   27   44 1
    45   27   45 1
    46   28   29 ar
    47   29   30 ar
    48   29   46 1
    49   30   31 ar
@<TRIPOS>SUBSTRUCTURE
     1 ATP         1 GROUP 0 A     ****
@<TRIPOS>MOLECULE
[5-(6-amino-7,8-dihydropurin-8-ylium-9-yl)-3,4-dihydroxy-tetrahydrofuran-2-yl]methyl [hydroxy(phosphonooxy)phosphoryl] phosphate
   47    49     1     0     0
SMALL
USER_CHARGES

@<TRIPOS>ATOM
      1 PG          6.6905   -3.5488   -5.2768 P.3       1 ATP         1.8237
      2 O1G         7.6667   -3.5199   -4.1382 O.2       1 ATP        -0.8455
      3 O2G         7.1791   -2.7678   -6.6057 O.3       1 ATP        -0.7970
      4 O3G         6.3417   -5.0270   -5.8324 O.3       1 ATP        -0.7970
      5 PB          4.8233   -1.4074   -4.5299 P.3       1 ATP         1.9358
      6 O1B         5.4096   -0.9343   -3.2326 O.2       1 ATP        -0.8836
      7 O2B         5.2081   -0.5141   -5.8210 O.3       1 ATP        -0.8065
      8 O3B         5.2427   -2.9027   -4.9725 O.3       1 ATP        -0.8233
      9 PA          2.1361   -2.2694   -3.6576 P.3       1 ATP         1.5686
     10 O1A         2.4847   -3.7413   -3.7034 O.co2     1 ATP        -0.8169
     11 O2A         0.7444   -1.7928   -4.0127 O.co2     1 ATP        -0.8169
     12 O3A         3.2088   -1.4460   -4.5707 O.3       1 ATP        -0.7987
     13 O5'         2.5237   -1.6631   -2.1889 O.3       1 ATP        -0.5693
     14 C5'         2.2816   -0.2918   -1.9206 C.3       1 ATP         0.1841
     15 C4'         2.7248    0.0226   -0.4980 C.3       1 ATP         0.0904
     16 O4'         2.4697    1.4219   -0.2462 O.3       1 ATP        -0.4083
     17 C3'         1.9404   -0.7419    0.5596 C.3       1 ATP         0.0826
     18 O3'         2.7418   -0.8086    1.7389 O.3       1 ATP        -0.6106
     19 C2'         0.7477    0.1630    0.7858 C.3       1 ATP         0.1294
     20 O2'         0.1373   -0.0577    2.0407 O.3       1 ATP        -0.5701
     21 C1'         1.3733    1.5427    0.6747 C.3       1 ATP         0.3967
     22 N9          0.4520    2.5240    0.1767 N.pl3     1 ATP        -0.5600
     23 C8         -0.2172    2.5216   -0.9668 C.ar      1 ATP         0.3009
     24 N7         -1.0011    3.5855   -1.1321 N.pl3     1 ATP        -0.5113
     25 C5         -0.8184    4.3200   -0.0123 C.ar      1 ATP        -0.2824
     26 C6         -1.3349    5.5079    0.4144 C.ar      1 ATP         0.7670
     27 N6         -2.2567    6.1930   -0.4036 N.pl3     1 ATP        -0.9491
     28 N1         -0.9716    6.0291    1.6069 N.ar      1 ATP        -0.7474
     29 C2         -0.0765    5.3009    2.3312 C.ar      1 ATP         0.7118
     30 N3          0.4933    4.1191    2.0023 N.ar      1 ATP        -0.6661
     31 C4          0.0865    3.6675    0.8123 C.ar      1 ATP         0.6308
     32 HOG2        6.5883   -2.7475   -7.3884 H         1 ATP         0.4930
     33 HOG3        5.9417   -5.6814   -5.2208 H         1 ATP         0.4930
     34 HOB2        6.1527   -0.4165   -6.0666 H         1 ATP         0.4808
     35 H5'1        2.8429    0.3140   -2.6391 H         1 ATP         0.0350
     36 H5'2        1.2125   -0.0906   -2.0420 H         1 ATP         0.0350
     37 H4'         3.8050   -0.1388   -0.4008 H         1 ATP         0.1244
     38 H3'         1.6784   -1.7629    0.2714 H         1 ATP         0.0924
     39 HO3'        2.2232   -1.2979    2.3953 H         1 ATP         0.4379
     40 H2'        -0.0011    0.0027    0.0003 H         1 ATP         0.0849
     41 HO2'       -0.1563   -0.9855    2.0596 H         1 ATP         0.4417
     42 H1'         1.7826    1.9024    1.6451 H         1 ATP         0.1307
     43 H8         -0.1423    1.7373   -1.6999 H         1 ATP         0.2875
     44 HN61       -2.4811    5.8206   -1.3042 H         1 ATP         0.4559
     45 HN62       -2.5986    7.0863   -0.1113 H         1 ATP         0.4559
     46 H2          0.2128    5.7222    3.2871 H         1 ATP         0.0858
     47 H47        -1.5947    3.7835   -1.9255 H         1 ATP         0.5042
@<TRIPOS>BOND
     1    1    2 2
     2    1    3 1
     3    1    4 1
     4    1    8 1
     5    3   32 1
     6    4   33 1
     7    5    6 2
     8    5    7 1
     9    5    8 1
    10    5   12 1
    11    7   34 1
    12    9   10 2
    13    9   11 1
    14    9   12 1
    15    9   13 1
    16   13   14 1
    17   14   15 1
    18   14   35 1
    19   14   36 1
    20   15   16 1
    21   15   17 1
    22   15   37 1
    23   16   21 1
    24   17   18 1
    25   17   19 1
    26   17   38 1
    27   18   39 1
    28   19   20 1
    29   19   21 1
    30   19   40 1
    31   20   41 1
    32   21   22 1
    33   21   42 1
    34   22   23 ar
    35   22   31 ar
    36   23   24 ar
    37   23   43 1
    38   24   25 ar
    39   24   47 1
    40   25   26 ar
    41   25   31 ar
    42   26   27 1
    43   26   28 ar
    44   27   44 1
    45   27   45 1
    46   28   29 ar
    47   29   30 ar
    48   29   46 1
    49   30   31 ar
@<TRIPOS>SUBSTRUCTURE
     1 ATP         1 GROUP 0 A     ****
@<TRIPOS>MOLECULE
[5-(6-amino-7,8-dihydropurin-8-ylium-9-yl)-3,4-dihydroxy-tetrahydrofuran-2-yl]methyl [hydroxy(phosphonooxy)phosphoryl] phosphate
   47    49     1     0     0
SMALL
USER_CHARGES

@<TRIPOS>ATOM
      1 PG          0.8058    3.2999   -7.0423 P.3       1 ATP         1.8237
      2 O1G        -0.4405    3.0602   -7.8419 O.2       1 ATP        -0.8455
      3 O2G         2.0727    3.8164   -7.9042 O.3       1 ATP        -0.7970
      4 O3G         0.6658    4.4277   -5.8918 O.3       1 ATP        -0.7970
      5 PB          0.7230    1.0875   -5.1114 P.3       1 ATP         1.9358
      6 O1B         0.3294    1.8006   -3.8516 O.2       1 ATP        -0.8836
      7 O2B        -0.4884    0.3510   -5.8881 O.3       1 ATP        -0.8065
      8 O3B         1.3869    2.0173   -6.2525 O.3       1 ATP        -0.8233
      9 PA          3.3322   -0.0533   -4.3265 P.3       1 ATP         1.5686
     10 O1A         4.1270    0.9770   -5.0991 O.co2     1 ATP        -0.8169
     11 O2A         3.8287   -1.4771   -4.1997 O.co2     1 ATP        -0.8169
     12 O3A         1.8098   -0.0911   -4.9126 O.3       1 ATP        -0.7987
     13 O5'         3.0197    0.5137   -2.8245 O.3       1 ATP        -0.5693
     14 C5'         2.2816   -0.2918   -1.9206 C.3       1 ATP         0.1841
     15 C4'         2.7248    0.0226   -0.4980 C.3       1 ATP         0.0904
     16 O4'         2.4697    1.4219   -0.2462 O.3       1 ATP        -0.4083
     17 C3'         1.9404   -0.7419    0.5596 C.3       1 ATP         0.0826
     18 O3'         2.7418   -0.8086    1.7389 O.3       1 ATP        -0.6106
     19 C2'         0.7477    0.1630    0.7858 C.3       1 ATP         0.1294
     20 O2'         0.1373   -0.0577    2.0407 O.3       1 ATP        -0.5701
     21 C1'         1.3733    1.5427    0.6747 C.3       1 ATP         0.3967
     22 N9          0.4520    2.5240    0.1767 N.pl3     1 ATP        -0.5600
     23 C8         -0.8602    2.5861    0.3496 C.ar      1 ATP         0.3009
     24 N7         -1.4308    3.6326   -0.2443 N.pl3     1 ATP        -0.5113
     25 C5         -0.4080    4.2856   -0.8394 C.ar      1 ATP        -0.2824
     26 C6         -0.3432    5.4196   -1.5943 C.ar      1 ATP         0.7670
     27 N6         -1.5276    6.1333   -1.8702 N.pl3     1 ATP        -0.9491
     28 N1          0.8395    5.8603   -2.0764 N.ar      1 ATP        -0.7474
     29 C2          1.9319    5.1095   -1.7617 C.ar      1 ATP         0.7118
     30 N3          1.9773    3.9761   -1.0249 N.ar      1 ATP        -0.6661
     31 C4          0.7724    3.6031   -0.5836 C.ar      1 ATP         0.6308
     32 HOG2        2.4156    3.2514   -8.6290 H         1 ATP         0.4930
     33 HOG3        0.0034    4.2992   -5.1797 H         1 ATP         0.4930
     34 HOB2       -1.2454    0.8882   -6.2052 H         1 ATP         0.4808
     35 H5'1        1.2153   -0.0781   -2.0454 H         1 ATP         0.0350
     36 H5'2        2.4645   -1.3454   -2.1547 H         1 ATP         0.0350
     37 H4'         3.8050   -0.1388   -0.4008 H         1 ATP         0.1244
     38 H3'         1.6784   -1.7629    0.2714 H         1 ATP         0.0924
     39 HO3'        2.2232   -1.2979    2.3953 H         1 ATP         0.4379
     40 H2'        -0.0011    0.0027    0.0003 H         1 ATP         0.0849
     41 HO2'       -0.1563   -0.9855    2.0596 H         1 ATP         0.4417
     42 H1'         1.7826    1.9024    1.6451 H         1 ATP         0.1307
     43 H8         -1.4217    1.8638    0.9164 H         1 ATP         0.2875
     44 HN61       -2.4023    5.7711   -1.5477 H         1 ATP         0.4559
     45 HN62       -1.4857    6.9379   -2.4627 H         1 ATP         0.4559
     46 H2          2.8789    5.4660   -2.1503 H         1 ATP         0.0858
     47 H47        -2.4129    3.8706   -0.2402 H         1 ATP         0.5042
@<TRIPOS>BOND
     1    1    2 2
     2    1    3 1
     3    1    4 1
     4    1    8 1
     5    3   32 1
     6    4   33 1
     7    5    6 2
     8    5    7 1
     9    5    8 1
    10    5   12 1
    11    7   34 1
    12    9   10 2
    13    9   11 1
    14    9   12 1
    15    9   13 1
    16   13   14 1
    17   14   15 1
    18   14   35 1
    19   14   36 1
    20   15   16 1
    21   15   17 1
    22   15   37 1
    23   16   21 1
    24   17   18 1
    25   17   19 1
    26   17   38 1
    27   18   39 1
    28   19   20 1
    29   19   21 1
    30   19   40 1
    31   20   41 1
    32   21   22 1
    33   21   42 1
    34   22   23 ar
    35   22   31 ar
    36   23   24 ar
    37   23   43 1
    38   24   25 ar
    39   24   47 1
    40   25   26 ar
    41   25   31 ar
    42   26   27 1
    43   26   28 ar
    44   27   44 1
    45   27   45 1
    46   28   29 ar
    47   29   30 ar
    48   29   46 1
    49   30   31 ar
@<TRIPOS>SUBSTRUCTURE
     1 ATP         1 GROUP 0 A     ****
@<TRIPOS>MOLECULE
[5-(6-amino-7,8-dihydropurin-8-ylium-9-yl)-3,4-dihydroxy-tetrahydrofuran-2-yl]methyl [hydroxy(phosphonooxy)phosphoryl] phosphate
   47    49     1     0     0
SMALL
USER_CHARGES

@<TRIPOS>ATOM
      1 PG          1.9547   -3.7589   -5.8573 P.3       1 ATP         1.8237
      2 O1G         2.8394   -3.9611   -7.0518 O.2       1 ATP        -0.8455
      3 O2G         1.0143   -5.0224   -5.4915 O.3       1 ATP        -0.7970
      4 O3G         2.7408   -3.4789   -4.4720 O.3       1 ATP        -0.7970
      5 PB          1.1565   -0.9482   -6.1619 P.3       1 ATP         1.9358
      6 O1B         1.8733   -0.5657   -7.4230 O.2       1 ATP        -0.8836
      7 O2B        -0.3226   -0.3173   -5.9971 O.3       1 ATP        -0.8065
      8 O3B         0.9112   -2.5315   -5.9603 O.3       1 ATP        -0.8233
      9 PA          2.3317    0.9615   -4.2392 P.3       1 ATP         1.5686
     10 O1A         1.0779    1.7613   -3.9590 O.co2     1 ATP        -0.8169
     11 O2A         3.4167    1.5139   -5.1378 O.co2     1 ATP        -0.8169
     12 O3A         1.9029   -0.5105   -4.7977 O.3       1 ATP        -0.7987
     13 O5'         3.0197    0.5137   -2.8245 O.3       1 ATP        -0.5693
     14 C5'         2.2816   -0.2918   -1.9206 C.3       1 ATP         0.1841
     15 C4'         2.7248    0.0226   -0.4980 C.3       1 ATP         0.0904
     16 O4'         2.4697    1.4219   -0.2462 O.3       1 ATP        -0.4083
     17 C3'         1.9404   -0.7419    0.5596 C.3       1 ATP         0.0826
     18 O3'         2.7418   -0.8086    1.7389 O.3       1 ATP        -0.6106
     19 C2'         0.7477    0.1630    0.7858 C.3       1 ATP         0.1294
     20 O2'         0.1373   -0.0577    2.0407 O.3       1 ATP        -0.5701
     21 C1'         1.3733    1.5427    0.6747 C.3       1 ATP         0.3967
     22 N9          0.4520    2.5240    0.1767 N.pl3     1 ATP        -0.5600
     23 C8         -0.8602    2.5861    0.3496 C.ar      1 ATP         0.3009
     24 N7         -1.4308    3.6326   -0.2443 N.pl3     1 ATP        -0.5113
     25 C5         -0.4080    4.2856   -0.8394 C.ar      1 ATP        -0.2824
     26 C6         -0.3432    5.4196   -1.5943 C.ar      1 ATP         0.7670
     27 N6         -1.5276    6.1333   -1.8702 N.pl3     1 ATP        -0.9491
     28 N1          0.8395    5.8603   -2.0764 N.ar      1 ATP        -0.7474
     29 C2          1.9319    5.1095   -1.7617 C.ar      1 ATP         0.7118
     30 N3          1.9773    3.9761   -1.0249 N.ar      1 ATP        -0.6661
     31 C4          0.7724    3.6031   -0.5836 C.ar      1 ATP         0.6308
     32 HOG2        0.3680   -5.3413   -6.1570 H         1 ATP         0.4930
     33 HOG3        3.3280   -2.6955   -4.4100 H         1 ATP         0.4930
     34 HOB2       -0.4239    0.6582   -5.9820 H         1 ATP         0.4808
     35 H5'1        1.2153   -0.0781   -2.0454 H         1 ATP         0.0350
     36 H5'2        2.4645   -1.3454   -2.1547 H         1 ATP         0.0350
     37 H4'         3.8050   -0.1388   -0.4008 H         1 ATP         0.1244
     38 H3'         1.6784   -1.7629    0.2714 H         1 ATP         0.0924
     39 HO3'        2.2232   -1.2979    2.3953 H         1 ATP         0.4379
     40 H2'        -0.0011    0.0027    0.0003 H         1 ATP         0.0849
     41 HO2'       -0.1563   -0.9855    2.0596 H         1 ATP         0.4417
     42 H1'         1.7826    1.9024    1.6451 H         1 ATP         0.1307
     43 H8         -1.4217    1.8638    0.9164 H         1 ATP         0.2875
     44 HN61       -2.4023    5.7711   -1.5477 H         1 ATP         0.4559
     45 HN62       -1.4857    6.9379   -2.4627 H         1 ATP         0.4559
     46 H2          2.8789    5.4660   -2.1503 H         1 ATP         0.0858
     47 H47        -2.4129    3.8706   -0.2402 H         1 ATP         0.5042
@<TRIPOS>BOND
     1    1    2 2
     2    1    3 1
     3    1    4 1
     4    1    8 1
     5    3   32 1
     6    4   33 1
     7    5    6 2
     8    5    7 1
     9    5    8 1
    10    5   12 1
    11    7   34 1
    12    9   10 2
    13    9   11 1
    14    9   12 1
    15    9   13 1
    16   13   14 1
    17   14   15 1
    18   14   35 1
    19   14   36 1
    20   15   16 1
    21   15   17 1
    22   15   37 1
    23   16   21 1
    24   17   18 1
    25   17   19 1
    26   17   38 1
    27   18   39 1
    28   19   20 1
    29   19   21 1
    30   19   40 1
    31   20   41 1
    32   21   22 1
    33   21   42 1
    34   22   23 ar
    35   22   31 ar
    36   23   24 ar
    37   23   43 1
    38   24   25 ar
    39   24   47 1
    40   25   26 ar
    41   25   31 ar
    42   26   27 1
    43   26   28 ar
    44   27   44 1
    45   27   45 1
    46   28   29 ar
    47   29   30 ar
    48   29   46 1
    49   30   31 ar
@<TRIPOS>SUBSTRUCTURE
     1 ATP         1 GROUP 0 A     ****
@<TRIPOS>MOLECULE
[5-(6-amino-7,8-dihydropurin-8-ylium-9-yl)-3,4-dihydroxy-tetrahydrofuran-2-yl]methyl [hydroxy(phosphonooxy)phosphoryl] phosphate
   47    49     1     0     0
SMALL
USER_CHARGES

@<TRIPOS>ATOM
      1 PG         -1.9409   -3.3388    0.2293 P.3       1 ATP         1.8237
      2 O1G        -0.6429   -2.9773    0.8887 O.2       1 ATP        -0.8455
      3 O2G        -2.2610   -4.9233    0.1910 O.3       1 ATP        -0.7970
      4 O3G        -3.2560   -2.7201    0.9384 O.3       1 ATP        -0.7970
      5 PB         -1.2156   -3.2698   -2.6167 P.3       1 ATP         1.9358
      6 O1B        -1.1681   -4.7313   -2.9518 O.2       1 ATP        -0.8836
      7 O2B        -1.8337   -2.3225   -3.7716 O.3       1 ATP        -0.8065
      8 O3B        -2.0900   -2.8882   -1.3138 O.3       1 ATP        -0.8233
      9 PA          1.5535   -2.4535   -3.2419 P.3       1 ATP         1.5686
     10 O1A         1.2363   -1.5482   -4.4124 O.co2     1 ATP        -0.8169
     11 O2A         2.1275   -3.8355   -3.4665 O.co2     1 ATP        -0.8169
     12 O3A         0.2209   -2.5966   -2.3113 O.3       1 ATP        -0.7987
     13 O5'         2.5237   -1.6631   -2.1889 O.3       1 ATP        -0.5693
     14 C5'         2.2816   -0.2918   -1.9206 C.3       1 ATP         0.1841
     15 C4'         2.7248    0.0226   -0.4980 C.3       1 ATP         0.0904
     16 O4'         2.4697    1.4219   -0.2462 O.3       1 ATP        -0.4083
     17 C3'         1.9404   -0.7419    0.5596 C.3       1 ATP         0.0826
     18 O3'         2.7418   -0.8086    1.7389 O.3       1 ATP        -0.6106
     19 C2'         0.7477    0.1630    0.7858 C.3       1 ATP         0.1294
     20 O2'         0.1373   -0.0577    2.0407 O.3       1 ATP        -0.5701
     21 C1'         1.3733    1.5427    0.6747 C.3       1 ATP         0.3967
     22 N9          0.4520    2.5240    0.1767 N.pl3     1 ATP        -0.5600
     23 C8         -0.8602    2.5861    0.3496 C.ar      1 ATP         0.3009
     24 N7         -1.4308    3.6326   -0.2443 N.pl3     1 ATP        -0.5113
     25 C5         -0.4080    4.2856   -0.8394 C.ar      1 ATP        -0.2824
     26 C6         -0.3432    5.4196   -1.5943 C.ar      1 ATP         0.7670
     27 N6         -1.5276    6.1333   -1.8702 N.pl3     1 ATP        -0.9491
     28 N1          0.8395    5.8603   -2.0764 N.ar      1 ATP        -0.7474
     29 C2          1.9319    5.1095   -1.7617 C.ar      1 ATP         0.7118
     30 N3          1.9773    3.9761   -1.0249 N.ar      1 ATP        -0.6661
     31 C4          0.7724    3.6031   -0.5836 C.ar      1 ATP         0.6308
     32 HOG2       -1.6373   -5.5223   -0.2721 H         1 ATP         0.4930
     33 HOG3       -3.3424   -1.7455    1.0094 H         1 ATP         0.4930
     34 HOB2       -1.3986   -2.2996   -4.6504 H         1 ATP         0.4808
     35 H5'1        2.8429    0.3140   -2.6391 H         1 ATP         0.0350
     36 H5'2        1.2125   -0.0906   -2.0420 H         1 ATP         0.0350
     37 H4'         3.8050   -0.1388   -0.4008 H         1 ATP         0.1244
     38 H3'         1.6784   -1.7629    0.2714 H         1 ATP         0.0924
     39 HO3'        2.2232   -1.2979    2.3953 H         1 ATP         0.4379
     40 H2'        -0.0011    0.0027    0.0003 H         1 ATP         0.0849
     41 HO2'       -0.1563   -0.9855    2.0596 H         1 ATP         0.4417
     42 H1'         1.7826    1.9024    1.6451 H         1 ATP         0.1307
     43 H8         -1.4217    1.8638    0.9164 H         1 ATP         0.2875
     44 HN61       -2.4023    5.7711   -1.5477 H         1 ATP         0.4559
     45 HN62       -1.4857    6.9379   -2.4627 H         1 ATP         0.4559
     46 H2          2.8789    5.4660   -2.1503 H         1 ATP         0.0858
     47 H47        -2.4129    3.8706   -0.2402 H         1 ATP         0.5042
@<TRIPOS>BOND
     1    1    2 2
     2    1    3 1
     3    1    4 1
     4    1    8 1
     5    3   32 1
     6    4   33 1
     7    5    6 2
     8    5    7 1
     9    5    8 1
    10    5   12 1
    11    7   34 1
    12    9   10 2
    13    9   11 1
    14    9   12 1
    15    9   13 1
    16   13   14 1
    17   14   15 1
    18   14   35 1
    19   14   36 1
    20   15   16 1
    21   15   17 1
    22   15   37 1
    23   16   21 1
    24   17   18 1
    25   17   19 1
    26   17   38 1
    27   18   39 1
    28   19   20 1
    29   19   21 1
    30   19   40 1
    31   20   41 1
    32   21   22 1
    33   21   42 1
    34   22   23 ar
    35   22   31 ar
    36   23   24 ar
    37   23   43 1
    38   24   25 ar
    39   24   47 1
    40   25   26 ar
    41   25   31 ar
    42   26   27 1
    43   26   28 ar
    44   27   44 1
    45   27   45 1
    46   28   29 ar
    47   29   30 ar
    48   29   46 1
    49   30   31 ar
@<TRIPOS>SUBSTRUCTURE
     1 ATP         1 GROUP 0 A     ****
@<TRIPOS>MOLECULE
[5-(6-amino-7,8-dihydropurin-8-ylium-9-yl)-3,4-dihydroxy-tetrahydrofuran-2-yl]methyl [hydroxy(phosphonooxy)phosphoryl] phosphate
   47    49     1     0     0
SMALL
USER_CHARGES

@<TRIPOS>ATOM
      1 PG         -5.8229   -3.4242    3.1496 P.3       1 ATP         1.8237
      2 O1G        -4.6770   -2.6190    2.6120 O.2       1 ATP        -0.8455
      3 O2G        -6.1308   -3.1958    4.7204 O.3       1 ATP        -0.7970
      4 O3G        -7.2500   -3.1204    2.4523 O.3       1 ATP        -0.7970
      5 PB         -4.5597   -6.0328    3.6285 P.3       1 ATP         1.9358
      6 O1B        -4.4494   -6.0448    5.1246 O.2       1 ATP        -0.8836
      7 O2B        -4.9414   -7.4537    2.9589 O.3       1 ATP        -0.8065
      8 O3B        -5.6697   -5.0265    3.0261 O.3       1 ATP        -0.8233
      9 PA         -1.7212   -6.2752    2.8479 P.3       1 ATP         1.5686
     10 O1A        -1.8047   -7.6453    2.2107 O.co2     1 ATP        -0.8169
     11 O2A        -1.1157   -6.0976    4.2232 O.co2     1 ATP        -0.8169
     12 O3A        -3.2091   -5.6054    2.8520 O.3       1 ATP        -0.7987
     13 O5'        -0.9729   -5.2427    1.8237 O.3       1 ATP        -0.5693
     14 C5'        -0.7840   -3.8935    2.2172 C.3       1 ATP         0.1841
     15 C4'        -0.0724   -3.1466    1.1027 C.3       1 ATP         0.0904
     16 O4'        -0.8674   -3.1929   -0.0945 O.3       1 ATP        -0.4083
     17 C3'         0.1338   -1.6715    1.4027 C.3       1 ATP         0.0826
     18 O3'         1.2893   -1.4445    2.1808 O.3       1 ATP        -0.6106
     19 C2'         0.2158   -1.0724    0.0128 C.3       1 ATP         0.1294
     20 O2'         1.5141   -1.2448   -0.5513 O.3       1 ATP        -0.5701
     21 C1'        -0.7897   -1.9176   -0.7583 C.3       1 ATP         0.3967
     22 N9         -2.1040   -1.3333   -0.7704 N.pl3     1 ATP        -0.5600
     23 C8         -3.2304   -1.8262   -0.2767 C.ar      1 ATP         0.3009
     24 N7         -4.2847   -1.0309   -0.4481 N.pl3     1 ATP        -0.5113
     25 C5         -3.7951    0.0479   -1.0985 C.ar      1 ATP        -0.2824
     26 C6         -4.3691    1.1983   -1.5536 C.ar      1 ATP         0.7670
     27 N6         -5.7501    1.4047   -1.3573 N.pl3     1 ATP        -0.9491
     28 N1         -3.6289    2.1345   -2.1869 N.ar      1 ATP        -0.7474
     29 C2         -2.3041    1.8525   -2.3333 C.ar      1 ATP         0.7118
     30 N3         -1.6387    0.7492   -1.9218 N.ar      1 ATP        -0.6661
     31 C4         -2.4348   -0.1293   -1.3053 C.ar      1 ATP         0.6308
     32 HOG2       -5.4298   -3.3986    5.3758 H         1 ATP         0.4930
     33 HOG3       -7.3477   -3.2691    1.4875 H         1 ATP         0.4930
     34 HOB2       -4.3442   -8.2195    3.0969 H         1 ATP         0.4808
     35 H5'1       -1.7613   -3.4427    2.4167 H         1 ATP         0.0350
     36 H5'2       -0.1870   -3.8723    3.1344 H         1 ATP         0.0350
     37 H4'         0.8886   -3.6447    0.8779 H         1 ATP         0.1244
     38 H3'        -0.7373   -1.2359    1.9870 H         1 ATP         0.0924
     39 HO3'        1.3408   -0.4870    2.3219 H         1 ATP         0.4379
     40 H2'        -0.0384   -0.0310    0.0096 H         1 ATP         0.0849
     41 HO2'        2.1463   -0.7958    0.0370 H         1 ATP         0.4417
     42 H1'        -0.4769   -2.1002   -1.8093 H         1 ATP         0.1307
     43 H8         -3.2974   -2.7789    0.2194 H         1 ATP         0.2875
     44 HN61       -6.2956    0.6838   -0.9296 H         1 ATP         0.4559
     45 HN62       -6.1788    2.2266   -1.7327 H         1 ATP         0.4559
     46 H2         -1.7135    2.6057   -2.8421 H         1 ATP         0.0858
     47 H47        -5.2337   -1.2102   -0.1507 H         1 ATP         0.5042
@<TRIPOS>BOND
     1    1    2 2
     2    1    3 1
     3    1    4 1
     4    1    8 1
     5    3   32 1
     6    4   33 1
     7    5    6 2
     8    5    7 1
     9    5    8 1
    10    5   12 1
    11    7   34 1
    12    9   10 2
    13    9   11 1
    14    9   12 1
    15    9   13 1
    16   13   14 1
    17   14   15 1
    18   14   35 1
    19   14   36 1
    20   15   16 1
    21   15   17 1
    22   15   37 1
    23   16   21 1
    24   17   18 1
    25   17   19 1
    26   17   38 1
    27   18   39 1
    28   19   20 1
    29   19   21 1
    30   19   40 1
    31   20   41 1
    32   21   22 1
    33   21   42 1
    34   22   23 ar
    35   22   31 ar
    36   23   24 ar
    37   23   43 1
    38   24   25 ar
    39   24   47 1
    40   25   26 ar
    41   25   31 ar
    42   26   27 1
    43   26   28 ar
    44   27   44 1
    45   27   45 1
    46   28   29 ar
    47   29   30 ar
    48   29   46 1
    49   30   31 ar
@<TRIPOS>SUBSTRUCTURE
     1 ATP         1 GROUP 0 A     ****
@<TRIPOS>MOLECULE
[5-(6-amino-7,8-dihydropurin-8-ylium-9-yl)-3,4-dihydroxy-tetrahydrofuran-2-yl]methyl [hydroxy(phosphonooxy)phosphoryl] phosphate
   47    49     1     0     0
SMALL
USER_CHARGES

@<TRIPOS>ATOM
      1 PG          1.7408   -0.4514   -8.2988 P.3       1 ATP         1.8237
      2 O1G         1.7832   -1.5727   -9.2944 O.2       1 ATP        -0.8455
      3 O2G         2.7330    0.7822   -8.6279 O.3       1 ATP        -0.7970
      4 O3G         0.3010    0.2702   -8.1526 O.3       1 ATP        -0.7970
      5 PB          3.4815   -1.4701   -6.1628 P.3       1 ATP         1.9358
      6 O1B         3.8842   -2.8064   -6.7129 O.2       1 ATP        -0.8836
      7 O2B         4.5643   -0.2885   -6.3740 O.3       1 ATP        -0.8065
      8 O3B         2.1258   -0.8486   -6.7821 O.3       1 ATP        -0.8233
      9 PA          2.1361   -2.2694   -3.6576 P.3       1 ATP         1.5686
     10 O1A         2.4847   -3.7413   -3.7034 O.co2     1 ATP        -0.8169
     11 O2A         0.7444   -1.7928   -4.0127 O.co2     1 ATP        -0.8169
     12 O3A         3.2088   -1.4460   -4.5707 O.3       1 ATP        -0.7987
     13 O5'         2.5237   -1.6631   -2.1889 O.3       1 ATP        -0.5693
     14 C5'         2.2816   -0.2918   -1.9206 C.3       1 ATP         0.1841
     15 C4'         2.7248    0.0226   -0.4980 C.3       1 ATP         0.0904
     16 O4'         2.4697    1.4219   -0.2462 O.3       1 ATP        -0.4083
     17 C3'         1.9404   -0.7419    0.5596 C.3       1 ATP         0.0826
     18 O3'         2.7418   -0.8086    1.7389 O.3       1 ATP        -0.6106
     19 C2'         0.7477    0.1630    0.7858 C.3       1 ATP         0.1294
     20 O2'         0.1373   -0.0577    2.0407 O.3       1 ATP        -0.5701
     21 C1'         1.3733    1.5427    0.6747 C.3       1 ATP         0.3967
     22 N9          0.4520    2.5240    0.1767 N.pl3     1 ATP        -0.5600
     23 C8         -0.2172    2.5216   -0.9668 C.ar      1 ATP         0.3009
     24 N7         -1.0011    3.5855   -1.1321 N.pl3     1 ATP        -0.5113
     25 C5         -0.8184    4.3200   -0.0123 C.ar      1 ATP        -0.2824
     26 C6         -1.3349    5.5079    0.4144 C.ar      1 ATP         0.7670
     27 N6         -2.2567    6.1930   -0.4036 N.pl3     1 ATP        -0.9491
     28 N1         -0.9716    6.0291    1.6069 N.ar      1 ATP        -0.7474
     29 C2         -0.0765    5.3009    2.3312 C.ar      1 ATP         0.7118
     30 N3          0.4933    4.1191    2.0023 N.ar      1 ATP        -0.6661
     31 C4          0.0865    3.6675    0.8123 C.ar      1 ATP         0.6308
     32 HOG2        2.7552    1.5493   -8.0170 H         1 ATP         0.4930
     33 HOG3       -0.4714   -0.2650   -7.8710 H         1 ATP         0.4930
     34 HOB2        4.8285   -0.0440   -7.2865 H         1 ATP         0.4808
     35 H5'1        2.8429    0.3140   -2.6391 H         1 ATP         0.0350
     36 H5'2        1.2125   -0.0906   -2.0420 H         1 ATP         0.0350
     37 H4'         3.8050   -0.1388   -0.4008 H         1 ATP         0.1244
     38 H3'         1.6784   -1.7629    0.2714 H         1 ATP         0.0924
     39 HO3'        2.2232   -1.2979    2.3953 H         1 ATP         0.4379
     40 H2'        -0.0011    0.0027    0.0003 H         1 ATP         0.0849
     41 HO2'       -0.1563   -0.9855    2.0596 H         1 ATP         0.4417
     42 H1'         1.7826    1.9024    1.6451 H         1 ATP         0.1307
     43 H8         -0.1423    1.7373   -1.6999 H         1 ATP         0.2875
     44 HN61       -2.4811    5.8206   -1.3042 H         1 ATP         0.4559
     45 HN62       -2.5986    7.0863   -0.1113 H         1 ATP         0.4559
     46 H2          0.2128    5.7222    3.2871 H         1 ATP         0.0858
     47 H47        -1.5947    3.7835   -1.9255 H         1 ATP         0.5042
@<TRIPOS>BOND
     1    1    2 2
     2    1    3 1
     3    1    4 1
     4    1    8 1
     5    3   32 1
     6    4   33 1
     7    5    6 2
     8    5    7 1
     9    5    8 1
    10    5   12 1
    11    7   34 1
    12    9   10 2
    13    9   11 1
    14    9   12 1
    15    9   13 1
    16   13   14 1
    17   14   15 1
    18   14   35 1
    19   14   36 1
    20   15   16 1
    21   15   17 1
    22   15   37 1
    23   16   21 1
    24   17   18 1
    25   17   19 1
    26   17   38 1
    27   18   39 1
    28   19   20 1
    29   19   21 1
    30   19   40 1
    31   20   41 1
    32   21   22 1
    33   21   42 1
    34   22   23 ar
    35   22   31 ar
    36   23   24 ar
    37   23   43 1
    38   24   25 ar
    39   24   47 1
    40   25   26 ar
    41   25   31 ar
    42   26   27 1
    43   26   28 ar
    44   27   44 1
    45   27   45 1
    46   28   29 ar
    47   29   30 ar
    48   29   46 1
    49   30   31 ar
@<TRIPOS>SUBSTRUCTURE
     1 ATP         1 GROUP 0 A     ****
@<TRIPOS>MOLECULE
[5-(6-amino-7,8-dihydropurin-8-ylium-9-yl)-3,4-dihydroxy-tetrahydrofuran-2-yl]methyl [hydroxy(phosphonooxy)phosphoryl] phosphate
   47    49     1     0     0
SMALL
USER_CHARGES

@<TRIPOS>ATOM
      1 PG          2.2136   -0.8430   -8.9008 P.3       1 ATP         1.8237
      2 O1G         1.0633   -0.2434   -9.6542 O.2       1 ATP        -0.8455
      3 O2G         2.3237   -2.4529   -9.0050 O.3       1 ATP        -0.7970
      4 O3G         3.6739   -0.3473   -9.3877 O.3       1 ATP        -0.7970
      5 PB          1.1565   -0.9482   -6.1619 P.3       1 ATP         1.9358
      6 O1B        -0.2142   -0.3669   -6.3447 O.2       1 ATP        -0.8836
      7 O2B         1.2148   -2.5631   -6.1175 O.3       1 ATP        -0.8065
      8 O3B         2.2265   -0.5680   -7.3101 O.3       1 ATP        -0.8233
      9 PA          2.3317    0.9615   -4.2392 P.3       1 ATP         1.5686
     10 O1A         1.0779    1.7613   -3.9590 O.co2     1 ATP        -0.8169
     11 O2A         3.4167    1.5139   -5.1378 O.co2     1 ATP        -0.8169
     12 O3A         1.9029   -0.5105   -4.7977 O.3       1 ATP        -0.7987
     13 O5'         3.0197    0.5137   -2.8245 O.3       1 ATP        -0.5693
     14 C5'         2.2816   -0.2918   -1.9206 C.3       1 ATP         0.1841
     15 C4'         2.7248    0.0226   -0.4980 C.3       1 ATP         0.0904
     16 O4'         2.4697    1.4219   -0.2462 O.3       1 ATP        -0.4083
     17 C3'         1.9404   -0.7419    0.5596 C.3       1 ATP         0.0826
     18 O3'         2.7418   -0.8086    1.7389 O.3       1 ATP        -0.6106
     19 C2'         0.7477    0.1630    0.7858 C.3       1 ATP         0.1294
     20 O2'         0.1373   -0.0577    2.0407 O.3       1 ATP        -0.5701
     21 C1'         1.3733    1.5427    0.6747 C.3       1 ATP         0.3967
     22 N9          0.4520    2.5240    0.1767 N.pl3     1 ATP        -0.5600
     23 C8         -0.2172    2.5216   -0.9668 C.ar      1 ATP         0.3009
     24 N7         -1.0011    3.5855   -1.1321 N.pl3     1 ATP        -0.5113
     25 C5         -0.8184    4.3200   -0.0123 C.ar      1 ATP        -0.2824
     26 C6         -1.3349    5.5079    0.4144 C.ar      1 ATP         0.7670
     27 N6         -2.2567    6.1930   -0.4036 N.pl3     1 ATP        -0.9491
     28 N1         -0.9716    6.0291    1.6069 N.ar      1 ATP        -0.7474
     29 C2         -0.0765    5.3009    2.3312 C.ar      1 ATP         0.7118
     30 N3          0.4933    4.1191    2.0023 N.ar      1 ATP        -0.6661
     31 C4          0.0865    3.6675    0.8123 C.ar      1 ATP         0.6308
     32 HOG2        1.5770   -3.0014   -8.6831 H         1 ATP         0.4930
     33 HOG3        3.8908    0.6082   -9.3394 H         1 ATP         0.4930
     34 HOB2        2.0831   -3.0040   -6.0001 H         1 ATP         0.4808
     35 H5'1        1.2153   -0.0781   -2.0454 H         1 ATP         0.0350
     36 H5'2        2.4645   -1.3454   -2.1547 H         1 ATP         0.0350
     37 H4'         3.8050   -0.1388   -0.4008 H         1 ATP         0.1244
     38 H3'         1.6784   -1.7629    0.2714 H         1 ATP         0.0924
     39 HO3'        2.2232   -1.2979    2.3953 H         1 ATP         0.4379
     40 H2'        -0.0011    0.0027    0.0003 H         1 ATP         0.0849
     41 HO2'       -0.6141    0.5574    2.1082 H         1 ATP         0.4417
     42 H1'         1.7826    1.9024    1.6451 H         1 ATP         0.1307
     43 H8         -0.1423    1.7373   -1.6999 H         1 ATP         0.2875
     44 HN61       -2.4811    5.8206   -1.3042 H         1 ATP         0.4559
     45 HN62       -2.5986    7.0863   -0.1113 H         1 ATP         0.4559
     46 H2          0.2128    5.7222    3.2871 H         1 ATP         0.0858
     47 H47        -1.5947    3.7835   -1.9255 H         1 ATP         0.5042
@<TRIPOS>BOND
     1    1    2 2
     2    1    3 1
     3    1    4 1
     4    1    8 1
     5    3   32 1
     6    4   33 1
     7    5    6 2
     8    5    7 1
     9    5    8 1
    10    5   12 1
    11    7   34 1
    12    9   10 2
    13    9   11 1
    14    9   12 1
    15    9   13 1
    16   13   14 1
    17   14   15 1
    18   14   35 1
    19   14   36 1
    20   15   16 1
    21   15   17 1
    22   15   37 1
    23   16   21 1
    24   17   18 1
    25   17   19 1
    26   17   38 1
    27   18   39 1
    28   19   20 1
    29   19   21 1
    30   19   40 1
    31   20   41 1
    32   21   22 1
    33   21   42 1
    34   22   23 ar
    35   22   31 ar
    36   23   24 ar
    37   23   43 1
    38   24   25 ar
    39   24   47 1
    40   25   26 ar
    41   25   31 ar
    42   26   27 1
    43   26   28 ar
    44   27   44 1
    45   27   45 1
    46   28   29 ar
    47   29   30 ar
    48   29   46 1
    49   30   31 ar
@<TRIPOS>SUBSTRUCTURE
     1 ATP         1 GROUP 0 A     ****
@<TRIPOS>MOLECULE
[5-(6-amino-7,8-dihydropurin-8-ylium-9-yl)-3,4-dihydroxy-tetrahydrofuran-2-yl]methyl [hydroxy(phosphonooxy)phosphoryl] phosphate
   47    49     1     0     0
SMALL
USER_CHARGES

@<TRIPOS>ATOM
      1 PG          4.2997   -4.3745   -4.6544 P.3       1 ATP         1.8237
      2 O1G         4.6500   -4.8621   -3.2796 O.2       1 ATP        -0.8455
      3 O2G         4.6448   -5.4105   -5.8469 O.3       1 ATP        -0.7970
      4 O3G         2.7287   -4.0673   -4.8840 O.3       1 ATP        -0.7970
      5 PB          4.9987   -1.5262   -4.4846 P.3       1 ATP         1.9358
      6 O1B         5.4981   -1.4214   -3.0739 O.2       1 ATP        -0.8836
      7 O2B         5.8120   -0.6419   -5.5661 O.3       1 ATP        -0.8065
      8 O3B         5.0284   -3.0109   -5.1190 O.3       1 ATP        -0.8233
      9 PA          2.7386    0.3748   -4.4298 P.3       1 ATP         1.5686
     10 O1A         1.2524    0.2205   -4.6698 O.co2     1 ATP        -0.8169
     11 O2A         3.5296    1.4502   -5.1423 O.co2     1 ATP        -0.8169
     12 O3A         3.4667   -1.0606   -4.6985 O.3       1 ATP        -0.7987
     13 O5'         3.0197    0.5137   -2.8245 O.3       1 ATP        -0.5693
     14 C5'         2.2816   -0.2918   -1.9206 C.3       1 ATP         0.1841
     15 C4'         2.7248    0.0226   -0.4980 C.3       1 ATP         0.0904
     16 O4'         2.4697    1.4219   -0.2462 O.3       1 ATP        -0.4083
     17 C3'         1.9404   -0.7419    0.5596 C.3       1 ATP         0.0826
     18 O3'         2.7418   -0.8086    1.7389 O.3       1 ATP        -0.6106
     19 C2'         0.7477    0.1630    0.7858 C.3       1 ATP         0.1294
     20 O2'         0.1373   -0.0577    2.0407 O.3       1 ATP        -0.5701
     21 C1'         1.3733    1.5427    0.6747 C.3       1 ATP         0.3967
     22 N9          0.4520    2.5240    0.1767 N.pl3     1 ATP        -0.5600
     23 C8         -0.8602    2.5861    0.3496 C.ar      1 ATP         0.3009
     24 N7         -1.4308    3.6326   -0.2443 N.pl3     1 ATP        -0.5113
     25 C5         -0.4080    4.2856   -0.8394 C.ar      1 ATP        -0.2824
     26 C6         -0.3432    5.4196   -1.5943 C.ar      1 ATP         0.7670
     27 N6         -1.5276    6.1333   -1.8702 N.pl3     1 ATP        -0.9491
     28 N1          0.8395    5.8603   -2.0764 N.ar      1 ATP        -0.7474
     29 C2          1.9319    5.1095   -1.7617 C.ar      1 ATP         0.7118
     30 N3          1.9773    3.9761   -1.0249 N.ar      1 ATP        -0.6661
     31 C4          0.7724    3.6031   -0.5836 C.ar      1 ATP         0.6308
     32 HOG2        5.5751   -5.6936   -5.9752 H         1 ATP         0.4930
     33 HOG3        2.2907   -3.3914   -4.3239 H         1 ATP         0.4930
     34 HOB2        5.8491    0.3316   -5.4521 H         1 ATP         0.4808
     35 H5'1        1.2153   -0.0781   -2.0454 H         1 ATP         0.0350
     36 H5'2        2.4645   -1.3454   -2.1547 H         1 ATP         0.0350
     37 H4'         3.8050   -0.1388   -0.4008 H         1 ATP         0.1244
     38 H3'         1.6784   -1.7629    0.2714 H         1 ATP         0.0924
     39 HO3'        2.2232   -1.2979    2.3953 H         1 ATP         0.4379
     40 H2'        -0.0011    0.0027    0.0003 H         1 ATP         0.0849
     41 HO2'       -0.1563   -0.9855    2.0596 H         1 ATP         0.4417
     42 H1'         1.7826    1.9024    1.6451 H         1 ATP         0.1307
     43 H8         -1.4217    1.8638    0.9164 H         1 ATP         0.2875
     44 HN61       -2.4023    5.7711   -1.5477 H         1 ATP         0.4559
     45 HN62       -1.4857    6.9379   -2.4627 H         1 ATP         0.4559
     46 H2          2.8789    5.4660   -2.1503 H         1 ATP         0.0858
     47 H47        -2.4129    3.8706   -0.2402 H         1 ATP         0.5042
@<TRIPOS>BOND
     1    1    2 2
     2    1    3 1
     3    1    4 1
     4    1    8 1
     5    3   32 1
     6    4   33 1
     7    5    6 2
     8    5    7 1
     9    5    8 1
    10    5   12 1
    11    7   34 1
    12    9   10 2
    13    9   11 1
    14    9   12 1
    15    9   13 1
    16   13   14 1
    17   14   15 1
    18   14   35 1
    19   14   36 1
    20   15   16 1
    21   15   17 1
    22   15   37 1
    23   16   21 1
    24   17   18 1
    25   17   19 1
    26   17   38 1
    27   18   39 1
    28   19   20 1
    29   19   21 1
    30   19   40 1
    31   20   41 1
    32   21   22 1
    33   21   42 1
    34   22   23 ar
    35   22   31 ar
    36   23   24 ar
    37   23   43 1
    38   24   25 ar
    39   24   47 1
    40   25   26 ar
    41   25   31 ar
    42   26   27 1
    43   26   28 ar
    44   27   44 1
    45   27   45 1
    46   28   29 ar
    47   29   30 ar
    48   29   46 1
    49   30   31 ar
@<TRIPOS>SUBSTRUCTURE
     1 ATP         1 GROUP 0 A     ****
@<TRIPOS>MOLECULE
[5-(6-amino-7,8-dihydropurin-8-ylium-9-yl)-3,4-dihydroxy-tetrahydrofuran-2-yl]methyl [hydroxy(phosphonooxy)phosphoryl] phosphate
   47    49     1     0     0
SMALL
USER_CHARGES

@<TRIPOS>ATOM
      1 PG         -2.1295    1.4251   -3.9390 P.3       1 ATP         1.8237
      2 O1G        -2.9503    0.2249   -4.3083 O.2       1 ATP        -0.8455
      3 O2G        -2.9867    2.7616   -3.6329 O.3       1 ATP        -0.7970
      4 O3G        -1.2393    1.2506   -2.6002 O.3       1 ATP        -0.7970
      5 PB          0.1927    1.1425   -5.7158 P.3       1 ATP         1.9358
      6 O1B        -0.1464   -0.1162   -6.4583 O.2       1 ATP        -0.8836
      7 O2B         0.9030    2.2910   -6.6044 O.3       1 ATP        -0.8065
      8 O3B        -1.0617    1.9098   -5.0485 O.3       1 ATP        -0.8233
      9 PA          2.7386    0.3748   -4.4298 P.3       1 ATP         1.5686
     10 O1A         3.6399    1.3283   -5.1839 O.co2     1 ATP        -0.8169
     11 O2A         2.7068   -1.0976   -4.7776 O.co2     1 ATP        -0.8169
     12 O3A         1.2110    0.9462   -4.4771 O.3       1 ATP        -0.7987
     13 O5'         3.0197    0.5137   -2.8245 O.3       1 ATP        -0.5693
     14 C5'         2.2816   -0.2918   -1.9206 C.3       1 ATP         0.1841
     15 C4'         2.7248    0.0226   -0.4980 C.3       1 ATP         0.0904
     16 O4'         2.4697    1.4219   -0.2462 O.3       1 ATP        -0.4083
     17 C3'         1.9404   -0.7419    0.5596 C.3       1 ATP         0.0826
     18 O3'         2.7418   -0.8086    1.7389 O.3       1 ATP        -0.6106
     19 C2'         0.7477    0.1630    0.7858 C.3       1 ATP         0.1294
     20 O2'         0.1373   -0.0577    2.0407 O.3       1 ATP        -0.5701
     21 C1'         1.3733    1.5427    0.6747 C.3       1 ATP         0.3967
     22 N9          0.4520    2.5240    0.1767 N.pl3     1 ATP        -0.5600
     23 C8          0.5305    3.2394   -0.9358 C.ar      1 ATP         0.3009
     24 N7         -0.4966    4.0680   -1.1145 N.pl3     1 ATP        -0.5113
     25 C5         -1.2879    3.8664   -0.0375 C.ar      1 ATP        -0.2824
     26 C6         -2.4754    4.4084    0.3577 C.ar      1 ATP         0.7670
     27 N6         -3.0892    5.3882   -0.4495 N.pl3     1 ATP        -0.9491
     28 N1         -3.0632    4.0158    1.5092 N.ar      1 ATP        -0.7474
     29 C2         -2.4008    3.0654    2.2262 C.ar      1 ATP         0.7118
     30 N3         -1.2259    2.4663    1.9260 N.ar      1 ATP        -0.6661
     31 C4         -0.7062    2.9047    0.7757 C.ar      1 ATP         0.6308
     32 HOG2       -3.6440    2.7474   -2.9050 H         1 ATP         0.4930
     33 HOG3       -0.6789    1.9987   -2.3025 H         1 ATP         0.4930
     34 HOB2        1.7595    2.0931   -7.0395 H         1 ATP         0.4808
     35 H5'1        1.2153   -0.0781   -2.0454 H         1 ATP         0.0350
     36 H5'2        2.4645   -1.3454   -2.1547 H         1 ATP         0.0350
     37 H4'         3.8050   -0.1388   -0.4008 H         1 ATP         0.1244
     38 H3'         1.6784   -1.7629    0.2714 H         1 ATP         0.0924
     39 HO3'        2.2232   -1.2979    2.3953 H         1 ATP         0.4379
     40 H2'        -0.0011    0.0027    0.0003 H         1 ATP         0.0849
     41 HO2'       -0.1563   -0.9855    2.0596 H         1 ATP         0.4417
     42 H1'         1.7826    1.9024    1.6451 H         1 ATP         0.1307
     43 H8          1.3437    3.1645   -1.6367 H         1 ATP         0.2875
     44 HN61       -3.9824    5.7507   -0.1831 H         1 ATP         0.4559
     45 HN62       -2.6676    5.6358   -1.3220 H         1 ATP         0.4559
     46 H2         -2.8752    2.7532    3.1495 H         1 ATP         0.0858
     47 H47        -0.6372    4.7004   -1.8900 H         1 ATP         0.5042
@<TRIPOS>BOND
     1    1    2 2
     2    1    3 1
     3    1    4 1
     4    1    8 1
     5    3   32 1
     6    4   33 1
     7    5    6 2
     8    5    7 1
     9    5    8 1
    10    5   12 1
    11    7   34 1
    12    9   10 2
    13    9   11 1
    14    9   12 1
    15    9   13 1
    16   13   14 1
    17   14   15 1
    18   14   35 1
    19   14   36 1
    20   15   16 1
    21   15   17 1
    22   15   37 1
    23   16   21 1
    24   17   18 1
    25   17   19 1
    26   17   38 1
    27   18   39 1
    28   19   20 1
    29   19   21 1
    30   19   40 1
    31   20   41 1
    32   21   22 1
    33   21   42 1
    34   22   23 ar
    35   22   31 ar
    36   23   24 ar
    37   23   43 1
    38   24   25 ar
    39   24   47 1
    40   25   26 ar
    41   25   31 ar
    42   26   27 1
    43   26   28 ar
    44   27   44 1
    45   27   45 1
    46   28   29 ar
    47   29   30 ar
    48   29   46 1
    49   30   31 ar
@<TRIPOS>SUBSTRUCTURE
     1 ATP         1 GROUP 0 A     ****
@<TRIPOS>MOLECULE
[5-(6-amino-7,8-dihydropurin-8-ylium-9-yl)-3,4-dihydroxy-tetrahydrofuran-2-yl]methyl [hydroxy(phosphonooxy)phosphoryl] phosphate
   47    49     1     0     0
SMALL
USER_CHARGES

@<TRIPOS>ATOM
      1 PG          2.2136   -0.8430   -8.9008 P.3       1 ATP         1.8237
      2 O1G         2.1582   -2.2852   -9.3100 O.2       1 ATP        -0.8455
      3 O2G         3.5124   -0.0395   -9.4319 O.3       1 ATP        -0.7970
      4 O3G         0.9840    0.0606   -9.4364 O.3       1 ATP        -0.7970
      5 PB          1.1565   -0.9482   -6.1619 P.3       1 ATP         1.9358
      6 O1B        -0.2142   -0.3669   -6.3447 O.2       1 ATP        -0.8836
      7 O2B         1.2148   -2.5631   -6.1175 O.3       1 ATP        -0.8065
      8 O3B         2.2265   -0.5680   -7.3101 O.3       1 ATP        -0.8233
      9 PA          2.3317    0.9615   -4.2392 P.3       1 ATP         1.5686
     10 O1A         1.0779    1.7613   -3.9590 O.co2     1 ATP        -0.8169
     11 O2A         3.4167    1.5139   -5.1378 O.co2     1 ATP        -0.8169
     12 O3A         1.9029   -0.5105   -4.7977 O.3       1 ATP        -0.7987
     13 O5'         3.0197    0.5137   -2.8245 O.3       1 ATP        -0.5693
     14 C5'         2.2816   -0.2918   -1.9206 C.3       1 ATP         0.1841
     15 C4'         2.7248    0.0226   -0.4980 C.3       1 ATP         0.0904
     16 O4'         2.4697    1.4219   -0.2462 O.3       1 ATP        -0.4083
     17 C3'         1.9404   -0.7419    0.5596 C.3       1 ATP         0.0826
     18 O3'         2.7418   -0.8086    1.7389 O.3       1 ATP        -0.6106
     19 C2'         0.7477    0.1630    0.7858 C.3       1 ATP         0.1294
     20 O2'         0.1373   -0.0577    2.0407 O.3       1 ATP        -0.5701
     21 C1'         1.3733    1.5427    0.6747 C.3       1 ATP         0.3967
     22 N9          0.4520    2.5240    0.1767 N.pl3     1 ATP        -0.5600
     23 C8         -0.8602    2.5861    0.3496 C.ar      1 ATP         0.3009
     24 N7         -1.4308    3.6326   -0.2443 N.pl3     1 ATP        -0.5113
     25 C5         -0.4080    4.2856   -0.8394 C.ar      1 ATP        -0.2824
     26 C6         -0.3432    5.4196   -1.5943 C.ar      1 ATP         0.7670
     27 N6         -1.5276    6.1333   -1.8702 N.pl3     1 ATP        -0.9491
     28 N1          0.8395    5.8603   -2.0764 N.ar      1 ATP        -0.7474
     29 C2          1.9319    5.1095   -1.7617 C.ar      1 ATP         0.7118
     30 N3          1.9773    3.9761   -1.0249 N.ar      1 ATP        -0.6661
     31 C4          0.7724    3.6031   -0.5836 C.ar      1 ATP         0.6308
     32 HOG2        4.4040   -0.3490   -9.1646 H         1 ATP         0.4930
     33 HOG3        0.0698   -0.1782   -9.1725 H         1 ATP         0.4930
     34 HOB2        0.8974   -3.0713   -6.8942 H         1 ATP         0.4808
     35 H5'1        1.2153   -0.0781   -2.0454 H         1 ATP         0.0350
     36 H5'2        2.4645   -1.3454   -2.1547 H         1 ATP         0.0350
     37 H4'         3.8050   -0.1388   -0.4008 H         1 ATP         0.1244
     38 H3'         1.6784   -1.7629    0.2714 H         1 ATP         0.0924
     39 HO3'        2.2232   -1.2979    2.3953 H         1 ATP         0.4379
     40 H2'        -0.0011    0.0027    0.0003 H         1 ATP         0.0849
     41 HO2'       -0.1563   -0.9855    2.0596 H         1 ATP         0.4417
     42 H1'         1.7826    1.9024    1.6451 H         1 ATP         0.1307
     43 H8         -1.4217    1.8638    0.9164 H         1 ATP         0.2875
     44 HN61       -2.4023    5.7711   -1.5477 H         1 ATP         0.4559
     45 HN62       -1.4857    6.9379   -2.4627 H         1 ATP         0.4559
     46 H2          2.8789    5.4660   -2.1503 H         1 ATP         0.0858
     47 H47        -2.4129    3.8706   -0.2402 H         1 ATP         0.5042
@<TRIPOS>BOND
     1    1    2 2
     2    1    3 1
     3    1    4 1
     4    1    8 1
     5    3   32 1
     6    4   33 1
     7    5    6 2
     8    5    7 1
     9    5    8 1
    10    5   12 1
    11    7   34 1
    12    9   10 2
    13    9   11 1
    14    9   12 1
    15    9   13 1
    16   13   14 1
    17   14   15 1
    18   14   35 1
    19   14   36 1
    20   15   16 1
    21   15   17 1
    22   15   37 1
    23   16   21 1
    24   17   18 1
    25   17   19 1
    26   17   38 1
    27   18   39 1
    28   19   20 1
    29   19   21 1
    30   19   40 1
    31   20   41 1
    32   21   22 1
    33   21   42 1
    34   22   23 ar
    35   22   31 ar
    36   23   24 ar
    37   23   43 1
    38   24   25 ar
    39   24   47 1
    40   25   26 ar
    41   25   31 ar
    42   26   27 1
    43   26   28 ar
    44   27   44 1
    45   27   45 1
    46   28   29 ar
    47   29   30 ar
    48   29   46 1
    49   30   31 ar
@<TRIPOS>SUBSTRUCTURE
     1 ATP         1 GROUP 0 A     ****
@<TRIPOS>MOLECULE
[5-(6-amino-7,8-dihydropurin-8-ylium-9-yl)-3,4-dihydroxy-tetrahydrofuran-2-yl]methyl [hydroxy(phosphonooxy)phosphoryl] phosphate
   47    49     1     0     0
SMALL
USER_CHARGES

@<TRIPOS>ATOM
      1 PG          5.7513   -3.5951   -4.8846 P.3       1 ATP         1.8237
      2 O1G         6.9331   -3.2436   -5.7390 O.2       1 ATP        -0.8455
      3 O2G         5.6624   -5.1535   -4.4625 O.3       1 ATP        -0.7970
      4 O3G         5.6934   -2.8299   -3.4611 O.3       1 ATP        -0.7970
      5 PB          3.6381   -1.9227   -6.0539 P.3       1 ATP         1.9358
      6 O1B         4.3800   -1.2246   -7.1551 O.2       1 ATP        -0.8836
      7 O2B         2.1228   -2.3541   -6.4159 O.3       1 ATP        -0.8065
      8 O3B         4.3046   -3.2998   -5.5373 O.3       1 ATP        -0.8233
      9 PA          2.7386    0.3748   -4.4298 P.3       1 ATP         1.5686
     10 O1A         1.2524    0.2205   -4.6698 O.co2     1 ATP        -0.8169
     11 O2A         3.5296    1.4502   -5.1423 O.co2     1 ATP        -0.8169
     12 O3A         3.4667   -1.0606   -4.6985 O.3       1 ATP        -0.7987
     13 O5'         3.0197    0.5137   -2.8245 O.3       1 ATP        -0.5693
     14 C5'         2.2816   -0.2918   -1.9206 C.3       1 ATP         0.1841
     15 C4'         2.7248    0.0226   -0.4980 C.3       1 ATP         0.0904
     16 O4'         2.4697    1.4219   -0.2462 O.3       1 ATP        -0.4083
     17 C3'         1.9404   -0.7419    0.5596 C.3       1 ATP         0.0826
     18 O3'         2.7418   -0.8086    1.7389 O.3       1 ATP        -0.6106
     19 C2'         0.7477    0.1630    0.7858 C.3       1 ATP         0.1294
     20 O2'         0.1373   -0.0577    2.0407 O.3       1 ATP        -0.5701
     21 C1'         1.3733    1.5427    0.6747 C.3       1 ATP         0.3967
     22 N9          0.4520    2.5240    0.1767 N.pl3     1 ATP        -0.5600
     23 C8         -0.8602    2.5861    0.3496 C.ar      1 ATP         0.3009
     24 N7         -1.4308    3.6326   -0.2443 N.pl3     1 ATP        -0.5113
     25 C5         -0.4080    4.2856   -0.8394 C.ar      1 ATP        -0.2824
     26 C6         -0.3432    5.4196   -1.5943 C.ar      1 ATP         0.7670
     27 N6         -1.5276    6.1333   -1.8702 N.pl3     1 ATP        -0.9491
     28 N1          0.8395    5.8603   -2.0764 N.ar      1 ATP        -0.7474
     29 C2          1.9319    5.1095   -1.7617 C.ar      1 ATP         0.7118
     30 N3          1.9773    3.9761   -1.0249 N.ar      1 ATP        -0.6661
     31 C4          0.7724    3.6031   -0.5836 C.ar      1 ATP         0.6308
     32 HOG2        5.5986   -5.8330   -5.1670 H         1 ATP         0.4930
     33 HOG3        5.6521   -1.8498   -3.4508 H         1 ATP         0.4930
     34 HOB2        1.4777   -1.6586   -6.6653 H         1 ATP         0.4808
     35 H5'1        1.2153   -0.0781   -2.0454 H         1 ATP         0.0350
     36 H5'2        2.4645   -1.3454   -2.1547 H         1 ATP         0.0350
     37 H4'         3.8050   -0.1388   -0.4008 H         1 ATP         0.1244
     38 H3'         1.6784   -1.7629    0.2714 H         1 ATP         0.0924
     39 HO3'        2.2232   -1.2979    2.3953 H         1 ATP         0.4379
     40 H2'        -0.0011    0.0027    0.0003 H         1 ATP         0.0849
     41 HO2'       -0.1563   -0.9855    2.0596 H         1 ATP         0.4417
     42 H1'         1.7826    1.9024    1.6451 H         1 ATP         0.1307
     43 H8         -1.4217    1.8638    0.9164 H         1 ATP         0.2875
     44 HN61       -2.4023    5.7711   -1.5477 H         1 ATP         0.4559
     45 HN62       -1.4857    6.9379   -2.4627 H         1 ATP         0.4559
     46 H2          2.8789    5.4660   -2.1503 H         1 ATP         0.0858
     47 H47        -2.4129    3.8706   -0.2402 H         1 ATP         0.5042
@<TRIPOS>BOND
     1    1    2 2
     2    1    3 1
     3    1    4 1
     4    1    8 1
     5    3   32 1
     6    4   33 1
     7    5    6 2
     8    5    7 1
     9    5    8 1
    10    5   12 1
    11    7   34 1
    12    9   10 2
    13    9   11 1
    14    9   12 1
    15    9   13 1
    16   13   14 1
    17   14   15 1
    18   14   35 1
    19   14   36 1
    20   15   16 1
    21   15   17 1
    22   15   37 1
    23   16   21 1
    24   17   18 1
    25   17   19 1
    26   17   38 1
    27   18   39 1
    28   19   20 1
    29   19   21 1
    30   19   40 1
    31   20   41 1
    32   21   22 1
    33   21   42 1
    34   22   23 ar
    35   22   31 ar
    36   23   24 ar
    37   23   43 1
    38   24   25 ar
    39   24   47 1
    40   25   26 ar
    41   25   31 ar
    42   26   27 1
    43   26   28 ar
    44   27   44 1
    45   27   45 1
    46   28   29 ar
    47   29   30 ar
    48   29   46 1
    49   30   31 ar
@<TRIPOS>SUBSTRUCTURE
     1 ATP         1 GROUP 0 A     ****
@<TRIPOS>MOLECULE
[5-(6-amino-7,8-dihydropurin-8-ylium-9-yl)-3,4-dihydroxy-tetrahydrofuran-2-yl]methyl [hydroxy(phosphonooxy)phosphoryl] phosphate
   47    49     1     0     0
SMALL
USER_CHARGES

@<TRIPOS>ATOM
      1 PG          7.0074   -3.5804   -6.2574 P.3       1 ATP         1.8237
      2 O1G         7.8589   -4.5916   -5.5483 O.2       1 ATP        -0.8455
      3 O2G         7.8306   -2.3872   -6.9738 O.3       1 ATP        -0.7970
      4 O3G         6.1102   -4.1770   -7.4634 O.3       1 ATP        -0.7970
      5 PB          4.7074   -3.3458   -4.4449 P.3       1 ATP         1.9358
      6 O1B         3.6481   -4.0896   -5.2033 O.2       1 ATP        -0.8836
      7 O2B         5.4388   -4.1950   -3.2800 O.3       1 ATP        -0.8065
      8 O3B         5.9379   -2.7978   -5.3354 O.3       1 ATP        -0.8233
      9 PA          3.4817   -0.6663   -4.2376 P.3       1 ATP         1.5686
     10 O1A         2.1248   -1.0219   -4.8054 O.co2     1 ATP        -0.8169
     11 O2A         4.4957    0.0866   -5.0712 O.co2     1 ATP        -0.8169
     12 O3A         4.1884   -2.0246   -3.6737 O.3       1 ATP        -0.7987
     13 O5'         3.2883    0.1336   -2.8242 O.3       1 ATP        -0.5693
     14 C5'         2.2816   -0.2918   -1.9206 C.3       1 ATP         0.1841
     15 C4'         2.7248    0.0226   -0.4980 C.3       1 ATP         0.0904
     16 O4'         2.4697    1.4219   -0.2462 O.3       1 ATP        -0.4083
     17 C3'         1.9404   -0.7419    0.5596 C.3       1 ATP         0.0826
     18 O3'         2.7418   -0.8086    1.7389 O.3       1 ATP        -0.6106
     19 C2'         0.7477    0.1630    0.7858 C.3       1 ATP         0.1294
     20 O2'         0.1373   -0.0577    2.0407 O.3       1 ATP        -0.5701
     21 C1'         1.3733    1.5427    0.6747 C.3       1 ATP         0.3967
     22 N9          0.4520    2.5240    0.1767 N.pl3     1 ATP        -0.5600
     23 C8          0.5305    3.2394   -0.9358 C.ar      1 ATP         0.3009
     24 N7         -0.4966    4.0680   -1.1145 N.pl3     1 ATP        -0.5113
     25 C5         -1.2879    3.8664   -0.0375 C.ar      1 ATP        -0.2824
     26 C6         -2.4754    4.4084    0.3577 C.ar      1 ATP         0.7670
     27 N6         -3.0892    5.3882   -0.4495 N.pl3     1 ATP        -0.9491
     28 N1         -3.0632    4.0158    1.5092 N.ar      1 ATP        -0.7474
     29 C2         -2.4008    3.0654    2.2262 C.ar      1 ATP         0.7118
     30 N3         -1.2259    2.4663    1.9260 N.ar      1 ATP        -0.6661
     31 C4         -0.7062    2.9047    0.7757 C.ar      1 ATP         0.6308
     32 HOG2        8.4819   -2.6126   -7.6718 H         1 ATP         0.4930
     33 HOG3        6.5601   -4.6119   -8.2189 H         1 ATP         0.4930
     34 HOB2        5.9210   -5.0144   -3.5210 H         1 ATP         0.4808
     35 H5'1        1.3500    0.2325   -2.1560 H         1 ATP         0.0350
     36 H5'2        2.1266   -1.3683   -2.0443 H         1 ATP         0.0350
     37 H4'         3.8050   -0.1388   -0.4008 H         1 ATP         0.1244
     38 H3'         1.6784   -1.7629    0.2714 H         1 ATP         0.0924
     39 HO3'        3.5554   -1.2733    1.4914 H         1 ATP         0.4379
     40 H2'        -0.0011    0.0027    0.0003 H         1 ATP         0.0849
     41 HO2'       -0.1563   -0.9855    2.0596 H         1 ATP         0.4417
     42 H1'         1.7826    1.9024    1.6451 H         1 ATP         0.1307
     43 H8          1.3437    3.1645   -1.6367 H         1 ATP         0.2875
     44 HN61       -2.6210    5.7042   -1.2748 H         1 ATP         0.4559
     45 HN62       -3.9356    5.8187   -0.1356 H         1 ATP         0.4559
     46 H2         -2.8752    2.7532    3.1495 H         1 ATP         0.0858
     47 H47        -0.6372    4.7004   -1.8900 H         1 ATP         0.5042
@<TRIPOS>BOND
     1    1    2 2
     2    1    3 1
     3    1    4 1
     4    1    8 1
     5    3   32 1
     6    4   33 1
     7    5    6 2
     8    5    7 1
     9    5    8 1
    10    5   12 1
    11    7   34 1
    12    9   10 2
    13    9   11 1
    14    9   12 1
    15    9   13 1
    16   13   14 1
    17   14   15 1
    18   14   35 1
    19   14   36 1
    20   15   16 1
    21   15   17 1
    22   15   37 1
    23   16   21 1
    24   17   18 1
    25   17   19 1
    26   17   38 1
    27   18   39 1
    28   19   20 1
    29   19   21 1
    30   19   40 1
    31   20   41 1
    32   21   22 1
    33   21   42 1
    34   22   23 ar
    35   22   31 ar
    36   23   24 ar
    37   23   43 1
    38   24   25 ar
    39   24   47 1
    40   25   26 ar
    41   25   31 ar
    42   26   27 1
    43   26   28 ar
    44   27   44 1
    45   27   45 1
    46   28   29 ar
    47   29   30 ar
    48   29   46 1
    49   30   31 ar
@<TRIPOS>SUBSTRUCTURE
     1 ATP         1 GROUP 0 A     ****
@<TRIPOS>MOLECULE
[5-(6-amino-7,8-dihydropurin-8-ylium-9-yl)-3,4-dihydroxy-tetrahydrofuran-2-yl]methyl [hydroxy(phosphonooxy)phosphoryl] phosphate
   47    49     1     0     0
SMALL
USER_CHARGES

@<TRIPOS>ATOM
      1 PG         -2.6612   -2.9503   -2.4065 P.3       1 ATP         1.8237
      2 O1G        -2.9815   -4.4158   -2.3914 O.2       1 ATP        -0.8455
      3 O2G        -3.9326   -1.9784   -2.1753 O.3       1 ATP        -0.7970
      4 O3G        -1.6256   -2.4717   -1.2603 O.3       1 ATP        -0.7970
      5 PB         -0.6370   -2.7934   -4.5297 P.3       1 ATP         1.9358
      6 O1B        -0.5381   -4.2273   -4.9593 O.2       1 ATP        -0.8836
      7 O2B        -0.5427   -1.7120   -5.7275 O.3       1 ATP        -0.8065
      8 O3B        -2.0055   -2.3924   -3.7722 O.3       1 ATP        -0.8233
      9 PA          2.1361   -2.2694   -3.6576 P.3       1 ATP         1.5686
     10 O1A         2.4968   -1.2636   -4.7294 O.co2     1 ATP        -0.8169
     11 O2A         2.6449   -3.6926   -3.7300 O.co2     1 ATP        -0.8169
     12 O3A         0.5124   -2.3123   -3.5015 O.3       1 ATP        -0.7987
     13 O5'         2.5237   -1.6631   -2.1889 O.3       1 ATP        -0.5693
     14 C5'         2.2816   -0.2918   -1.9206 C.3       1 ATP         0.1841
     15 C4'         2.7248    0.0226   -0.4980 C.3       1 ATP         0.0904
     16 O4'         2.4697    1.4219   -0.2462 O.3       1 ATP        -0.4083
     17 C3'         1.9404   -0.7419    0.5596 C.3       1 ATP         0.0826
     18 O3'         2.7418   -0.8086    1.7389 O.3       1 ATP        -0.6106
     19 C2'         0.7477    0.1630    0.7858 C.3       1 ATP         0.1294
     20 O2'         0.1373   -0.0577    2.0407 O.3       1 ATP        -0.5701
     21 C1'         1.3733    1.5427    0.6747 C.3       1 ATP         0.3967
     22 N9          0.4520    2.5240    0.1767 N.pl3     1 ATP        -0.5600
     23 C8         -0.8602    2.5861    0.3496 C.ar      1 ATP         0.3009
     24 N7         -1.4308    3.6326   -0.2443 N.pl3     1 ATP        -0.5113
     25 C5         -0.4080    4.2856   -0.8394 C.ar      1 ATP        -0.2824
     26 C6         -0.3432    5.4196   -1.5943 C.ar      1 ATP         0.7670
     27 N6         -1.5276    6.1333   -1.8702 N.pl3     1 ATP        -0.9491
     28 N1          0.8395    5.8603   -2.0764 N.ar      1 ATP        -0.7474
     29 C2          1.9319    5.1095   -1.7617 C.ar      1 ATP         0.7118
     30 N3          1.9773    3.9761   -1.0249 N.ar      1 ATP        -0.6661
     31 C4          0.7724    3.6031   -0.5836 C.ar      1 ATP         0.6308
     32 HOG2       -4.6811   -2.0176   -2.8081 H         1 ATP         0.4930
     33 HOG3       -0.7266   -2.8639   -1.2396 H         1 ATP         0.4930
     34 HOB2        0.2662   -1.6865   -6.2818 H         1 ATP         0.4808
     35 H5'1        2.8429    0.3140   -2.6391 H         1 ATP         0.0350
     36 H5'2        1.2125   -0.0906   -2.0420 H         1 ATP         0.0350
     37 H4'         3.8050   -0.1388   -0.4008 H         1 ATP         0.1244
     38 H3'         1.6784   -1.7629    0.2714 H         1 ATP         0.0924
     39 HO3'        2.2232   -1.2979    2.3953 H         1 ATP         0.4379
     40 H2'        -0.0011    0.0027    0.0003 H         1 ATP         0.0849
     41 HO2'       -0.1563   -0.9855    2.0596 H         1 ATP         0.4417
     42 H1'         1.7826    1.9024    1.6451 H         1 ATP         0.1307
     43 H8         -1.4217    1.8638    0.9164 H         1 ATP         0.2875
     44 HN61       -2.4023    5.7711   -1.5477 H         1 ATP         0.4559
     45 HN62       -1.4857    6.9379   -2.4627 H         1 ATP         0.4559
     46 H2          2.8789    5.4660   -2.1503 H         1 ATP         0.0858
     47 H47        -2.4129    3.8706   -0.2402 H         1 ATP         0.5042
@<TRIPOS>BOND
     1    1    2 2
     2    1    3 1
     3    1    4 1
     4    1    8 1
     5    3   32 1
     6    4   33 1
     7    5    6 2
     8    5    7 1
     9    5    8 1
    10    5   12 1
    11    7   34 1
    12    9   10 2
    13    9   11 1
    14    9   12 1
    15    9   13 1
    16   13   14 1
    17   14   15 1
    18   14   35 1
    19   14   36 1
    20   15   16 1
    21   15   17 1
    22   15   37 1
    23   16   21 1
    24   17   18 1
    25   17   19 1
    26   17   38 1
    27   18   39 1
    28   19   20 1
    29   19   21 1
    30   19   40 1
    31   20   41 1
    32   21   22 1
    33   21   42 1
    34   22   23 ar
    35   22   31 ar
    36   23   24 ar
    37   23   43 1
    38   24   25 ar
    39   24   47 1
    40   25   26 ar
    41   25   31 ar
    42   26   27 1
    43   26   28 ar
    44   27   44 1
    45   27   45 1
    46   28   29 ar
    47   29   30 ar
    48   29   46 1
    49   30   31 ar
@<TRIPOS>SUBSTRUCTURE
     1 ATP         1 GROUP 0 A     ****
@<TRIPOS>MOLECULE
[5-(6-amino-7,8-dihydropurin-8-ylium-9-yl)-3,4-dihydroxy-tetrahydrofuran-2-yl]methyl [hydroxy(phosphonooxy)phosphoryl] phosphate
   47    49     1     0     0
SMALL
USER_CHARGES

@<TRIPOS>ATOM
      1 PG         -2.7679   -1.4423   -3.1008 P.3       1 ATP         1.8237
      2 O1G        -2.1585   -0.3632   -3.9462 O.2       1 ATP        -0.8455
      3 O2G        -3.0105   -1.0337   -1.5553 O.3       1 ATP        -0.7970
      4 O3G        -4.2324   -1.9325   -3.5806 O.3       1 ATP        -0.7970
      5 PB         -0.4287   -3.0949   -2.4472 P.3       1 ATP         1.9358
      6 O1B        -0.1977   -2.7359   -1.0090 O.2       1 ATP        -0.8836
      7 O2B        -0.1845   -4.6506   -2.8121 O.3       1 ATP        -0.8065
      8 O3B        -1.9200   -2.8123   -2.9984 O.3       1 ATP        -0.8233
      9 PA          2.1361   -2.2694   -3.6576 P.3       1 ATP         1.5686
     10 O1A         2.4968   -1.2636   -4.7294 O.co2     1 ATP        -0.8169
     11 O2A         2.6449   -3.6926   -3.7300 O.co2     1 ATP        -0.8169
     12 O3A         0.5124   -2.3123   -3.5015 O.3       1 ATP        -0.7987
     13 O5'         2.5237   -1.6631   -2.1889 O.3       1 ATP        -0.5693
     14 C5'         2.2816   -0.2918   -1.9206 C.3       1 ATP         0.1841
     15 C4'         2.7248    0.0226   -0.4980 C.3       1 ATP         0.0904
     16 O4'         2.4697    1.4219   -0.2462 O.3       1 ATP        -0.4083
     17 C3'         1.9404   -0.7419    0.5596 C.3       1 ATP         0.0826
     18 O3'         2.7418   -0.8086    1.7389 O.3       1 ATP        -0.6106
     19 C2'         0.7477    0.1630    0.7858 C.3       1 ATP         0.1294
     20 O2'         0.1373   -0.0577    2.0407 O.3       1 ATP        -0.5701
     21 C1'         1.3733    1.5427    0.6747 C.3       1 ATP         0.3967
     22 N9          0.4520    2.5240    0.1767 N.pl3     1 ATP        -0.5600
     23 C8         -0.8602    2.5861    0.3496 C.ar      1 ATP         0.3009
     24 N7         -1.4308    3.6326   -0.2443 N.pl3     1 ATP        -0.5113
     25 C5         -0.4080    4.2856   -0.8394 C.ar      1 ATP        -0.2824
     26 C6         -0.3432    5.4196   -1.5943 C.ar      1 ATP         0.7670
     27 N6         -1.5276    6.1333   -1.8702 N.pl3     1 ATP        -0.9491
     28 N1          0.8395    5.8603   -2.0764 N.ar      1 ATP        -0.7474
     29 C2          1.9319    5.1095   -1.7617 C.ar      1 ATP         0.7118
     30 N3          1.9773    3.9761   -1.0249 N.ar      1 ATP        -0.6661
     31 C4          0.7724    3.6031   -0.5836 C.ar      1 ATP         0.6308
     32 HOG2       -2.2402   -0.7726   -1.0070 H         1 ATP         0.4930
     33 HOG3       -4.3345   -2.3128   -4.4791 H         1 ATP         0.4930
     34 HOB2        0.7031   -5.0401   -2.6617 H         1 ATP         0.4808
     35 H5'1        2.8429    0.3140   -2.6391 H         1 ATP         0.0350
     36 H5'2        1.2125   -0.0906   -2.0420 H         1 ATP         0.0350
     37 H4'         3.8050   -0.1388   -0.4008 H         1 ATP         0.1244
     38 H3'         1.6784   -1.7629    0.2714 H         1 ATP         0.0924
     39 HO3'        2.2232   -1.2979    2.3953 H         1 ATP         0.4379
     40 H2'        -0.0011    0.0027    0.0003 H         1 ATP         0.0849
     41 HO2'       -0.1563   -0.9855    2.0596 H         1 ATP         0.4417
     42 H1'         1.7826    1.9024    1.6451 H         1 ATP         0.1307
     43 H8         -1.4217    1.8638    0.9164 H         1 ATP         0.2875
     44 HN61       -2.4023    5.7711   -1.5477 H         1 ATP         0.4559
     45 HN62       -1.4857    6.9379   -2.4627 H         1 ATP         0.4559
     46 H2          2.8789    5.4660   -2.1503 H         1 ATP         0.0858
     47 H47        -2.4129    3.8706   -0.2402 H         1 ATP         0.5042
@<TRIPOS>BOND
     1    1    2 2
     2    1    3 1
     3    1    4 1
     4    1    8 1
     5    3   32 1
     6    4   33 1
     7    5    6 2
     8    5    7 1
     9    5    8 1
    10    5   12 1
    11    7   34 1
    12    9   10 2
    13    9   11 1
    14    9   12 1
    15    9   13 1
    16   13   14 1
    17   14   15 1
    18   14   35 1
    19   14   36 1
    20   15   16 1
    21   15   17 1
    22   15   37 1
    23   16   21 1
    24   17   18 1
    25   17   19 1
    26   17   38 1
    27   18   39 1
    28   19   20 1
    29   19   21 1
    30   19   40 1
    31   20   41 1
    32   21   22 1
    33   21   42 1
    34   22   23 ar
    35   22   31 ar
    36   23   24 ar
    37   23   43 1
    38   24   25 ar
    39   24   47 1
    40   25   26 ar
    41   25   31 ar
    42   26   27 1
    43   26   28 ar
    44   27   44 1
    45   27   45 1
    46   28   29 ar
    47   29   30 ar
    48   29   46 1
    49   30   31 ar
@<TRIPOS>SUBSTRUCTURE
     1 ATP         1 GROUP 0 A     ****
@<TRIPOS>MOLECULE
[5-(6-amino-7,8-dihydropurin-8-ylium-9-yl)-3,4-dihydroxy-tetrahydrofuran-2-yl]methyl [hydroxy(phosphonooxy)phosphoryl] phosphate
   47    49     1     0     0
SMALL
USER_CHARGES

@<TRIPOS>ATOM
      1 PG         -1.2086    2.6273   -6.4257 P.3       1 ATP         1.8237
      2 O1G        -0.8511    3.2534   -7.7412 O.2       1 ATP        -0.8455
      3 O2G        -2.0793    3.5710   -5.4428 O.3       1 ATP        -0.7970
      4 O3G        -2.1096    1.2888   -6.5353 O.3       1 ATP        -0.7970
      5 PB          1.2515    3.0326   -4.8721 P.3       1 ATP         1.9358
      6 O1B         2.1234    3.7410   -5.8664 O.2       1 ATP        -0.8836
      7 O2B         0.5118    3.9937   -3.8034 O.3       1 ATP        -0.8065
      8 O3B         0.0382    2.1754   -5.5050 O.3       1 ATP        -0.8233
      9 PA          2.8596    0.6156   -4.3272 P.3       1 ATP         1.5686
     10 O1A         4.0970    1.0195   -5.0992 O.co2     1 ATP        -0.8169
     11 O2A         1.8939   -0.4034   -4.8921 O.co2     1 ATP        -0.8169
     12 O3A         2.0190    1.9594   -3.9400 O.3       1 ATP        -0.7987
     13 O5'         3.2883    0.1336   -2.8242 O.3       1 ATP        -0.5693
     14 C5'         2.2816   -0.2918   -1.9206 C.3       1 ATP         0.1841
     15 C4'         2.7248    0.0226   -0.4980 C.3       1 ATP         0.0904
     16 O4'         2.4697    1.4219   -0.2462 O.3       1 ATP        -0.4083
     17 C3'         1.9404   -0.7419    0.5596 C.3       1 ATP         0.0826
     18 O3'         2.7418   -0.8086    1.7389 O.3       1 ATP        -0.6106
     19 C2'         0.7477    0.1630    0.7858 C.3       1 ATP         0.1294
     20 O2'         0.1373   -0.0577    2.0407 O.3       1 ATP        -0.5701
     21 C1'         1.3733    1.5427    0.6747 C.3       1 ATP         0.3967
     22 N9          0.4520    2.5240    0.1767 N.pl3     1 ATP        -0.5600
     23 C8          0.1928    2.8484   -1.0815 C.ar      1 ATP         0.3009
     24 N7         -0.7248    3.8048   -1.2110 N.pl3     1 ATP        -0.5113
     25 C5         -1.0765    4.1129    0.0571 C.ar      1 ATP        -0.2824
     26 C6         -1.9614    5.0063    0.5851 C.ar      1 ATP         0.7670
     27 N6         -2.7145    5.8254   -0.2810 N.pl3     1 ATP        -0.9491
     28 N1         -2.1199    5.1113    1.9228 N.ar      1 ATP        -0.7474
     29 C2         -1.3522    4.2822    2.6839 C.ar      1 ATP         0.7118
     30 N3         -0.4501    3.3660    2.2638 N.ar      1 ATP        -0.6661
     31 C4         -0.3487    3.3198    0.9322 C.ar      1 ATP         0.6308
     32 HOG2       -2.3474    3.2232   -4.5657 H         1 ATP         0.4930
     33 HOG3       -1.7538    0.5164   -7.0244 H         1 ATP         0.4930
     34 HOB2       -0.1015    4.6854   -4.1315 H         1 ATP         0.4808
     35 H5'1        1.3500    0.2325   -2.1560 H         1 ATP         0.0350
     36 H5'2        2.1266   -1.3683   -2.0443 H         1 ATP         0.0350
     37 H4'         3.8050   -0.1388   -0.4008 H         1 ATP         0.1244
     38 H3'         1.6784   -1.7629    0.2714 H         1 ATP         0.0924
     39 HO3'        3.5554   -1.2733    1.4914 H         1 ATP         0.4379
     40 H2'        -0.0011    0.0027    0.0003 H         1 ATP         0.0849
     41 HO2'       -0.1563   -0.9855    2.0596 H         1 ATP         0.4417
     42 H1'         1.7826    1.9024    1.6451 H         1 ATP         0.1307
     43 H8          0.6728    2.3873   -1.9272 H         1 ATP         0.2875
     44 HN61       -2.5537    5.7714   -1.2667 H         1 ATP         0.4559
     45 HN62       -3.3282    6.5126    0.1080 H         1 ATP         0.4559
     46 H2         -1.4818    4.3694    3.7565 H         1 ATP         0.0858
     47 H47        -1.0701    4.2005   -2.0743 H         1 ATP         0.5042
@<TRIPOS>BOND
     1    1    2 2
     2    1    3 1
     3    1    4 1
     4    1    8 1
     5    3   32 1
     6    4   33 1
     7    5    6 2
     8    5    7 1
     9    5    8 1
    10    5   12 1
    11    7   34 1
    12    9   10 2
    13    9   11 1
    14    9   12 1
    15    9   13 1
    16   13   14 1
    17   14   15 1
    18   14   35 1
    19   14   36 1
    20   15   16 1
    21   15   17 1
    22   15   37 1
    23   16   21 1
    24   17   18 1
    25   17   19 1
    26   17   38 1
    27   18   39 1
    28   19   20 1
    29   19   21 1
    30   19   40 1
    31   20   41 1
    32   21   22 1
    33   21   42 1
    34   22   23 ar
    35   22   31 ar
    36   23   24 ar
    37   23   43 1
    38   24   25 ar
    39   24   47 1
    40   25   26 ar
    41   25   31 ar
    42   26   27 1
    43   26   28 ar
    44   27   44 1
    45   27   45 1
    46   28   29 ar
    47   29   30 ar
    48   29   46 1
    49   30   31 ar
@<TRIPOS>SUBSTRUCTURE
     1 ATP         1 GROUP 0 A     ****
@<TRIPOS>MOLECULE
[5-(6-amino-7,8-dihydropurin-8-ylium-9-yl)-3,4-dihydroxy-tetrahydrofuran-2-yl]methyl [hydroxy(phosphonooxy)phosphoryl] phosphate
   47    49     1     0     0
SMALL
USER_CHARGES

@<TRIPOS>ATOM
      1 PG          1.9846   -3.7232   -5.9643 P.3       1 ATP         1.8237
      2 O1G         0.6581   -3.2755   -5.4257 O.2       1 ATP        -0.8455
      3 O2G         2.8372   -4.6647   -4.9637 O.3       1 ATP        -0.7970
      4 O3G         1.9029   -4.6094   -7.3146 O.3       1 ATP        -0.7970
      5 PB          3.6767   -1.3809   -5.4346 P.3       1 ATP         1.9358
      6 O1B         4.5029   -1.8605   -4.2780 O.2       1 ATP        -0.8836
      7 O2B         4.4683   -0.4698   -6.5100 O.3       1 ATP        -0.8065
      8 O3B         3.0195   -2.5433   -6.3427 O.3       1 ATP        -0.8233
      9 PA          2.3317    0.9615   -4.2392 P.3       1 ATP         1.5686
     10 O1A         0.8779    1.3102   -4.0045 O.co2     1 ATP        -0.8169
     11 O2A         3.2600    1.9386   -4.9272 O.co2     1 ATP        -0.8169
     12 O3A         2.4099   -0.4638   -5.0296 O.3       1 ATP        -0.7987
     13 O5'         3.0197    0.5137   -2.8245 O.3       1 ATP        -0.5693
     14 C5'         2.2816   -0.2918   -1.9206 C.3       1 ATP         0.1841
     15 C4'         2.7248    0.0226   -0.4980 C.3       1 ATP         0.0904
     16 O4'         2.4697    1.4219   -0.2462 O.3       1 ATP        -0.4083
     17 C3'         1.9404   -0.7419    0.5596 C.3       1 ATP         0.0826
     18 O3'         2.7418   -0.8086    1.7389 O.3       1 ATP        -0.6106
     19 C2'         0.7477    0.1630    0.7858 C.3       1 ATP         0.1294
     20 O2'         0.1373   -0.0577    2.0407 O.3       1 ATP        -0.5701
     21 C1'         1.3733    1.5427    0.6747 C.3       1 ATP         0.3967
     22 N9          0.4520    2.5240    0.1767 N.pl3     1 ATP        -0.5600
     23 C8         -0.8602    2.5861    0.3496 C.ar      1 ATP         0.3009
     24 N7         -1.4308    3.6326   -0.2443 N.pl3     1 ATP        -0.5113
     25 C5         -0.4080    4.2856   -0.8394 C.ar      1 ATP        -0.2824
     26 C6         -0.3432    5.4196   -1.5943 C.ar      1 ATP         0.7670
     27 N6         -1.5276    6.1333   -1.8702 N.pl3     1 ATP        -0.9491
     28 N1          0.8395    5.8603   -2.0764 N.ar      1 ATP        -0.7474
     29 C2          1.9319    5.1095   -1.7617 C.ar      1 ATP         0.7118
     30 N3          1.9773    3.9761   -1.0249 N.ar      1 ATP        -0.6661
     31 C4          0.7724    3.6031   -0.5836 C.ar      1 ATP         0.6308
     32 HOG2        3.0960   -4.3121   -4.0857 H         1 ATP         0.4930
     33 HOG3        1.4938   -4.2171   -8.1153 H         1 ATP         0.4930
     34 HOB2        4.8780    0.3698   -6.2111 H         1 ATP         0.4808
     35 H5'1        1.2153   -0.0781   -2.0454 H         1 ATP         0.0350
     36 H5'2        2.4645   -1.3454   -2.1547 H         1 ATP         0.0350
     37 H4'         3.8050   -0.1388   -0.4008 H         1 ATP         0.1244
     38 H3'         1.6784   -1.7629    0.2714 H         1 ATP         0.0924
     39 HO3'        2.2232   -1.2979    2.3953 H         1 ATP         0.4379
     40 H2'        -0.0011    0.0027    0.0003 H         1 ATP         0.0849
     41 HO2'       -0.1563   -0.9855    2.0596 H         1 ATP         0.4417
     42 H1'         1.7826    1.9024    1.6451 H         1 ATP         0.1307
     43 H8         -1.4217    1.8638    0.9164 H         1 ATP         0.2875
     44 HN61       -2.4023    5.7711   -1.5477 H         1 ATP         0.4559
     45 HN62       -1.4857    6.9379   -2.4627 H         1 ATP         0.4559
     46 H2          2.8789    5.4660   -2.1503 H         1 ATP         0.0858
     47 H47        -2.4129    3.8706   -0.2402 H         1 ATP         0.5042
@<TRIPOS>BOND
     1    1    2 2
     2    1    3 1
     3    1    4 1
     4    1    8 1
     5    3   32 1
     6    4   33 1
     7    5    6 2
     8    5    7 1
     9    5    8 1
    10    5   12 1
    11    7   34 1
    12    9   10 2
    13    9   11 1
    14    9   12 1
    15    9   13 1
    16   13   14 1
    17   14   15 1
    18   14   35 1
    19   14   36 1
    20   15   16 1
    21   15   17 1
    22   15   37 1
    23   16   21 1
    24   17   18 1
    25   17   19 1
    26   17   38 1
    27   18   39 1
    28   19   20 1
    29   19   21 1
    30   19   40 1
    31   20   41 1
    32   21   22 1
    33   21   42 1
    34   22   23 ar
    35   22   31 ar
    36   23   24 ar
    37   23   43 1
    38   24   25 ar
    39   24   47 1
    40   25   26 ar
    41   25   31 ar
    42   26   27 1
    43   26   28 ar
    44   27   44 1
    45   27   45 1
    46   28   29 ar
    47   29   30 ar
    48   29   46 1
    49   30   31 ar
@<TRIPOS>SUBSTRUCTURE
     1 ATP         1 GROUP 0 A     ****
@<TRIPOS>MOLECULE
[5-(6-amino-7,8-dihydropurin-8-ylium-9-yl)-3,4-dihydroxy-tetrahydrofuran-2-yl]methyl [hydroxy(phosphonooxy)phosphoryl] phosphate
   47    49     1     0     0
SMALL
USER_CHARGES

@<TRIPOS>ATOM
      1 PG         -2.7679   -1.4423   -3.1008 P.3       1 ATP         1.8237
      2 O1G        -3.0222   -0.7373   -1.8014 O.2       1 ATP        -0.8455
      3 O2G        -4.1012   -1.8842   -3.9019 O.3       1 ATP        -0.7970
      4 O3G        -1.9583   -0.5712   -4.1967 O.3       1 ATP        -0.7970
      5 PB         -0.4287   -3.0949   -2.4472 P.3       1 ATP         1.9358
      6 O1B        -0.1977   -2.7359   -1.0090 O.2       1 ATP        -0.8836
      7 O2B        -0.1845   -4.6506   -2.8121 O.3       1 ATP        -0.8065
      8 O3B        -1.9200   -2.8123   -2.9984 O.3       1 ATP        -0.8233
      9 PA          2.1361   -2.2694   -3.6576 P.3       1 ATP         1.5686
     10 O1A         2.4968   -1.2636   -4.7294 O.co2     1 ATP        -0.8169
     11 O2A         2.6449   -3.6926   -3.7300 O.co2     1 ATP        -0.8169
     12 O3A         0.5124   -2.3123   -3.5015 O.3       1 ATP        -0.7987
     13 O5'         2.5237   -1.6631   -2.1889 O.3       1 ATP        -0.5693
     14 C5'         2.2816   -0.2918   -1.9206 C.3       1 ATP         0.1841
     15 C4'         2.7248    0.0226   -0.4980 C.3       1 ATP         0.0904
     16 O4'         2.4697    1.4219   -0.2462 O.3       1 ATP        -0.4083
     17 C3'         1.9404   -0.7419    0.5596 C.3       1 ATP         0.0826
     18 O3'         2.7418   -0.8086    1.7389 O.3       1 ATP        -0.6106
     19 C2'         0.7477    0.1630    0.7858 C.3       1 ATP         0.1294
     20 O2'         0.1373   -0.0577    2.0407 O.3       1 ATP        -0.5701
     21 C1'         1.3733    1.5427    0.6747 C.3       1 ATP         0.3967
     22 N9          0.4520    2.5240    0.1767 N.pl3     1 ATP        -0.5600
     23 C8         -0.3477    3.3274    0.8626 C.ar      1 ATP         0.3009
     24 N7         -1.0836    4.1323    0.0983 N.pl3     1 ATP        -0.5113
     25 C5         -0.7273    3.8194   -1.1674 C.ar      1 ATP        -0.2824
     26 C6         -1.1208    4.2877   -2.3863 C.ar      1 ATP         0.7670
     27 N6         -2.0932    5.3066   -2.4528 N.pl3     1 ATP        -0.9491
     28 N1         -0.5892    3.7853   -3.5223 N.ar      1 ATP        -0.7474
     29 C2          0.3427    2.8040   -3.3648 C.ar      1 ATP         0.7118
     30 N3          0.8012    2.2709   -2.2093 N.ar      1 ATP        -0.6661
     31 C4          0.2307    2.8167   -1.1312 C.ar      1 ATP         0.6308
     32 HOG2       -4.7321   -2.4990   -3.4705 H         1 ATP         0.4930
     33 HOG3       -1.0590   -0.2479   -3.9753 H         1 ATP         0.4930
     34 HOB2        0.7031   -5.0401   -2.6617 H         1 ATP         0.4808
     35 H5'1        2.8429    0.3140   -2.6391 H         1 ATP         0.0350
     36 H5'2        1.2125   -0.0906   -2.0420 H         1 ATP         0.0350
     37 H4'         3.8050   -0.1388   -0.4008 H         1 ATP         0.1244
     38 H3'         1.6784   -1.7629    0.2714 H         1 ATP         0.0924
     39 HO3'        2.2232   -1.2979    2.3953 H         1 ATP         0.4379
     40 H2'        -0.0011    0.0027    0.0003 H         1 ATP         0.0849
     41 HO2'       -0.6141    0.5574    2.1082 H         1 ATP         0.4417
     42 H1'         1.7826    1.9024    1.6451 H         1 ATP         0.1307
     43 H8         -0.4040    3.3373    1.9373 H         1 ATP         0.2875
     44 HN61       -2.5133    5.6366   -1.6073 H         1 ATP         0.4559
     45 HN62       -2.4153    5.6161   -3.3477 H         1 ATP         0.4559
     46 H2          0.7668    2.4032   -4.2782 H         1 ATP         0.0858
     47 H47        -1.7549    4.8194    0.4122 H         1 ATP         0.5042
@<TRIPOS>BOND
     1    1    2 2
     2    1    3 1
     3    1    4 1
     4    1    8 1
     5    3   32 1
     6    4   33 1
     7    5    6 2
     8    5    7 1
     9    5    8 1
    10    5   12 1
    11    7   34 1
    12    9   10 2
    13    9   11 1
    14    9   12 1
    15    9   13 1
    16   13   14 1
    17   14   15 1
    18   14   35 1
    19   14   36 1
    20   15   16 1
    21   15   17 1
    22   15   37 1
    23   16   21 1
    24   17   18 1
    25   17   19 1
    26   17   38 1
    27   18   39 1
    28   19   20 1
    29   19   21 1
    30   19   40 1
    31   20   41 1
    32   21   22 1
    33   21   42 1
    34   22   23 ar
    35   22   31 ar
    36   23   24 ar
    37   23   43 1
    38   24   25 ar
    39   24   47 1
    40   25   26 ar
    41   25   31 ar
    42   26   27 1
    43   26   28 ar
    44   27   44 1
    45   27   45 1
    46   28   29 ar
    47   29   30 ar
    48   29   46 1
    49   30   31 ar
@<TRIPOS>SUBSTRUCTURE
     1 ATP         1 GROUP 0 A     ****
@<TRIPOS>MOLECULE
[5-(6-amino-7,8-dihydropurin-8-ylium-9-yl)-3,4-dihydroxy-tetrahydrofuran-2-yl]methyl [hydroxy(phosphonooxy)phosphoryl] phosphate
   47    49     1     0     0
SMALL
USER_CHARGES

@<TRIPOS>ATOM
      1 PG          2.9676    4.6798   -5.9359 P.3       1 ATP         1.8237
      2 O1G         3.4654    5.5746   -4.8396 O.2       1 ATP        -0.8455
      3 O2G         1.5737    5.1472   -6.6090 O.3       1 ATP        -0.7970
      4 O3G         3.9589    4.5505   -7.2071 O.3       1 ATP        -0.7970
      5 PB          1.6774    2.5206   -4.4181 P.3       1 ATP         1.9358
      6 O1B         1.9097    2.9649   -3.0042 O.2       1 ATP        -0.8836
      7 O2B         0.2155    2.8691   -5.0136 O.3       1 ATP        -0.8065
      8 O3B         2.6852    3.1475   -5.5132 O.3       1 ATP        -0.8233
      9 PA          3.0648   -0.0870   -4.4293 P.3       1 ATP         1.5686
     10 O1A         4.2654    0.4430   -5.1830 O.co2     1 ATP        -0.8169
     11 O2A         2.5779   -1.5030   -4.6479 O.co2     1 ATP        -0.8169
     12 O3A         1.8088    0.9287   -4.6595 O.3       1 ATP        -0.7987
     13 O5'         3.2883    0.1336   -2.8242 O.3       1 ATP        -0.5693
     14 C5'         2.2816   -0.2918   -1.9206 C.3       1 ATP         0.1841
     15 C4'         2.7248    0.0226   -0.4980 C.3       1 ATP         0.0904
     16 O4'         2.4697    1.4219   -0.2462 O.3       1 ATP        -0.4083
     17 C3'         1.9404   -0.7419    0.5596 C.3       1 ATP         0.0826
     18 O3'         2.7418   -0.8086    1.7389 O.3       1 ATP        -0.6106
     19 C2'         0.7477    0.1630    0.7858 C.3       1 ATP         0.1294
     20 O2'         0.1373   -0.0577    2.0407 O.3       1 ATP        -0.5701
     21 C1'         1.3733    1.5427    0.6747 C.3       1 ATP         0.3967
     22 N9          0.4520    2.5240    0.1767 N.pl3     1 ATP        -0.5600
     23 C8         -0.5899    2.3466   -0.6224 C.ar      1 ATP         0.3009
     24 N7         -1.2514    3.4689   -0.8989 N.pl3     1 ATP        -0.5113
     25 C5         -0.5826    4.4323   -0.2272 C.ar      1 ATP        -0.2824
     26 C6         -0.7636    5.7789   -0.1086 C.ar      1 ATP         0.7670
     27 N6         -1.8382    6.3927   -0.7843 N.pl3     1 ATP        -0.9491
     28 N1          0.0741    6.5233    0.6461 N.ar      1 ATP        -0.7474
     29 C2          1.0845    5.8486    1.2626 C.ar      1 ATP         0.7118
     30 N3          1.3516    4.5236    1.2116 N.ar      1 ATP        -0.6661
     31 C4          0.4827    3.8546    0.4481 C.ar      1 ATP         0.6308
     32 HOG2        1.1914    4.6066   -7.3327 H         1 ATP         0.4930
     33 HOG3        4.8640    4.1984   -7.0688 H         1 ATP         0.4930
     34 HOB2       -0.0658    3.8075   -5.0631 H         1 ATP         0.4808
     35 H5'1        1.3500    0.2325   -2.1560 H         1 ATP         0.0350
     36 H5'2        2.1266   -1.3683   -2.0443 H         1 ATP         0.0350
     37 H4'         3.8050   -0.1388   -0.4008 H         1 ATP         0.1244
     38 H3'         1.6784   -1.7629    0.2714 H         1 ATP         0.0924
     39 HO3'        2.2232   -1.2979    2.3953 H         1 ATP         0.4379
     40 H2'        -0.0011    0.0027    0.0003 H         1 ATP         0.0849
     41 HO2'       -0.1563   -0.9855    2.0596 H         1 ATP         0.4417
     42 H1'         1.7826    1.9024    1.6451 H         1 ATP         0.1307
     43 H8         -0.8833    1.3888   -1.0158 H         1 ATP         0.2875
     44 HN61       -2.4225    5.8385   -1.3773 H         1 ATP         0.4559
     45 HN62       -1.9421    7.3862   -0.7348 H         1 ATP         0.4559
     46 H2          1.7546    6.4491    1.8670 H         1 ATP         0.0858
     47 H47        -2.0705    3.5612   -1.4834 H         1 ATP         0.5042
@<TRIPOS>BOND
     1    1    2 2
     2    1    3 1
     3    1    4 1
     4    1    8 1
     5    3   32 1
     6    4   33 1
     7    5    6 2
     8    5    7 1
     9    5    8 1
    10    5   12 1
    11    7   34 1
    12    9   10 2
    13    9   11 1
    14    9   12 1
    15    9   13 1
    16   13   14 1
    17   14   15 1
    18   14   35 1
    19   14   36 1
    20   15   16 1
    21   15   17 1
    22   15   37 1
    23   16   21 1
    24   17   18 1
    25   17   19 1
    26   17   38 1
    27   18   39 1
    28   19   20 1
    29   19   21 1
    30   19   40 1
    31   20   41 1
    32   21   22 1
    33   21   42 1
    34   22   23 ar
    35   22   31 ar
    36   23   24 ar
    37   23   43 1
    38   24   25 ar
    39   24   47 1
    40   25   26 ar
    41   25   31 ar
    42   26   27 1
    43   26   28 ar
    44   27   44 1
    45   27   45 1
    46   28   29 ar
    47   29   30 ar
    48   29   46 1
    49   30   31 ar
@<TRIPOS>SUBSTRUCTURE
     1 ATP         1 GROUP 0 A     ****
@<TRIPOS>MOLECULE
[5-(6-amino-7,8-dihydropurin-8-ylium-9-yl)-3,4-dihydroxy-tetrahydrofuran-2-yl]methyl [hydroxy(phosphonooxy)phosphoryl] phosphate
   47    49     1     0     0
SMALL
USER_CHARGES

@<TRIPOS>ATOM
      1 PG         -1.8454   -4.5280   -5.6696 P.3       1 ATP         1.8237
      2 O1G        -3.2891   -4.2298   -5.3921 O.2       1 ATP        -0.8455
      3 O2G        -1.3871   -6.0376   -5.3153 O.3       1 ATP        -0.7970
      4 O3G        -1.4067   -4.3696   -7.2180 O.3       1 ATP        -0.7970
      5 PB         -0.5435   -2.0173   -4.8747 P.3       1 ATP         1.9358
      6 O1B        -0.2000   -1.4201   -6.2073 O.2       1 ATP        -0.8836
      7 O2B        -1.8921   -1.4419   -4.1940 O.3       1 ATP        -0.8065
      8 O3B        -0.7778   -3.6151   -4.8738 O.3       1 ATP        -0.8233
      9 PA          2.1361   -2.2694   -3.6576 P.3       1 ATP         1.5686
     10 O1A         2.9126   -1.5332   -4.7278 O.co2     1 ATP        -0.8169
     11 O2A         2.1795   -3.7795   -3.5713 O.co2     1 ATP        -0.8169
     12 O3A         0.5736   -1.8042   -3.7274 O.3       1 ATP        -0.7987
     13 O5'         2.5237   -1.6631   -2.1889 O.3       1 ATP        -0.5693
     14 C5'         2.2816   -0.2918   -1.9206 C.3       1 ATP         0.1841
     15 C4'         2.7248    0.0226   -0.4980 C.3       1 ATP         0.0904
     16 O4'         2.4697    1.4219   -0.2462 O.3       1 ATP        -0.4083
     17 C3'         1.9404   -0.7419    0.5596 C.3       1 ATP         0.0826
     18 O3'         2.7418   -0.8086    1.7389 O.3       1 ATP        -0.6106
     19 C2'         0.7477    0.1630    0.7858 C.3       1 ATP         0.1294
     20 O2'         0.1373   -0.0577    2.0407 O.3       1 ATP        -0.5701
     21 C1'         1.3733    1.5427    0.6747 C.3       1 ATP         0.3967
     22 N9          0.4520    2.5240    0.1767 N.pl3     1 ATP        -0.5600
     23 C8          0.5305    3.2394   -0.9358 C.ar      1 ATP         0.3009
     24 N7         -0.4966    4.0680   -1.1145 N.pl3     1 ATP        -0.5113
     25 C5         -1.2879    3.8664   -0.0375 C.ar      1 ATP        -0.2824
     26 C6         -2.4754    4.4084    0.3577 C.ar      1 ATP         0.7670
     27 N6         -3.0892    5.3882   -0.4495 N.pl3     1 ATP        -0.9491
     28 N1         -3.0632    4.0158    1.5092 N.ar      1 ATP        -0.7474
     29 C2         -2.4008    3.0654    2.2262 C.ar      1 ATP         0.7118
     30 N3         -1.2259    2.4663    1.9260 N.ar      1 ATP        -0.6661
     31 C4         -0.7062    2.9047    0.7757 C.ar      1 ATP         0.6308
     32 HOG2       -1.8283   -6.7865   -5.7700 H         1 ATP         0.4930
     33 HOG3       -1.8501   -4.9235   -7.8956 H         1 ATP         0.4930
     34 HOB2       -2.7441   -1.5418   -4.6697 H         1 ATP         0.4808
     35 H5'1        2.8429    0.3140   -2.6391 H         1 ATP         0.0350
     36 H5'2        1.2125   -0.0906   -2.0420 H         1 ATP         0.0350
     37 H4'         3.8050   -0.1388   -0.4008 H         1 ATP         0.1244
     38 H3'         1.6784   -1.7629    0.2714 H         1 ATP         0.0924
     39 HO3'        3.5554   -1.2733    1.4914 H         1 ATP         0.4379
     40 H2'        -0.0011    0.0027    0.0003 H         1 ATP         0.0849
     41 HO2'       -0.1563   -0.9855    2.0596 H         1 ATP         0.4417
     42 H1'         1.7826    1.9024    1.6451 H         1 ATP         0.1307
     43 H8          1.3437    3.1645   -1.6367 H         1 ATP         0.2875
     44 HN61       -2.6210    5.7042   -1.2748 H         1 ATP         0.4559
     45 HN62       -3.9356    5.8187   -0.1356 H         1 ATP         0.4559
     46 H2         -2.8752    2.7532    3.1495 H         1 ATP         0.0858
     47 H47        -0.6372    4.7004   -1.8900 H         1 ATP         0.5042
@<TRIPOS>BOND
     1    1    2 2
     2    1    3 1
     3    1    4 1
     4    1    8 1
     5    3   32 1
     6    4   33 1
     7    5    6 2
     8    5    7 1
     9    5    8 1
    10    5   12 1
    11    7   34 1
    12    9   10 2
    13    9   11 1
    14    9   12 1
    15    9   13 1
    16   13   14 1
    17   14   15 1
    18   14   35 1
    19   14   36 1
    20   15   16 1
    21   15   17 1
    22   15   37 1
    23   16   21 1
    24   17   18 1
    25   17   19 1
    26   17   38 1
    27   18   39 1
    28   19   20 1
    29   19   21 1
    30   19   40 1
    31   20   41 1
    32   21   22 1
    33   21   42 1
    34   22   23 ar
    35   22   31 ar
    36   23   24 ar
    37   23   43 1
    38   24   25 ar
    39   24   47 1
    40   25   26 ar
    41   25   31 ar
    42   26   27 1
    43   26   28 ar
    44   27   44 1
    45   27   45 1
    46   28   29 ar
    47   29   30 ar
    48   29   46 1
    49   30   31 ar
@<TRIPOS>SUBSTRUCTURE
     1 ATP         1 GROUP 0 A     ****
@<TRIPOS>MOLECULE
[5-(6-amino-7,8-dihydropurin-8-ylium-9-yl)-3,4-dihydroxy-tetrahydrofuran-2-yl]methyl [hydroxy(phosphonooxy)phosphoryl] phosphate
   47    49     1     0     0
SMALL
USER_CHARGES

@<TRIPOS>ATOM
      1 PG         -1.6152   -0.6761   -5.4266 P.3       1 ATP         1.8237
      2 O1G        -2.4004   -1.8706   -5.8816 O.2       1 ATP        -0.8455
      3 O2G        -2.3168    0.7489   -5.7295 O.3       1 ATP        -0.7970
      4 O3G        -1.3394   -0.6135   -3.8344 O.3       1 ATP        -0.7970
      5 PB          1.1400   -1.4929   -6.0364 P.3       1 ATP         1.9358
      6 O1B         0.9279   -2.8577   -6.6219 O.2       1 ATP        -0.8836
      7 O2B         2.2967   -0.6154   -6.7472 O.3       1 ATP        -0.8065
      8 O3B        -0.1459   -0.5170   -6.0763 O.3       1 ATP        -0.8233
      9 PA          2.8591   -2.1295   -3.7203 P.3       1 ATP         1.5686
     10 O1A         4.1100   -1.4252   -4.1992 O.co2     1 ATP        -0.8169
     11 O2A         2.7453   -3.6368   -3.7902 O.co2     1 ATP        -0.8169
     12 O3A         1.5676   -1.4818   -4.4786 O.3       1 ATP        -0.7987
     13 O5'         2.5237   -1.6631   -2.1889 O.3       1 ATP        -0.5693
     14 C5'         2.2816   -0.2918   -1.9206 C.3       1 ATP         0.1841
     15 C4'         2.7248    0.0226   -0.4980 C.3       1 ATP         0.0904
     16 O4'         2.4697    1.4219   -0.2462 O.3       1 ATP        -0.4083
     17 C3'         1.9404   -0.7419    0.5596 C.3       1 ATP         0.0826
     18 O3'         2.7418   -0.8086    1.7389 O.3       1 ATP        -0.6106
     19 C2'         0.7477    0.1630    0.7858 C.3       1 ATP         0.1294
     20 O2'         0.1373   -0.0577    2.0407 O.3       1 ATP        -0.5701
     21 C1'         1.3733    1.5427    0.6747 C.3       1 ATP         0.3967
     22 N9          0.4520    2.5240    0.1767 N.pl3     1 ATP        -0.5600
     23 C8         -0.3477    3.3274    0.8626 C.ar      1 ATP         0.3009
     24 N7         -1.0836    4.1323    0.0983 N.pl3     1 ATP        -0.5113
     25 C5         -0.7273    3.8194   -1.1674 C.ar      1 ATP        -0.2824
     26 C6         -1.1208    4.2877   -2.3863 C.ar      1 ATP         0.7670
     27 N6         -2.0932    5.3066   -2.4528 N.pl3     1 ATP        -0.9491
     28 N1         -0.5892    3.7853   -3.5223 N.ar      1 ATP        -0.7474
     29 C2          0.3427    2.8040   -3.3648 C.ar      1 ATP         0.7118
     30 N3          0.8012    2.2709   -2.2093 N.ar      1 ATP        -0.6661
     31 C4          0.2307    2.8167   -1.1312 C.ar      1 ATP         0.6308
     32 HOG2       -2.5148    0.9923   -6.6589 H         1 ATP         0.4930
     33 HOG3       -0.8398   -1.3436   -3.4105 H         1 ATP         0.4930
     34 HOB2        3.2151   -0.9598   -6.7579 H         1 ATP         0.4808
     35 H5'1        2.8429    0.3140   -2.6391 H         1 ATP         0.0350
     36 H5'2        1.2125   -0.0906   -2.0420 H         1 ATP         0.0350
     37 H4'         3.8050   -0.1388   -0.4008 H         1 ATP         0.1244
     38 H3'         1.6784   -1.7629    0.2714 H         1 ATP         0.0924
     39 HO3'        2.2232   -1.2979    2.3953 H         1 ATP         0.4379
     40 H2'        -0.0011    0.0027    0.0003 H         1 ATP         0.0849
     41 HO2'       -0.6141    0.5574    2.1082 H         1 ATP         0.4417
     42 H1'         1.7826    1.9024    1.6451 H         1 ATP         0.1307
     43 H8         -0.4040    3.3373    1.9373 H         1 ATP         0.2875
     44 HN61       -2.5133    5.6366   -1.6073 H         1 ATP         0.4559
     45 HN62       -2.4153    5.6161   -3.3477 H         1 ATP         0.4559
     46 H2          0.7668    2.4032   -4.2782 H         1 ATP         0.0858
     47 H47        -1.7549    4.8194    0.4122 H         1 ATP         0.5042
@<TRIPOS>BOND
     1    1    2 2
     2    1    3 1
     3    1    4 1
     4    1    8 1
     5    3   32 1
     6    4   33 1
     7    5    6 2
     8    5    7 1
     9    5    8 1
    10    5   12 1
    11    7   34 1
    12    9   10 2
    13    9   11 1
    14    9   12 1
    15    9   13 1
    16   13   14 1
    17   14   15 1
    18   14   35 1
    19   14   36 1
    20   15   16 1
    21   15   17 1
    22   15   37 1
    23   16   21 1
    24   17   18 1
    25   17   19 1
    26   17   38 1
    27   18   39 1
    28   19   20 1
    29   19   21 1
    30   19   40 1
    31   20   41 1
    32   21   22 1
    33   21   42 1
    34   22   23 ar
    35   22   31 ar
    36   23   24 ar
    37   23   43 1
    38   24   25 ar
    39   24   47 1
    40   25   26 ar
    41   25   31 ar
    42   26   27 1
    43   26   28 ar
    44   27   44 1
    45   27   45 1
    46   28   29 ar
    47   29   30 ar
    48   29   46 1
    49   30   31 ar
@<TRIPOS>SUBSTRUCTURE
     1 ATP         1 GROUP 0 A     ****
@<TRIPOS>MOLECULE
[5-(6-amino-7,8-dihydropurin-8-ylium-9-yl)-3,4-dihydroxy-tetrahydrofuran-2-yl]methyl [hydroxy(phosphonooxy)phosphoryl] phosphate
   47    49     1     0     0
SMALL
USER_CHARGES

@<TRIPOS>ATOM
      1 PG          7.3080   -2.6796   -2.7976 P.3       1 ATP         1.8237
      2 O1G         6.9509   -1.6456   -1.7712 O.2       1 ATP        -0.8455
      3 O2G         8.5440   -2.2780   -3.7596 O.3       1 ATP        -0.7970
      4 O3G         7.7697   -4.1055   -2.1901 O.3       1 ATP        -0.7970
      5 PB          5.3185   -2.1638   -4.8966 P.3       1 ATP         1.9358
      6 O1B         6.1549   -1.4964   -5.9480 O.2       1 ATP        -0.8836
      7 O2B         4.1906   -3.1758   -5.4596 O.3       1 ATP        -0.8065
      8 O3B         6.1346   -3.0678   -3.8362 O.3       1 ATP        -0.8233
      9 PA          3.3322   -0.0533   -4.3265 P.3       1 ATP         1.5686
     10 O1A         2.1130   -0.7769   -4.8559 O.co2     1 ATP        -0.8169
     11 O2A         3.9798    1.0571   -5.1250 O.co2     1 ATP        -0.8169
     12 O3A         4.4780   -1.1544   -3.9562 O.3       1 ATP        -0.7987
     13 O5'         3.0197    0.5137   -2.8245 O.3       1 ATP        -0.5693
     14 C5'         2.2816   -0.2918   -1.9206 C.3       1 ATP         0.1841
     15 C4'         2.7248    0.0226   -0.4980 C.3       1 ATP         0.0904
     16 O4'         2.4697    1.4219   -0.2462 O.3       1 ATP        -0.4083
     17 C3'         1.9404   -0.7419    0.5596 C.3       1 ATP         0.0826
     18 O3'         2.7418   -0.8086    1.7389 O.3       1 ATP        -0.6106
     19 C2'         0.7477    0.1630    0.7858 C.3       1 ATP         0.1294
     20 O2'         0.1373   -0.0577    2.0407 O.3       1 ATP        -0.5701
     21 C1'         1.3733    1.5427    0.6747 C.3       1 ATP         0.3967
     22 N9          0.4520    2.5240    0.1767 N.pl3     1 ATP        -0.5600
     23 C8         -0.8602    2.5861    0.3496 C.ar      1 ATP         0.3009
     24 N7         -1.4308    3.6326   -0.2443 N.pl3     1 ATP        -0.5113
     25 C5         -0.4080    4.2856   -0.8394 C.ar      1 ATP        -0.2824
     26 C6         -0.3432    5.4196   -1.5943 C.ar      1 ATP         0.7670
     27 N6         -1.5276    6.1333   -1.8702 N.pl3     1 ATP        -0.9491
     28 N1          0.8395    5.8603   -2.0764 N.ar      1 ATP        -0.7474
     29 C2          1.9319    5.1095   -1.7617 C.ar      1 ATP         0.7118
     30 N3          1.9773    3.9761   -1.0249 N.ar      1 ATP        -0.6661
     31 C4          0.7724    3.6031   -0.5836 C.ar      1 ATP         0.6308
     32 HOG2        8.4705   -1.4733   -4.3157 H         1 ATP         0.4930
     33 HOG3        7.1430   -4.6055   -1.6247 H         1 ATP         0.4930
     34 HOB2        3.4963   -2.8273   -6.0585 H         1 ATP         0.4808
     35 H5'1        1.2153   -0.0781   -2.0454 H         1 ATP         0.0350
     36 H5'2        2.4645   -1.3454   -2.1547 H         1 ATP         0.0350
     37 H4'         3.8050   -0.1388   -0.4008 H         1 ATP         0.1244
     38 H3'         1.6784   -1.7629    0.2714 H         1 ATP         0.0924
     39 HO3'        2.2232   -1.2979    2.3953 H         1 ATP         0.4379
     40 H2'        -0.0011    0.0027    0.0003 H         1 ATP         0.0849
     41 HO2'       -0.1563   -0.9855    2.0596 H         1 ATP         0.4417
     42 H1'         1.7826    1.9024    1.6451 H         1 ATP         0.1307
     43 H8         -1.4217    1.8638    0.9164 H         1 ATP         0.2875
     44 HN61       -2.4023    5.7711   -1.5477 H         1 ATP         0.4559
     45 HN62       -1.4857    6.9379   -2.4627 H         1 ATP         0.4559
     46 H2          2.8789    5.4660   -2.1503 H         1 ATP         0.0858
     47 H47        -2.4129    3.8706   -0.2402 H         1 ATP         0.5042
@<TRIPOS>BOND
     1    1    2 2
     2    1    3 1
     3    1    4 1
     4    1    8 1
     5    3   32 1
     6    4   33 1
     7    5    6 2
     8    5    7 1
     9    5    8 1
    10    5   12 1
    11    7   34 1
    12    9   10 2
    13    9   11 1
    14    9   12 1
    15    9   13 1
    16   13   14 1
    17   14   15 1
    18   14   35 1
    19   14   36 1
    20   15   16 1
    21   15   17 1
    22   15   37 1
    23   16   21 1
    24   17   18 1
    25   17   19 1
    26   17   38 1
    27   18   39 1
    28   19   20 1
    29   19   21 1
    30   19   40 1
    31   20   41 1
    32   21   22 1
    33   21   42 1
    34   22   23 ar
    35   22   31 ar
    36   23   24 ar
    37   23   43 1
    38   24   25 ar
    39   24   47 1
    40   25   26 ar
    41   25   31 ar
    42   26   27 1
    43   26   28 ar
    44   27   44 1
    45   27   45 1
    46   28   29 ar
    47   29   30 ar
    48   29   46 1
    49   30   31 ar
@<TRIPOS>SUBSTRUCTURE
     1 ATP         1 GROUP 0 A     ****
@<TRIPOS>MOLECULE
[5-(6-amino-7,8-dihydropurin-8-ylium-9-yl)-3,4-dihydroxy-tetrahydrofuran-2-yl]methyl [hydroxy(phosphonooxy)phosphoryl] phosphate
   47    49     1     0     0
SMALL
USER_CHARGES

@<TRIPOS>ATOM
      1 PG         -1.1433   -0.9466   -7.2909 P.3       1 ATP         1.8237
      2 O1G        -0.9371   -0.4567   -8.6937 O.2       1 ATP        -0.8455
      3 O2G        -2.5933   -0.6046   -6.6621 O.3       1 ATP        -0.7970
      4 O3G        -1.0394   -2.5504   -7.1116 O.3       1 ATP        -0.7970
      5 PB          0.1927    1.1425   -5.7158 P.3       1 ATP         1.9358
      6 O1B         0.6805    2.0667   -6.7921 O.2       1 ATP        -0.8836
      7 O2B        -1.1844    1.5930   -4.9991 O.3       1 ATP        -0.8065
      8 O3B        -0.1117   -0.3706   -6.1908 O.3       1 ATP        -0.8233
      9 PA          2.7386    0.3748   -4.4298 P.3       1 ATP         1.5686
     10 O1A         3.6399    1.3283   -5.1839 O.co2     1 ATP        -0.8169
     11 O2A         2.7068   -1.0976   -4.7776 O.co2     1 ATP        -0.8169
     12 O3A         1.2110    0.9462   -4.4771 O.3       1 ATP        -0.7987
     13 O5'         3.0197    0.5137   -2.8245 O.3       1 ATP        -0.5693
     14 C5'         2.2816   -0.2918   -1.9206 C.3       1 ATP         0.1841
     15 C4'         2.7248    0.0226   -0.4980 C.3       1 ATP         0.0904
     16 O4'         2.4697    1.4219   -0.2462 O.3       1 ATP        -0.4083
     17 C3'         1.9404   -0.7419    0.5596 C.3       1 ATP         0.0826
     18 O3'         2.7418   -0.8086    1.7389 O.3       1 ATP        -0.6106
     19 C2'         0.7477    0.1630    0.7858 C.3       1 ATP         0.1294
     20 O2'         0.1373   -0.0577    2.0407 O.3       1 ATP        -0.5701
     21 C1'         1.3733    1.5427    0.6747 C.3       1 ATP         0.3967
     22 N9          0.4520    2.5240    0.1767 N.pl3     1 ATP        -0.5600
     23 C8         -0.8602    2.5861    0.3496 C.ar      1 ATP         0.3009
     24 N7         -1.4308    3.6326   -0.2443 N.pl3     1 ATP        -0.5113
     25 C5         -0.4080    4.2856   -0.8394 C.ar      1 ATP        -0.2824
     26 C6         -0.3432    5.4196   -1.5943 C.ar      1 ATP         0.7670
     27 N6         -1.5276    6.1333   -1.8702 N.pl3     1 ATP        -0.9491
     28 N1          0.8395    5.8603   -2.0764 N.ar      1 ATP        -0.7474
     29 C2          1.9319    5.1095   -1.7617 C.ar      1 ATP         0.7118
     30 N3          1.9773    3.9761   -1.0249 N.ar      1 ATP        -0.6661
     31 C4          0.7724    3.6031   -0.5836 C.ar      1 ATP         0.6308
     32 HOG2       -2.7947   -0.8963   -5.7475 H         1 ATP         0.4930
     33 HOG3       -0.2013   -3.0010   -7.3504 H         1 ATP         0.4930
     34 HOB2       -1.9940    1.6898   -5.5444 H         1 ATP         0.4808
     35 H5'1        1.2153   -0.0781   -2.0454 H         1 ATP         0.0350
     36 H5'2        2.4645   -1.3454   -2.1547 H         1 ATP         0.0350
     37 H4'         3.8050   -0.1388   -0.4008 H         1 ATP         0.1244
     38 H3'         1.6784   -1.7629    0.2714 H         1 ATP         0.0924
     39 HO3'        2.2232   -1.2979    2.3953 H         1 ATP         0.4379
     40 H2'        -0.0011    0.0027    0.0003 H         1 ATP         0.0849
     41 HO2'       -0.1563   -0.9855    2.0596 H         1 ATP         0.4417
     42 H1'         1.7826    1.9024    1.6451 H         1 ATP         0.1307
     43 H8         -1.4217    1.8638    0.9164 H         1 ATP         0.2875
     44 HN61       -2.4023    5.7711   -1.5477 H         1 ATP         0.4559
     45 HN62       -1.4857    6.9379   -2.4627 H         1 ATP         0.4559
     46 H2          2.8789    5.4660   -2.1503 H         1 ATP         0.0858
     47 H47        -2.4129    3.8706   -0.2402 H         1 ATP         0.5042
@<TRIPOS>BOND
     1    1    2 2
     2    1    3 1
     3    1    4 1
     4    1    8 1
     5    3   32 1
     6    4   33 1
     7    5    6 2
     8    5    7 1
     9    5    8 1
    10    5   12 1
    11    7   34 1
    12    9   10 2
    13    9   11 1
    14    9   12 1
    15    9   13 1
    16   13   14 1
    17   14   15 1
    18   14   35 1
    19   14   36 1
    20   15   16 1
    21   15   17 1
    22   15   37 1
    23   16   21 1
    24   17   18 1
    25   17   19 1
    26   17   38 1
    27   18   39 1
    28   19   20 1
    29   19   21 1
    30   19   40 1
    31   20   41 1
    32   21   22 1
    33   21   42 1
    34   22   23 ar
    35   22   31 ar
    36   23   24 ar
    37   23   43 1
    38   24   25 ar
    39   24   47 1
    40   25   26 ar
    41   25   31 ar
    42   26   27 1
    43   26   28 ar
    44   27   44 1
    45   27   45 1
    46   28   29 ar
    47   29   30 ar
    48   29   46 1
    49   30   31 ar
@<TRIPOS>SUBSTRUCTURE
     1 ATP         1 GROUP 0 A     ****
@<TRIPOS>MOLECULE
[5-(6-amino-7,8-dihydropurin-8-ylium-9-yl)-3,4-dihydroxy-tetrahydrofuran-2-yl]methyl [hydroxy(phosphonooxy)phosphoryl] phosphate
   47    49     1     0     0
SMALL
USER_CHARGES

@<TRIPOS>ATOM
      1 PG         -1.2086    2.6273   -6.4257 P.3       1 ATP         1.8237
      2 O1G        -0.8511    3.2534   -7.7412 O.2       1 ATP        -0.8455
      3 O2G        -2.0793    3.5710   -5.4428 O.3       1 ATP        -0.7970
      4 O3G        -2.1096    1.2888   -6.5353 O.3       1 ATP        -0.7970
      5 PB          1.2515    3.0326   -4.8721 P.3       1 ATP         1.9358
      6 O1B         2.1234    3.7410   -5.8664 O.2       1 ATP        -0.8836
      7 O2B         0.5118    3.9937   -3.8034 O.3       1 ATP        -0.8065
      8 O3B         0.0382    2.1754   -5.5050 O.3       1 ATP        -0.8233
      9 PA          2.8596    0.6156   -4.3272 P.3       1 ATP         1.5686
     10 O1A         4.0970    1.0195   -5.0992 O.co2     1 ATP        -0.8169
     11 O2A         1.8939   -0.4034   -4.8921 O.co2     1 ATP        -0.8169
     12 O3A         2.0190    1.9594   -3.9400 O.3       1 ATP        -0.7987
     13 O5'         3.2883    0.1336   -2.8242 O.3       1 ATP        -0.5693
     14 C5'         2.2816   -0.2918   -1.9206 C.3       1 ATP         0.1841
     15 C4'         2.7248    0.0226   -0.4980 C.3       1 ATP         0.0904
     16 O4'         2.4697    1.4219   -0.2462 O.3       1 ATP        -0.4083
     17 C3'         1.9404   -0.7419    0.5596 C.3       1 ATP         0.0826
     18 O3'         2.7418   -0.8086    1.7389 O.3       1 ATP        -0.6106
     19 C2'         0.7477    0.1630    0.7858 C.3       1 ATP         0.1294
     20 O2'         0.1373   -0.0577    2.0407 O.3       1 ATP        -0.5701
     21 C1'         1.3733    1.5427    0.6747 C.3       1 ATP         0.3967
     22 N9          0.4520    2.5240    0.1767 N.pl3     1 ATP        -0.5600
     23 C8         -0.8252    2.3702   -0.1405 C.ar      1 ATP         0.3009
     24 N7         -1.4086    3.4861   -0.5739 N.pl3     1 ATP        -0.5113
     25 C5         -0.4324    4.4197   -0.5299 C.ar      1 ATP        -0.2824
     26 C6         -0.4006    5.7465   -0.8439 C.ar      1 ATP         0.7670
     27 N6         -1.5714    6.3708   -1.3211 N.pl3     1 ATP        -0.9491
     28 N1          0.7370    6.4615   -0.7020 N.ar      1 ATP        -0.7474
     29 C2          1.8196    5.7785   -0.2355 C.ar      1 ATP         0.7118
     30 N3          1.8948    4.4713    0.1036 N.ar      1 ATP        -0.6661
     31 C4          0.7337    3.8311   -0.0629 C.ar      1 ATP         0.6308
     32 HOG2       -2.3474    3.2232   -4.5657 H         1 ATP         0.4930
     33 HOG3       -1.7538    0.5164   -7.0244 H         1 ATP         0.4930
     34 HOB2       -0.1015    4.6854   -4.1315 H         1 ATP         0.4808
     35 H5'1        1.3500    0.2325   -2.1560 H         1 ATP         0.0350
     36 H5'2        2.1266   -1.3683   -2.0443 H         1 ATP         0.0350
     37 H4'         3.8050   -0.1388   -0.4008 H         1 ATP         0.1244
     38 H3'         1.6784   -1.7629    0.2714 H         1 ATP         0.0924
     39 HO3'        2.2232   -1.2979    2.3953 H         1 ATP         0.4379
     40 H2'        -0.0011    0.0027    0.0003 H         1 ATP         0.0849
     41 HO2'       -0.1563   -0.9855    2.0596 H         1 ATP         0.4417
     42 H1'         1.7826    1.9024    1.6451 H         1 ATP         0.1307
     43 H8         -1.3516    1.4351   -0.0582 H         1 ATP         0.2875
     44 HN61       -2.3936    5.8204   -1.4664 H         1 ATP         0.4559
     45 HN62       -1.5348    7.3319   -1.5955 H         1 ATP         0.4559
     46 H2          2.7305    6.3553   -0.1232 H         1 ATP         0.0858
     47 H47        -2.3700    3.5931   -0.8665 H         1 ATP         0.5042
@<TRIPOS>BOND
     1    1    2 2
     2    1    3 1
     3    1    4 1
     4    1    8 1
     5    3   32 1
     6    4   33 1
     7    5    6 2
     8    5    7 1
     9    5    8 1
    10    5   12 1
    11    7   34 1
    12    9   10 2
    13    9   11 1
    14    9   12 1
    15    9   13 1
    16   13   14 1
    17   14   15 1
    18   14   35 1
    19   14   36 1
    20   15   16 1
    21   15   17 1
    22   15   37 1
    23   16   21 1
    24   17   18 1
    25   17   19 1
    26   17   38 1
    27   18   39 1
    28   19   20 1
    29   19   21 1
    30   19   40 1
    31   20   41 1
    32   21   22 1
    33   21   42 1
    34   22   23 ar
    35   22   31 ar
    36   23   24 ar
    37   23   43 1
    38   24   25 ar
    39   24   47 1
    40   25   26 ar
    41   25   31 ar
    42   26   27 1
    43   26   28 ar
    44   27   44 1
    45   27   45 1
    46   28   29 ar
    47   29   30 ar
    48   29   46 1
    49   30   31 ar
@<TRIPOS>SUBSTRUCTURE
     1 ATP         1 GROUP 0 A     ****
@<TRIPOS>MOLECULE
[5-(6-amino-7,8-dihydropurin-8-ylium-9-yl)-3,4-dihydroxy-tetrahydrofuran-2-yl]methyl [hydroxy(phosphonooxy)phosphoryl] phosphate
   47    49     1     0     0
SMALL
USER_CHARGES

@<TRIPOS>ATOM
      1 PG         -1.8284   -6.1243   -2.9426 P.3       1 ATP         1.8237
      2 O1G        -2.8112   -6.3589   -1.8338 O.2       1 ATP        -0.8455
      3 O2G        -0.7906   -7.3386   -3.1938 O.3       1 ATP        -0.7970
      4 O3G        -2.4923   -5.9071   -4.4012 O.3       1 ATP        -0.7970
      5 PB         -1.2156   -3.2698   -2.6167 P.3       1 ATP         1.9358
      6 O1B        -1.9614   -2.6671   -3.7703 O.2       1 ATP        -0.8836
      7 O2B        -1.9762   -3.1886   -1.1925 O.3       1 ATP        -0.8065
      8 O3B        -0.8671   -4.8396   -2.7643 O.3       1 ATP        -0.8233
      9 PA          1.5535   -2.4535   -3.2419 P.3       1 ATP         1.5686
     10 O1A         1.2363   -1.5482   -4.4124 O.co2     1 ATP        -0.8169
     11 O2A         2.1275   -3.8355   -3.4665 O.co2     1 ATP        -0.8169
     12 O3A         0.2209   -2.5966   -2.3113 O.3       1 ATP        -0.7987
     13 O5'         2.5237   -1.6631   -2.1889 O.3       1 ATP        -0.5693
     14 C5'         2.2816   -0.2918   -1.9206 C.3       1 ATP         0.1841
     15 C4'         2.7248    0.0226   -0.4980 C.3       1 ATP         0.0904
     16 O4'         2.4697    1.4219   -0.2462 O.3       1 ATP        -0.4083
     17 C3'         1.9404   -0.7419    0.5596 C.3       1 ATP         0.0826
     18 O3'         2.7418   -0.8086    1.7389 O.3       1 ATP        -0.6106
     19 C2'         0.7477    0.1630    0.7858 C.3       1 ATP         0.1294
     20 O2'         0.1373   -0.0577    2.0407 O.3       1 ATP        -0.5701
     21 C1'         1.3733    1.5427    0.6747 C.3       1 ATP         0.3967
     22 N9          0.4520    2.5240    0.1767 N.pl3     1 ATP        -0.5600
     23 C8         -0.8602    2.5861    0.3496 C.ar      1 ATP         0.3009
     24 N7         -1.4308    3.6326   -0.2443 N.pl3     1 ATP        -0.5113
     25 C5         -0.4080    4.2856   -0.8394 C.ar      1 ATP        -0.2824
     26 C6         -0.3432    5.4196   -1.5943 C.ar      1 ATP         0.7670
     27 N6         -1.5276    6.1333   -1.8702 N.pl3     1 ATP        -0.9491
     28 N1          0.8395    5.8603   -2.0764 N.ar      1 ATP        -0.7474
     29 C2          1.9319    5.1095   -1.7617 C.ar      1 ATP         0.7118
     30 N3          1.9773    3.9761   -1.0249 N.ar      1 ATP        -0.6661
     31 C4          0.7724    3.6031   -0.5836 C.ar      1 ATP         0.6308
     32 HOG2       -0.1948   -7.6121   -2.4642 H         1 ATP         0.4930
     33 HOG3       -3.1123   -5.1583   -4.5333 H         1 ATP         0.4930
     34 HOB2       -2.8516   -3.6205   -1.0963 H         1 ATP         0.4808
     35 H5'1        2.8429    0.3140   -2.6391 H         1 ATP         0.0350
     36 H5'2        1.2125   -0.0906   -2.0420 H         1 ATP         0.0350
     37 H4'         3.8050   -0.1388   -0.4008 H         1 ATP         0.1244
     38 H3'         1.6784   -1.7629    0.2714 H         1 ATP         0.0924
     39 HO3'        2.2232   -1.2979    2.3953 H         1 ATP         0.4379
     40 H2'        -0.0011    0.0027    0.0003 H         1 ATP         0.0849
     41 HO2'       -0.1563   -0.9855    2.0596 H         1 ATP         0.4417
     42 H1'         1.7826    1.9024    1.6451 H         1 ATP         0.1307
     43 H8         -1.4217    1.8638    0.9164 H         1 ATP         0.2875
     44 HN61       -2.4023    5.7711   -1.5477 H         1 ATP         0.4559
     45 HN62       -1.4857    6.9379   -2.4627 H         1 ATP         0.4559
     46 H2          2.8789    5.4660   -2.1503 H         1 ATP         0.0858
     47 H47        -2.4129    3.8706   -0.2402 H         1 ATP         0.5042
@<TRIPOS>BOND
     1    1    2 2
     2    1    3 1
     3    1    4 1
     4    1    8 1
     5    3   32 1
     6    4   33 1
     7    5    6 2
     8    5    7 1
     9    5    8 1
    10    5   12 1
    11    7   34 1
    12    9   10 2
    13    9   11 1
    14    9   12 1
    15    9   13 1
    16   13   14 1
    17   14   15 1
    18   14   35 1
    19   14   36 1
    20   15   16 1
    21   15   17 1
    22   15   37 1
    23   16   21 1
    24   17   18 1
    25   17   19 1
    26   17   38 1
    27   18   39 1
    28   19   20 1
    29   19   21 1
    30   19   40 1
    31   20   41 1
    32   21   22 1
    33   21   42 1
    34   22   23 ar
    35   22   31 ar
    36   23   24 ar
    37   23   43 1
    38   24   25 ar
    39   24   47 1
    40   25   26 ar
    41   25   31 ar
    42   26   27 1
    43   26   28 ar
    44   27   44 1
    45   27   45 1
    46   28   29 ar
    47   29   30 ar
    48   29   46 1
    49   30   31 ar
@<TRIPOS>SUBSTRUCTURE
     1 ATP         1 GROUP 0 A     ****
@<TRIPOS>MOLECULE
[5-(6-amino-7,8-dihydropurin-8-ylium-9-yl)-3,4-dihydroxy-tetrahydrofuran-2-yl]methyl [hydroxy(phosphonooxy)phosphoryl] phosphate
   47    49     1     0     0
SMALL
USER_CHARGES

@<TRIPOS>ATOM
      1 PG          4.2475   -4.3951   -4.5520 P.3       1 ATP         1.8237
      2 O1G         4.7436   -3.7321   -3.3011 O.2       1 ATP        -0.8455
      3 O2G         5.3456   -4.5182   -5.7325 O.3       1 ATP        -0.7970
      4 O3G         3.7509   -5.9218   -4.3579 O.3       1 ATP        -0.7970
      5 PB          2.8429   -2.1899   -5.8915 P.3       1 ATP         1.9358
      6 O1B         3.7972   -1.8523   -6.9986 O.2       1 ATP        -0.8836
      7 O2B         1.2780   -2.1114   -6.2890 O.3       1 ATP        -0.8065
      8 O3B         2.9972   -3.6748   -5.2758 O.3       1 ATP        -0.8233
      9 PA          2.7386    0.3748   -4.4298 P.3       1 ATP         1.5686
     10 O1A         1.2920    0.7120   -4.7193 O.co2     1 ATP        -0.8169
     11 O2A         3.8587    1.0755   -5.1675 O.co2     1 ATP        -0.8169
     12 O3A         2.9461   -1.2355   -4.5921 O.3       1 ATP        -0.7987
     13 O5'         3.0197    0.5137   -2.8245 O.3       1 ATP        -0.5693
     14 C5'         2.2816   -0.2918   -1.9206 C.3       1 ATP         0.1841
     15 C4'         2.7248    0.0226   -0.4980 C.3       1 ATP         0.0904
     16 O4'         2.4697    1.4219   -0.2462 O.3       1 ATP        -0.4083
     17 C3'         1.9404   -0.7419    0.5596 C.3       1 ATP         0.0826
     18 O3'         2.7418   -0.8086    1.7389 O.3       1 ATP        -0.6106
     19 C2'         0.7477    0.1630    0.7858 C.3       1 ATP         0.1294
     20 O2'         0.1373   -0.0577    2.0407 O.3       1 ATP        -0.5701
     21 C1'         1.3733    1.5427    0.6747 C.3       1 ATP         0.3967
     22 N9          0.4520    2.5240    0.1767 N.pl3     1 ATP        -0.5600
     23 C8         -0.6854    2.9365    0.7168 C.ar      1 ATP         0.3009
     24 N7         -1.3118    3.8692    0.0018 N.pl3     1 ATP        -0.5113
     25 C5         -0.5159    4.0659   -1.0727 C.ar      1 ATP        -0.2824
     26 C6         -0.6068    4.8856   -2.1589 C.ar      1 ATP         0.7670
     27 N6         -1.7186    5.7437   -2.2844 N.pl3     1 ATP        -0.9491
     28 N1          0.3541    4.8807   -3.1087 N.ar      1 ATP        -0.7474
     29 C2          1.3913    4.0207   -2.9071 C.ar      1 ATP         0.7118
     30 N3          1.5770    3.1707   -1.8715 N.ar      1 ATP        -0.6661
     31 C4          0.5883    3.2318   -0.9747 C.ar      1 ATP         0.6308
     32 HOG2        5.7461   -3.6995   -6.0953 H         1 ATP         0.4930
     33 HOG3        3.0127   -6.1053   -3.7383 H         1 ATP         0.4930
     34 HOB2        0.9094   -1.2574   -6.6005 H         1 ATP         0.4808
     35 H5'1        1.2153   -0.0781   -2.0454 H         1 ATP         0.0350
     36 H5'2        2.4645   -1.3454   -2.1547 H         1 ATP         0.0350
     37 H4'         3.8050   -0.1388   -0.4008 H         1 ATP         0.1244
     38 H3'         1.6784   -1.7629    0.2714 H         1 ATP         0.0924
     39 HO3'        2.2232   -1.2979    2.3953 H         1 ATP         0.4379
     40 H2'        -0.0011    0.0027    0.0003 H         1 ATP         0.0849
     41 HO2'       -0.1563   -0.9855    2.0596 H         1 ATP         0.4417
     42 H1'         1.7826    1.9024    1.6451 H         1 ATP         0.1307
     43 H8         -1.0749    2.5601    1.6468 H         1 ATP         0.2875
     44 HN61       -2.4460    5.7038   -1.5992 H         1 ATP         0.4559
     45 HN62       -1.8079    6.3099   -3.1040 H         1 ATP         0.4559
     46 H2          2.1601    4.0194   -3.6712 H         1 ATP         0.0858
     47 H47        -2.1877    4.3195    0.2279 H         1 ATP         0.5042
@<TRIPOS>BOND
     1    1    2 2
     2    1    3 1
     3    1    4 1
     4    1    8 1
     5    3   32 1
     6    4   33 1
     7    5    6 2
     8    5    7 1
     9    5    8 1
    10    5   12 1
    11    7   34 1
    12    9   10 2
    13    9   11 1
    14    9   12 1
    15    9   13 1
    16   13   14 1
    17   14   15 1
    18   14   35 1
    19   14   36 1
    20   15   16 1
    21   15   17 1
    22   15   37 1
    23   16   21 1
    24   17   18 1
    25   17   19 1
    26   17   38 1
    27   18   39 1
    28   19   20 1
    29   19   21 1
    30   19   40 1
    31   20   41 1
    32   21   22 1
    33   21   42 1
    34   22   23 ar
    35   22   31 ar
    36   23   24 ar
    37   23   43 1
    38   24   25 ar
    39   24   47 1
    40   25   26 ar
    41   25   31 ar
    42   26   27 1
    43   26   28 ar
    44   27   44 1
    45   27   45 1
    46   28   29 ar
    47   29   30 ar
    48   29   46 1
    49   30   31 ar
@<TRIPOS>SUBSTRUCTURE
     1 ATP         1 GROUP 0 A     ****
@<TRIPOS>MOLECULE
[5-(6-amino-7,8-dihydropurin-8-ylium-9-yl)-3,4-dihydroxy-tetrahydrofuran-2-yl]methyl [hydroxy(phosphonooxy)phosphoryl] phosphate
   47    49     1     0     0
SMALL
USER_CHARGES

@<TRIPOS>ATOM
      1 PG         -2.7435   -1.3404   -3.0494 P.3       1 ATP         1.8237
      2 O1G        -2.0460   -1.3090   -1.7216 O.2       1 ATP        -0.8455
      3 O2G        -3.5340   -2.7152   -3.3649 O.3       1 ATP        -0.7970
      4 O3G        -3.8866   -0.2126   -3.2406 O.3       1 ATP        -0.7970
      5 PB         -0.5435   -2.0173   -4.8747 P.3       1 ATP         1.9358
      6 O1B        -0.8493   -3.4499   -5.1981 O.2       1 ATP        -0.8836
      7 O2B         0.0198   -1.1418   -6.1113 O.3       1 ATP        -0.8065
      8 O3B        -1.7952   -1.1475   -4.3416 O.3       1 ATP        -0.8233
      9 PA          2.1361   -2.2694   -3.6576 P.3       1 ATP         1.5686
     10 O1A         2.9126   -1.5332   -4.7278 O.co2     1 ATP        -0.8169
     11 O2A         2.1795   -3.7795   -3.5713 O.co2     1 ATP        -0.8169
     12 O3A         0.5736   -1.8042   -3.7274 O.3       1 ATP        -0.7987
     13 O5'         2.5237   -1.6631   -2.1889 O.3       1 ATP        -0.5693
     14 C5'         2.2816   -0.2918   -1.9206 C.3       1 ATP         0.1841
     15 C4'         2.7248    0.0226   -0.4980 C.3       1 ATP         0.0904
     16 O4'         2.4697    1.4219   -0.2462 O.3       1 ATP        -0.4083
     17 C3'         1.9404   -0.7419    0.5596 C.3       1 ATP         0.0826
     18 O3'         2.7418   -0.8086    1.7389 O.3       1 ATP        -0.6106
     19 C2'         0.7477    0.1630    0.7858 C.3       1 ATP         0.1294
     20 O2'         0.1373   -0.0577    2.0407 O.3       1 ATP        -0.5701
     21 C1'         1.3733    1.5427    0.6747 C.3       1 ATP         0.3967
     22 N9          0.4520    2.5240    0.1767 N.pl3     1 ATP        -0.5600
     23 C8         -0.8602    2.5861    0.3496 C.ar      1 ATP         0.3009
     24 N7         -1.4308    3.6326   -0.2443 N.pl3     1 ATP        -0.5113
     25 C5         -0.4080    4.2856   -0.8394 C.ar      1 ATP        -0.2824
     26 C6         -0.3432    5.4196   -1.5943 C.ar      1 ATP         0.7670
     27 N6         -1.5276    6.1333   -1.8702 N.pl3     1 ATP        -0.9491
     28 N1          0.8395    5.8603   -2.0764 N.ar      1 ATP        -0.7474
     29 C2          1.9319    5.1095   -1.7617 C.ar      1 ATP         0.7118
     30 N3          1.9773    3.9761   -1.0249 N.ar      1 ATP        -0.6661
     31 C4          0.7724    3.6031   -0.5836 C.ar      1 ATP         0.6308
     32 HOG2       -4.2553   -2.9967   -2.7628 H         1 ATP         0.4930
     33 HOG3       -3.6344    0.7335   -3.1793 H         1 ATP         0.4930
     34 HOB2        0.8538   -1.4178   -6.5478 H         1 ATP         0.4808
     35 H5'1        2.8429    0.3140   -2.6391 H         1 ATP         0.0350
     36 H5'2        1.2125   -0.0906   -2.0420 H         1 ATP         0.0350
     37 H4'         3.8050   -0.1388   -0.4008 H         1 ATP         0.1244
     38 H3'         1.6784   -1.7629    0.2714 H         1 ATP         0.0924
     39 HO3'        2.2232   -1.2979    2.3953 H         1 ATP         0.4379
     40 H2'        -0.0011    0.0027    0.0003 H         1 ATP         0.0849
     41 HO2'       -0.1563   -0.9855    2.0596 H         1 ATP         0.4417
     42 H1'         1.7826    1.9024    1.6451 H         1 ATP         0.1307
     43 H8         -1.4217    1.8638    0.9164 H         1 ATP         0.2875
     44 HN61       -2.4023    5.7711   -1.5477 H         1 ATP         0.4559
     45 HN62       -1.4857    6.9379   -2.4627 H         1 ATP         0.4559
     46 H2          2.8789    5.4660   -2.1503 H         1 ATP         0.0858
     47 H47        -2.4129    3.8706   -0.2402 H         1 ATP         0.5042
@<TRIPOS>BOND
     1    1    2 2
     2    1    3 1
     3    1    4 1
     4    1    8 1
     5    3   32 1
     6    4   33 1
     7    5    6 2
     8    5    7 1
     9    5    8 1
    10    5   12 1
    11    7   34 1
    12    9   10 2
    13    9   11 1
    14    9   12 1
    15    9   13 1
    16   13   14 1
    17   14   15 1
    18   14   35 1
    19   14   36 1
    20   15   16 1
    21   15   17 1
    22   15   37 1
    23   16   21 1
    24   17   18 1
    25   17   19 1
    26   17   38 1
    27   18   39 1
    28   19   20 1
    29   19   21 1
    30   19   40 1
    31   20   41 1
    32   21   22 1
    33   21   42 1
    34   22   23 ar
    35   22   31 ar
    36   23   24 ar
    37   23   43 1
    38   24   25 ar
    39   24   47 1
    40   25   26 ar
    41   25   31 ar
    42   26   27 1
    43   26   28 ar
    44   27   44 1
    45   27   45 1
    46   28   29 ar
    47   29   30 ar
    48   29   46 1
    49   30   31 ar
@<TRIPOS>SUBSTRUCTURE
     1 ATP         1 GROUP 0 A     ****
@<TRIPOS>MOLECULE
[5-(6-amino-7,8-dihydropurin-8-ylium-9-yl)-3,4-dihydroxy-tetrahydrofuran-2-yl]methyl [hydroxy(phosphonooxy)phosphoryl] phosphate
   47    49     1     0     0
SMALL
USER_CHARGES

@<TRIPOS>ATOM
      1 PG         -1.5149   -0.7388   -5.3655 P.3       1 ATP         1.8237
      2 O1G        -1.3215   -0.6078   -3.8836 O.2       1 ATP        -0.8455
      3 O2G        -1.6795   -2.2581   -5.8937 O.3       1 ATP        -0.7970
      4 O3G        -2.8373   -0.0087   -5.9429 O.3       1 ATP        -0.7970
      5 PB          1.2431   -0.5398   -6.3573 P.3       1 ATP         1.9358
      6 O1B         1.5323   -1.9630   -6.7334 O.2       1 ATP        -0.8836
      7 O2B         1.8554    0.5709   -7.3597 O.3       1 ATP        -0.8065
      8 O3B        -0.3221   -0.1503   -6.2805 O.3       1 ATP        -0.8233
      9 PA          3.3322   -0.0533   -4.3265 P.3       1 ATP         1.5686
     10 O1A         4.1270    0.9770   -5.0991 O.co2     1 ATP        -0.8169
     11 O2A         3.8287   -1.4771   -4.1997 O.co2     1 ATP        -0.8169
     12 O3A         1.8098   -0.0911   -4.9126 O.3       1 ATP        -0.7987
     13 O5'         3.0197    0.5137   -2.8245 O.3       1 ATP        -0.5693
     14 C5'         2.2816   -0.2918   -1.9206 C.3       1 ATP         0.1841
     15 C4'         2.7248    0.0226   -0.4980 C.3       1 ATP         0.0904
     16 O4'         2.4697    1.4219   -0.2462 O.3       1 ATP        -0.4083
     17 C3'         1.9404   -0.7419    0.5596 C.3       1 ATP         0.0826
     18 O3'         2.7418   -0.8086    1.7389 O.3       1 ATP        -0.6106
     19 C2'         0.7477    0.1630    0.7858 C.3       1 ATP         0.1294
     20 O2'         0.1373   -0.0577    2.0407 O.3       1 ATP        -0.5701
     21 C1'         1.3733    1.5427    0.6747 C.3       1 ATP         0.3967
     22 N9          0.4520    2.5240    0.1767 N.pl3     1 ATP        -0.5600
     23 C8         -0.3477    3.3274    0.8626 C.ar      1 ATP         0.3009
     24 N7         -1.0836    4.1323    0.0983 N.pl3     1 ATP        -0.5113
     25 C5         -0.7273    3.8194   -1.1674 C.ar      1 ATP        -0.2824
     26 C6         -1.1208    4.2877   -2.3863 C.ar      1 ATP         0.7670
     27 N6         -2.0932    5.3066   -2.4528 N.pl3     1 ATP        -0.9491
     28 N1         -0.5892    3.7853   -3.5223 N.ar      1 ATP        -0.7474
     29 C2          0.3427    2.8040   -3.3648 C.ar      1 ATP         0.7118
     30 N3          0.8012    2.2709   -2.2093 N.ar      1 ATP        -0.6661
     31 C4          0.2307    2.8167   -1.1312 C.ar      1 ATP         0.6308
     32 HOG2       -0.9508   -2.8961   -5.7383 H         1 ATP         0.4930
     33 HOG3       -3.7168   -0.2878   -5.6098 H         1 ATP         0.4930
     34 HOB2        2.8264    0.6058   -7.4939 H         1 ATP         0.4808
     35 H5'1        1.2153   -0.0781   -2.0454 H         1 ATP         0.0350
     36 H5'2        2.4645   -1.3454   -2.1547 H         1 ATP         0.0350
     37 H4'         3.8050   -0.1388   -0.4008 H         1 ATP         0.1244
     38 H3'         1.6784   -1.7629    0.2714 H         1 ATP         0.0924
     39 HO3'        2.2232   -1.2979    2.3953 H         1 ATP         0.4379
     40 H2'        -0.0011    0.0027    0.0003 H         1 ATP         0.0849
     41 HO2'       -0.6141    0.5574    2.1082 H         1 ATP         0.4417
     42 H1'         1.7826    1.9024    1.6451 H         1 ATP         0.1307
     43 H8         -0.4040    3.3373    1.9373 H         1 ATP         0.2875
     44 HN61       -2.5133    5.6366   -1.6073 H         1 ATP         0.4559
     45 HN62       -2.4153    5.6161   -3.3477 H         1 ATP         0.4559
     46 H2          0.7668    2.4032   -4.2782 H         1 ATP         0.0858
     47 H47        -1.7549    4.8194    0.4122 H         1 ATP         0.5042
@<TRIPOS>BOND
     1    1    2 2
     2    1    3 1
     3    1    4 1
     4    1    8 1
     5    3   32 1
     6    4   33 1
     7    5    6 2
     8    5    7 1
     9    5    8 1
    10    5   12 1
    11    7   34 1
    12    9   10 2
    13    9   11 1
    14    9   12 1
    15    9   13 1
    16   13   14 1
    17   14   15 1
    18   14   35 1
    19   14   36 1
    20   15   16 1
    21   15   17 1
    22   15   37 1
    23   16   21 1
    24   17   18 1
    25   17   19 1
    26   17   38 1
    27   18   39 1
    28   19   20 1
    29   19   21 1
    30   19   40 1
    31   20   41 1
    32   21   22 1
    33   21   42 1
    34   22   23 ar
    35   22   31 ar
    36   23   24 ar
    37   23   43 1
    38   24   25 ar
    39   24   47 1
    40   25   26 ar
    41   25   31 ar
    42   26   27 1
    43   26   28 ar
    44   27   44 1
    45   27   45 1
    46   28   29 ar
    47   29   30 ar
    48   29   46 1
    49   30   31 ar
@<TRIPOS>SUBSTRUCTURE
     1 ATP         1 GROUP 0 A     ****
@<TRIPOS>MOLECULE
[5-(6-amino-7,8-dihydropurin-8-ylium-9-yl)-3,4-dihydroxy-tetrahydrofuran-2-yl]methyl [hydroxy(phosphonooxy)phosphoryl] phosphate
   47    49     1     0     0
SMALL
USER_CHARGES

@<TRIPOS>ATOM
      1 PG          6.1401   -3.8598   -2.6928 P.3       1 ATP         1.8237
      2 O1G         4.7618   -4.3468   -3.0294 O.2       1 ATP        -0.8455
      3 O2G         6.4041   -3.6158   -1.1163 O.3       1 ATP        -0.7970
      4 O3G         7.3347   -4.8672   -3.1090 O.3       1 ATP        -0.7970
      5 PB          5.9201   -0.9835   -3.2485 P.3       1 ATP         1.9358
      6 O1B         5.8780   -0.4105   -1.8628 O.2       1 ATP        -0.8836
      7 O2B         6.7624   -0.1170   -4.3222 O.3       1 ATP        -0.8065
      8 O3B         6.5697   -2.4572   -3.3669 O.3       1 ATP        -0.8233
      9 PA          3.3322   -0.0533   -4.3265 P.3       1 ATP         1.5686
     10 O1A         2.1130   -0.7769   -4.8559 O.co2     1 ATP        -0.8169
     11 O2A         3.9798    1.0571   -5.1250 O.co2     1 ATP        -0.8169
     12 O3A         4.4780   -1.1544   -3.9562 O.3       1 ATP        -0.7987
     13 O5'         3.0197    0.5137   -2.8245 O.3       1 ATP        -0.5693
     14 C5'         2.2816   -0.2918   -1.9206 C.3       1 ATP         0.1841
     15 C4'         2.7248    0.0226   -0.4980 C.3       1 ATP         0.0904
     16 O4'         2.4697    1.4219   -0.2462 O.3       1 ATP        -0.4083
     17 C3'         1.9404   -0.7419    0.5596 C.3       1 ATP         0.0826
     18 O3'         2.7418   -0.8086    1.7389 O.3       1 ATP        -0.6106
     19 C2'         0.7477    0.1630    0.7858 C.3       1 ATP         0.1294
     20 O2'         0.1373   -0.0577    2.0407 O.3       1 ATP        -0.5701
     21 C1'         1.3733    1.5427    0.6747 C.3       1 ATP         0.3967
     22 N9          0.4520    2.5240    0.1767 N.pl3     1 ATP        -0.5600
     23 C8         -0.8602    2.5861    0.3496 C.ar      1 ATP         0.3009
     24 N7         -1.4308    3.6326   -0.2443 N.pl3     1 ATP        -0.5113
     25 C5         -0.4080    4.2856   -0.8394 C.ar      1 ATP        -0.2824
     26 C6         -0.3432    5.4196   -1.5943 C.ar      1 ATP         0.7670
     27 N6         -1.5276    6.1333   -1.8702 N.pl3     1 ATP        -0.9491
     28 N1          0.8395    5.8603   -2.0764 N.ar      1 ATP        -0.7474
     29 C2          1.9319    5.1095   -1.7617 C.ar      1 ATP         0.7118
     30 N3          1.9773    3.9761   -1.0249 N.ar      1 ATP        -0.6661
     31 C4          0.7724    3.6031   -0.5836 C.ar      1 ATP         0.6308
     32 HOG2        5.8484   -2.9647   -0.6373 H         1 ATP         0.4930
     33 HOG3        7.4429   -5.1101   -4.0533 H         1 ATP         0.4930
     34 HOB2        6.4867    0.8057   -4.5089 H         1 ATP         0.4808
     35 H5'1        1.2153   -0.0781   -2.0454 H         1 ATP         0.0350
     36 H5'2        2.4645   -1.3454   -2.1547 H         1 ATP         0.0350
     37 H4'         3.8050   -0.1388   -0.4008 H         1 ATP         0.1244
     38 H3'         1.6784   -1.7629    0.2714 H         1 ATP         0.0924
     39 HO3'        2.2232   -1.2979    2.3953 H         1 ATP         0.4379
     40 H2'        -0.0011    0.0027    0.0003 H         1 ATP         0.0849
     41 HO2'       -0.1563   -0.9855    2.0596 H         1 ATP         0.4417
     42 H1'         1.7826    1.9024    1.6451 H         1 ATP         0.1307
     43 H8         -1.4217    1.8638    0.9164 H         1 ATP         0.2875
     44 HN61       -2.4023    5.7711   -1.5477 H         1 ATP         0.4559
     45 HN62       -1.4857    6.9379   -2.4627 H         1 ATP         0.4559
     46 H2          2.8789    5.4660   -2.1503 H         1 ATP         0.0858
     47 H47        -2.4129    3.8706   -0.2402 H         1 ATP         0.5042
@<TRIPOS>BOND
     1    1    2 2
     2    1    3 1
     3    1    4 1
     4    1    8 1
     5    3   32 1
     6    4   33 1
     7    5    6 2
     8    5    7 1
     9    5    8 1
    10    5   12 1
    11    7   34 1
    12    9   10 2
    13    9   11 1
    14    9   12 1
    15    9   13 1
    16   13   14 1
    17   14   15 1
    18   14   35 1
    19   14   36 1
    20   15   16 1
    21   15   17 1
    22   15   37 1
    23   16   21 1
    24   17   18 1
    25   17   19 1
    26   17   38 1
    27   18   39 1
    28   19   20 1
    29   19   21 1
    30   19   40 1
    31   20   41 1
    32   21   22 1
    33   21   42 1
    34   22   23 ar
    35   22   31 ar
    36   23   24 ar
    37   23   43 1
    38   24   25 ar
    39   24   47 1
    40   25   26 ar
    41   25   31 ar
    42   26   27 1
    43   26   28 ar
    44   27   44 1
    45   27   45 1
    46   28   29 ar
    47   29   30 ar
    48   29   46 1
    49   30   31 ar
@<TRIPOS>SUBSTRUCTURE
     1 ATP         1 GROUP 0 A     ****
@<TRIPOS>MOLECULE
[5-(6-amino-7,8-dihydropurin-8-ylium-9-yl)-3,4-dihydroxy-tetrahydrofuran-2-yl]methyl [hydroxy(phosphonooxy)phosphoryl] phosphate
   47    49     1     0     0
SMALL
USER_CHARGES

@<TRIPOS>ATOM
      1 PG         -1.2218    2.4950   -4.4582 P.3       1 ATP         1.8237
      2 O1G        -0.8760    2.0908   -3.0556 O.2       1 ATP        -0.8455
      3 O2G        -2.3341    1.5653   -5.1745 O.3       1 ATP        -0.7970
      4 O3G        -1.8445    3.9807   -4.6008 O.3       1 ATP        -0.7970
      5 PB          0.9773    1.2976   -5.9945 P.3       1 ATP         1.9358
      6 O1B         0.2904    0.1363   -6.6502 O.2       1 ATP        -0.8836
      7 O2B         2.0677    2.0567   -6.9155 O.3       1 ATP        -0.8065
      8 O3B         0.0039    2.4911   -5.5089 O.3       1 ATP        -0.8233
      9 PA          3.0648   -0.0870   -4.4293 P.3       1 ATP         1.5686
     10 O1A         4.2654    0.4430   -5.1830 O.co2     1 ATP        -0.8169
     11 O2A         2.5779   -1.5030   -4.6479 O.co2     1 ATP        -0.8169
     12 O3A         1.8088    0.9287   -4.6595 O.3       1 ATP        -0.7987
     13 O5'         3.2883    0.1336   -2.8242 O.3       1 ATP        -0.5693
     14 C5'         2.2816   -0.2918   -1.9206 C.3       1 ATP         0.1841
     15 C4'         2.7248    0.0226   -0.4980 C.3       1 ATP         0.0904
     16 O4'         2.4697    1.4219   -0.2462 O.3       1 ATP        -0.4083
     17 C3'         1.9404   -0.7419    0.5596 C.3       1 ATP         0.0826
     18 O3'         2.7418   -0.8086    1.7389 O.3       1 ATP        -0.6106
     19 C2'         0.7477    0.1630    0.7858 C.3       1 ATP         0.1294
     20 O2'         0.1373   -0.0577    2.0407 O.3       1 ATP        -0.5701
     21 C1'         1.3733    1.5427    0.6747 C.3       1 ATP         0.3967
     22 N9          0.4520    2.5240    0.1767 N.pl3     1 ATP        -0.5600
     23 C8         -0.8252    2.3702   -0.1405 C.ar      1 ATP         0.3009
     24 N7         -1.4086    3.4861   -0.5739 N.pl3     1 ATP        -0.5113
     25 C5         -0.4324    4.4197   -0.5299 C.ar      1 ATP        -0.2824
     26 C6         -0.4006    5.7465   -0.8439 C.ar      1 ATP         0.7670
     27 N6         -1.5714    6.3708   -1.3211 N.pl3     1 ATP        -0.9491
     28 N1          0.7370    6.4615   -0.7020 N.ar      1 ATP        -0.7474
     29 C2          1.8196    5.7785   -0.2355 C.ar      1 ATP         0.7118
     30 N3          1.8948    4.4713    0.1036 N.ar      1 ATP        -0.6661
     31 C4          0.7337    3.8311   -0.0629 C.ar      1 ATP         0.6308
     32 HOG2       -2.1498    0.6089   -5.2905 H         1 ATP         0.4930
     33 HOG3       -1.3103    4.7490   -4.3064 H         1 ATP         0.4930
     34 HOB2        2.8366    1.5513   -7.2553 H         1 ATP         0.4808
     35 H5'1        1.3500    0.2325   -2.1560 H         1 ATP         0.0350
     36 H5'2        2.1266   -1.3683   -2.0443 H         1 ATP         0.0350
     37 H4'         3.8050   -0.1388   -0.4008 H         1 ATP         0.1244
     38 H3'         1.6784   -1.7629    0.2714 H         1 ATP         0.0924
     39 HO3'        2.2232   -1.2979    2.3953 H         1 ATP         0.4379
     40 H2'        -0.0011    0.0027    0.0003 H         1 ATP         0.0849
     41 HO2'       -0.6141    0.5574    2.1082 H         1 ATP         0.4417
     42 H1'         1.7826    1.9024    1.6451 H         1 ATP         0.1307
     43 H8         -1.3516    1.4351   -0.0582 H         1 ATP         0.2875
     44 HN61       -2.3936    5.8204   -1.4664 H         1 ATP         0.4559
     45 HN62       -1.5348    7.3319   -1.5955 H         1 ATP         0.4559
     46 H2          2.7305    6.3553   -0.1232 H         1 ATP         0.0858
     47 H47        -2.3700    3.5931   -0.8665 H         1 ATP         0.5042
@<TRIPOS>BOND
     1    1    2 2
     2    1    3 1
     3    1    4 1
     4    1    8 1
     5    3   32 1
     6    4   33 1
     7    5    6 2
     8    5    7 1
     9    5    8 1
    10    5   12 1
    11    7   34 1
    12    9   10 2
    13    9   11 1
    14    9   12 1
    15    9   13 1
    16   13   14 1
    17   14   15 1
    18   14   35 1
    19   14   36 1
    20   15   16 1
    21   15   17 1
    22   15   37 1
    23   16   21 1
    24   17   18 1
    25   17   19 1
    26   17   38 1
    27   18   39 1
    28   19   20 1
    29   19   21 1
    30   19   40 1
    31   20   41 1
    32   21   22 1
    33   21   42 1
    34   22   23 ar
    35   22   31 ar
    36   23   24 ar
    37   23   43 1
    38   24   25 ar
    39   24   47 1
    40   25   26 ar
    41   25   31 ar
    42   26   27 1
    43   26   28 ar
    44   27   44 1
    45   27   45 1
    46   28   29 ar
    47   29   30 ar
    48   29   46 1
    49   30   31 ar
@<TRIPOS>SUBSTRUCTURE
     1 ATP         1 GROUP 0 A     ****
@<TRIPOS>MOLECULE
[5-(6-amino-7,8-dihydropurin-8-ylium-9-yl)-3,4-dihydroxy-tetrahydrofuran-2-yl]methyl [hydroxy(phosphonooxy)phosphoryl] phosphate
   47    49     1     0     0
SMALL
USER_CHARGES

@<TRIPOS>ATOM
      1 PG          1.0659   -3.8931   -5.5508 P.3       1 ATP         1.8237
      2 O1G         1.9605   -4.0052   -4.3518 O.2       1 ATP        -0.8455
      3 O2G         1.7556   -4.3174   -6.9504 O.3       1 ATP        -0.7970
      4 O3G        -0.2546   -4.8253   -5.4998 O.3       1 ATP        -0.7970
      5 PB          1.2365   -1.0264   -6.1696 P.3       1 ATP         1.9358
      6 O1B         2.1057   -1.0326   -7.3922 O.2       1 ATP        -0.8836
      7 O2B         0.0340    0.0536   -6.1902 O.3       1 ATP        -0.8065
      8 O3B         0.4822   -2.4184   -5.8517 O.3       1 ATP        -0.8233
      9 PA          2.8596    0.6156   -4.3272 P.3       1 ATP         1.5686
     10 O1A         1.9183    1.7964   -4.2286 O.co2     1 ATP        -0.8169
     11 O2A         4.1119    0.6934   -5.1730 O.co2     1 ATP        -0.8169
     12 O3A         2.0092   -0.6980   -4.7894 O.3       1 ATP        -0.7987
     13 O5'         3.2883    0.1336   -2.8242 O.3       1 ATP        -0.5693
     14 C5'         2.2816   -0.2918   -1.9206 C.3       1 ATP         0.1841
     15 C4'         2.7248    0.0226   -0.4980 C.3       1 ATP         0.0904
     16 O4'         2.4697    1.4219   -0.2462 O.3       1 ATP        -0.4083
     17 C3'         1.9404   -0.7419    0.5596 C.3       1 ATP         0.0826
     18 O3'         2.7418   -0.8086    1.7389 O.3       1 ATP        -0.6106
     19 C2'         0.7477    0.1630    0.7858 C.3       1 ATP         0.1294
     20 O2'         0.1373   -0.0577    2.0407 O.3       1 ATP        -0.5701
     21 C1'         1.3733    1.5427    0.6747 C.3       1 ATP         0.3967
     22 N9          0.4520    2.5240    0.1767 N.pl3     1 ATP        -0.5600
     23 C8         -0.8602    2.5861    0.3496 C.ar      1 ATP         0.3009
     24 N7         -1.4308    3.6326   -0.2443 N.pl3     1 ATP        -0.5113
     25 C5         -0.4080    4.2856   -0.8394 C.ar      1 ATP        -0.2824
     26 C6         -0.3432    5.4196   -1.5943 C.ar      1 ATP         0.7670
     27 N6         -1.5276    6.1333   -1.8702 N.pl3     1 ATP        -0.9491
     28 N1          0.8395    5.8603   -2.0764 N.ar      1 ATP        -0.7474
     29 C2          1.9319    5.1095   -1.7617 C.ar      1 ATP         0.7118
     30 N3          1.9773    3.9761   -1.0249 N.ar      1 ATP        -0.6661
     31 C4          0.7724    3.6031   -0.5836 C.ar      1 ATP         0.6308
     32 HOG2        2.0995   -5.2303   -7.0524 H         1 ATP         0.4930
     33 HOG3       -0.8969   -4.6984   -4.7693 H         1 ATP         0.4930
     34 HOB2        0.2527    1.0065   -6.2697 H         1 ATP         0.4808
     35 H5'1        1.3500    0.2325   -2.1560 H         1 ATP         0.0350
     36 H5'2        2.1266   -1.3683   -2.0443 H         1 ATP         0.0350
     37 H4'         3.8050   -0.1388   -0.4008 H         1 ATP         0.1244
     38 H3'         1.6784   -1.7629    0.2714 H         1 ATP         0.0924
     39 HO3'        3.5554   -1.2733    1.4914 H         1 ATP         0.4379
     40 H2'        -0.0011    0.0027    0.0003 H         1 ATP         0.0849
     41 HO2'       -0.1563   -0.9855    2.0596 H         1 ATP         0.4417
     42 H1'         1.7826    1.9024    1.6451 H         1 ATP         0.1307
     43 H8         -1.4217    1.8638    0.9164 H         1 ATP         0.2875
     44 HN61       -2.4023    5.7711   -1.5477 H         1 ATP         0.4559
     45 HN62       -1.4857    6.9379   -2.4627 H         1 ATP         0.4559
     46 H2          2.8789    5.4660   -2.1503 H         1 ATP         0.0858
     47 H47        -2.4129    3.8706   -0.2402 H         1 ATP         0.5042
@<TRIPOS>BOND
     1    1    2 2
     2    1    3 1
     3    1    4 1
     4    1    8 1
     5    3   32 1
     6    4   33 1
     7    5    6 2
     8    5    7 1
     9    5    8 1
    10    5   12 1
    11    7   34 1
    12    9   10 2
    13    9   11 1
    14    9   12 1
    15    9   13 1
    16   13   14 1
    17   14   15 1
    18   14   35 1
    19   14   36 1
    20   15   16 1
    21   15   17 1
    22   15   37 1
    23   16   21 1
    24   17   18 1
    25   17   19 1
    26   17   38 1
    27   18   39 1
    28   19   20 1
    29   19   21 1
    30   19   40 1
    31   20   41 1
    32   21   22 1
    33   21   42 1
    34   22   23 ar
    35   22   31 ar
    36   23   24 ar
    37   23   43 1
    38   24   25 ar
    39   24   47 1
    40   25   26 ar
    41   25   31 ar
    42   26   27 1
    43   26   28 ar
    44   27   44 1
    45   27   45 1
    46   28   29 ar
    47   29   30 ar
    48   29   46 1
    49   30   31 ar
@<TRIPOS>SUBSTRUCTURE
     1 ATP         1 GROUP 0 A     ****
@<TRIPOS>MOLECULE
[5-(6-amino-7,8-dihydropurin-8-ylium-9-yl)-3,4-dihydroxy-tetrahydrofuran-2-yl]methyl [hydroxy(phosphonooxy)phosphoryl] phosphate
   47    49     1     0     0
SMALL
USER_CHARGES

@<TRIPOS>ATOM
      1 PG          5.0085    1.0380   -6.0770 P.3       1 ATP         1.8237
      2 O1G         4.7448    1.5138   -4.6790 O.2       1 ATP        -0.8455
      3 O2G         4.0874    1.7303   -7.2114 O.3       1 ATP        -0.7970
      4 O3G         6.5098    1.3102   -6.6130 O.3       1 ATP        -0.7970
      5 PB          3.4815   -1.4701   -6.1628 P.3       1 ATP         1.9358
      6 O1B         2.3063   -1.0794   -7.0094 O.2       1 ATP        -0.8836
      7 O2B         4.0458   -2.9626   -6.4222 O.3       1 ATP        -0.8065
      8 O3B         4.7920   -0.5417   -6.3301 O.3       1 ATP        -0.8233
      9 PA          2.1361   -2.2694   -3.6576 P.3       1 ATP         1.5686
     10 O1A         2.4847   -3.7413   -3.7034 O.co2     1 ATP        -0.8169
     11 O2A         0.7444   -1.7928   -4.0127 O.co2     1 ATP        -0.8169
     12 O3A         3.2088   -1.4460   -4.5707 O.3       1 ATP        -0.7987
     13 O5'         2.5237   -1.6631   -2.1889 O.3       1 ATP        -0.5693
     14 C5'         2.2816   -0.2918   -1.9206 C.3       1 ATP         0.1841
     15 C4'         2.7248    0.0226   -0.4980 C.3       1 ATP         0.0904
     16 O4'         2.4697    1.4219   -0.2462 O.3       1 ATP        -0.4083
     17 C3'         1.9404   -0.7419    0.5596 C.3       1 ATP         0.0826
     18 O3'         2.7418   -0.8086    1.7389 O.3       1 ATP        -0.6106
     19 C2'         0.7477    0.1630    0.7858 C.3       1 ATP         0.1294
     20 O2'         0.1373   -0.0577    2.0407 O.3       1 ATP        -0.5701
     21 C1'         1.3733    1.5427    0.6747 C.3       1 ATP         0.3967
     22 N9          0.4520    2.5240    0.1767 N.pl3     1 ATP        -0.5600
     23 C8         -0.8602    2.5861    0.3496 C.ar      1 ATP         0.3009
     24 N7         -1.4308    3.6326   -0.2443 N.pl3     1 ATP        -0.5113
     25 C5         -0.4080    4.2856   -0.8394 C.ar      1 ATP        -0.2824
     26 C6         -0.3432    5.4196   -1.5943 C.ar      1 ATP         0.7670
     27 N6         -1.5276    6.1333   -1.8702 N.pl3     1 ATP        -0.9491
     28 N1          0.8395    5.8603   -2.0764 N.ar      1 ATP        -0.7474
     29 C2          1.9319    5.1095   -1.7617 C.ar      1 ATP         0.7118
     30 N3          1.9773    3.9761   -1.0249 N.ar      1 ATP        -0.6661
     31 C4          0.7724    3.6031   -0.5836 C.ar      1 ATP         0.6308
     32 HOG2        3.1130    1.6325   -7.1562 H         1 ATP         0.4930
     33 HOG3        7.2653    0.9125   -6.1298 H         1 ATP         0.4930
     34 HOB2        3.4488   -3.7276   -6.2792 H         1 ATP         0.4808
     35 H5'1        2.8429    0.3140   -2.6391 H         1 ATP         0.0350
     36 H5'2        1.2125   -0.0906   -2.0420 H         1 ATP         0.0350
     37 H4'         3.8050   -0.1388   -0.4008 H         1 ATP         0.1244
     38 H3'         1.6784   -1.7629    0.2714 H         1 ATP         0.0924
     39 HO3'        2.2232   -1.2979    2.3953 H         1 ATP         0.4379
     40 H2'        -0.0011    0.0027    0.0003 H         1 ATP         0.0849
     41 HO2'       -0.1563   -0.9855    2.0596 H         1 ATP         0.4417
     42 H1'         1.7826    1.9024    1.6451 H         1 ATP         0.1307
     43 H8         -1.4217    1.8638    0.9164 H         1 ATP         0.2875
     44 HN61       -2.4023    5.7711   -1.5477 H         1 ATP         0.4559
     45 HN62       -1.4857    6.9379   -2.4627 H         1 ATP         0.4559
     46 H2          2.8789    5.4660   -2.1503 H         1 ATP         0.0858
     47 H47        -2.4129    3.8706   -0.2402 H         1 ATP         0.5042
@<TRIPOS>BOND
     1    1    2 2
     2    1    3 1
     3    1    4 1
     4    1    8 1
     5    3   32 1
     6    4   33 1
     7    5    6 2
     8    5    7 1
     9    5    8 1
    10    5   12 1
    11    7   34 1
    12    9   10 2
    13    9   11 1
    14    9   12 1
    15    9   13 1
    16   13   14 1
    17   14   15 1
    18   14   35 1
    19   14   36 1
    20   15   16 1
    21   15   17 1
    22   15   37 1
    23   16   21 1
    24   17   18 1
    25   17   19 1
    26   17   38 1
    27   18   39 1
    28   19   20 1
    29   19   21 1
    30   19   40 1
    31   20   41 1
    32   21   22 1
    33   21   42 1
    34   22   23 ar
    35   22   31 ar
    36   23   24 ar
    37   23   43 1
    38   24   25 ar
    39   24   47 1
    40   25   26 ar
    41   25   31 ar
    42   26   27 1
    43   26   28 ar
    44   27   44 1
    45   27   45 1
    46   28   29 ar
    47   29   30 ar
    48   29   46 1
    49   30   31 ar
@<TRIPOS>SUBSTRUCTURE
     1 ATP         1 GROUP 0 A     ****
@<TRIPOS>MOLECULE
[5-(6-amino-7,8-dihydropurin-8-ylium-9-yl)-3,4-dihydroxy-tetrahydrofuran-2-yl]methyl [hydroxy(phosphonooxy)phosphoryl] phosphate
   47    49     1     0     0
SMALL
USER_CHARGES

@<TRIPOS>ATOM
      1 PG          1.9547   -3.7589   -5.8573 P.3       1 ATP         1.8237
      2 O1G         2.9397   -3.6808   -4.7285 O.2       1 ATP        -0.8455
      3 O2G         2.6186   -3.8128   -7.3307 O.3       1 ATP        -0.7970
      4 O3G         1.0060   -5.0685   -5.8388 O.3       1 ATP        -0.7970
      5 PB          1.1565   -0.9482   -6.1619 P.3       1 ATP         1.9358
      6 O1B         1.8733   -0.5657   -7.4230 O.2       1 ATP        -0.8836
      7 O2B        -0.3226   -0.3173   -5.9971 O.3       1 ATP        -0.8065
      8 O3B         0.9112   -2.5315   -5.9603 O.3       1 ATP        -0.8233
      9 PA          2.3317    0.9615   -4.2392 P.3       1 ATP         1.5686
     10 O1A         1.0779    1.7613   -3.9590 O.co2     1 ATP        -0.8169
     11 O2A         3.4167    1.5139   -5.1378 O.co2     1 ATP        -0.8169
     12 O3A         1.9029   -0.5105   -4.7977 O.3       1 ATP        -0.7987
     13 O5'         3.0197    0.5137   -2.8245 O.3       1 ATP        -0.5693
     14 C5'         2.2816   -0.2918   -1.9206 C.3       1 ATP         0.1841
     15 C4'         2.7248    0.0226   -0.4980 C.3       1 ATP         0.0904
     16 O4'         2.4697    1.4219   -0.2462 O.3       1 ATP        -0.4083
     17 C3'         1.9404   -0.7419    0.5596 C.3       1 ATP         0.0826
     18 O3'         2.7418   -0.8086    1.7389 O.3       1 ATP        -0.6106
     19 C2'         0.7477    0.1630    0.7858 C.3       1 ATP         0.1294
     20 O2'         0.1373   -0.0577    2.0407 O.3       1 ATP        -0.5701
     21 C1'         1.3733    1.5427    0.6747 C.3       1 ATP         0.3967
     22 N9          0.4520    2.5240    0.1767 N.pl3     1 ATP        -0.5600
     23 C8         -0.5899    2.3466   -0.6224 C.ar      1 ATP         0.3009
     24 N7         -1.2514    3.4689   -0.8989 N.pl3     1 ATP        -0.5113
     25 C5         -0.5826    4.4323   -0.2272 C.ar      1 ATP        -0.2824
     26 C6         -0.7636    5.7789   -0.1086 C.ar      1 ATP         0.7670
     27 N6         -1.8382    6.3927   -0.7843 N.pl3     1 ATP        -0.9491
     28 N1          0.0741    6.5233    0.6461 N.ar      1 ATP        -0.7474
     29 C2          1.0845    5.8486    1.2626 C.ar      1 ATP         0.7118
     30 N3          1.3516    4.5236    1.2116 N.ar      1 ATP        -0.6661
     31 C4          0.4827    3.8546    0.4481 C.ar      1 ATP         0.6308
     32 HOG2        3.1863   -3.0682   -7.6229 H         1 ATP         0.4930
     33 HOG3        0.4226   -5.2206   -5.0649 H         1 ATP         0.4930
     34 HOB2       -0.4239    0.6582   -5.9820 H         1 ATP         0.4808
     35 H5'1        1.2153   -0.0781   -2.0454 H         1 ATP         0.0350
     36 H5'2        2.4645   -1.3454   -2.1547 H         1 ATP         0.0350
     37 H4'         3.8050   -0.1388   -0.4008 H         1 ATP         0.1244
     38 H3'         1.6784   -1.7629    0.2714 H         1 ATP         0.0924
     39 HO3'        2.2232   -1.2979    2.3953 H         1 ATP         0.4379
     40 H2'        -0.0011    0.0027    0.0003 H         1 ATP         0.0849
     41 HO2'       -0.6141    0.5574    2.1082 H         1 ATP         0.4417
     42 H1'         1.7826    1.9024    1.6451 H         1 ATP         0.1307
     43 H8         -0.8833    1.3888   -1.0158 H         1 ATP         0.2875
     44 HN61       -2.4225    5.8385   -1.3773 H         1 ATP         0.4559
     45 HN62       -1.9421    7.3862   -0.7348 H         1 ATP         0.4559
     46 H2          1.7546    6.4491    1.8670 H         1 ATP         0.0858
     47 H47        -2.0705    3.5612   -1.4834 H         1 ATP         0.5042
@<TRIPOS>BOND
     1    1    2 2
     2    1    3 1
     3    1    4 1
     4    1    8 1
     5    3   32 1
     6    4   33 1
     7    5    6 2
     8    5    7 1
     9    5    8 1
    10    5   12 1
    11    7   34 1
    12    9   10 2
    13    9   11 1
    14    9   12 1
    15    9   13 1
    16   13   14 1
    17   14   15 1
    18   14   35 1
    19   14   36 1
    20   15   16 1
    21   15   17 1
    22   15   37 1
    23   16   21 1
    24   17   18 1
    25   17   19 1
    26   17   38 1
    27   18   39 1
    28   19   20 1
    29   19   21 1
    30   19   40 1
    31   20   41 1
    32   21   22 1
    33   21   42 1
    34   22   23 ar
    35   22   31 ar
    36   23   24 ar
    37   23   43 1
    38   24   25 ar
    39   24   47 1
    40   25   26 ar
    41   25   31 ar
    42   26   27 1
    43   26   28 ar
    44   27   44 1
    45   27   45 1
    46   28   29 ar
    47   29   30 ar
    48   29   46 1
    49   30   31 ar
@<TRIPOS>SUBSTRUCTURE
     1 ATP         1 GROUP 0 A     ****
@<TRIPOS>MOLECULE
[5-(6-amino-7,8-dihydropurin-8-ylium-9-yl)-3,4-dihydroxy-tetrahydrofuran-2-yl]methyl [hydroxy(phosphonooxy)phosphoryl] phosphate
   47    49     1     0     0
SMALL
USER_CHARGES

@<TRIPOS>ATOM
      1 PG          7.4079   -1.4823   -6.8459 P.3       1 ATP         1.8237
      2 O1G         8.5935   -2.2223   -6.3009 O.2       1 ATP        -0.8455
      3 O2G         7.7465   -0.0291   -7.4688 O.3       1 ATP        -0.7970
      4 O3G         6.6438   -2.2284   -8.0603 O.3       1 ATP        -0.7970
      5 PB          5.3185   -2.1638   -4.8966 P.3       1 ATP         1.9358
      6 O1B         4.4867   -3.1403   -5.6744 O.2       1 ATP        -0.8836
      7 O2B         6.3792   -2.8299   -3.8746 O.3       1 ATP        -0.8065
      8 O3B         6.2305   -1.1715   -5.7861 O.3       1 ATP        -0.8233
      9 PA          3.3322   -0.0533   -4.3265 P.3       1 ATP         1.5686
     10 O1A         2.1130   -0.7769   -4.8559 O.co2     1 ATP        -0.8169
     11 O2A         3.9798    1.0571   -5.1250 O.co2     1 ATP        -0.8169
     12 O3A         4.4780   -1.1544   -3.9562 O.3       1 ATP        -0.7987
     13 O5'         3.0197    0.5137   -2.8245 O.3       1 ATP        -0.5693
     14 C5'         2.2816   -0.2918   -1.9206 C.3       1 ATP         0.1841
     15 C4'         2.7248    0.0226   -0.4980 C.3       1 ATP         0.0904
     16 O4'         2.4697    1.4219   -0.2462 O.3       1 ATP        -0.4083
     17 C3'         1.9404   -0.7419    0.5596 C.3       1 ATP         0.0826
     18 O3'         2.7418   -0.8086    1.7389 O.3       1 ATP        -0.6106
     19 C2'         0.7477    0.1630    0.7858 C.3       1 ATP         0.1294
     20 O2'         0.1373   -0.0577    2.0407 O.3       1 ATP        -0.5701
     21 C1'         1.3733    1.5427    0.6747 C.3       1 ATP         0.3967
     22 N9          0.4520    2.5240    0.1767 N.pl3     1 ATP        -0.5600
     23 C8         -0.8602    2.5861    0.3496 C.ar      1 ATP         0.3009
     24 N7         -1.4308    3.6326   -0.2443 N.pl3     1 ATP        -0.5113
     25 C5         -0.4080    4.2856   -0.8394 C.ar      1 ATP        -0.2824
     26 C6         -0.3432    5.4196   -1.5943 C.ar      1 ATP         0.7670
     27 N6         -1.5276    6.1333   -1.8702 N.pl3     1 ATP        -0.9491
     28 N1          0.8395    5.8603   -2.0764 N.ar      1 ATP        -0.7474
     29 C2          1.9319    5.1095   -1.7617 C.ar      1 ATP         0.7118
     30 N3          1.9773    3.9761   -1.0249 N.ar      1 ATP        -0.6661
     31 C4          0.7724    3.6031   -0.5836 C.ar      1 ATP         0.6308
     32 HOG2        8.1488    0.6532   -6.8903 H         1 ATP         0.4930
     33 HOG3        6.2592   -3.1172   -7.9038 H         1 ATP         0.4930
     34 HOB2        7.0727   -3.4251   -4.2310 H         1 ATP         0.4808
     35 H5'1        1.2153   -0.0781   -2.0454 H         1 ATP         0.0350
     36 H5'2        2.4645   -1.3454   -2.1547 H         1 ATP         0.0350
     37 H4'         3.8050   -0.1388   -0.4008 H         1 ATP         0.1244
     38 H3'         1.6784   -1.7629    0.2714 H         1 ATP         0.0924
     39 HO3'        2.2232   -1.2979    2.3953 H         1 ATP         0.4379
     40 H2'        -0.0011    0.0027    0.0003 H         1 ATP         0.0849
     41 HO2'       -0.1563   -0.9855    2.0596 H         1 ATP         0.4417
     42 H1'         1.7826    1.9024    1.6451 H         1 ATP         0.1307
     43 H8         -1.4217    1.8638    0.9164 H         1 ATP         0.2875
     44 HN61       -2.4023    5.7711   -1.5477 H         1 ATP         0.4559
     45 HN62       -1.4857    6.9379   -2.4627 H         1 ATP         0.4559
     46 H2          2.8789    5.4660   -2.1503 H         1 ATP         0.0858
     47 H47        -2.4129    3.8706   -0.2402 H         1 ATP         0.5042
@<TRIPOS>BOND
     1    1    2 2
     2    1    3 1
     3    1    4 1
     4    1    8 1
     5    3   32 1
     6    4   33 1
     7    5    6 2
     8    5    7 1
     9    5    8 1
    10    5   12 1
    11    7   34 1
    12    9   10 2
    13    9   11 1
    14    9   12 1
    15    9   13 1
    16   13   14 1
    17   14   15 1
    18   14   35 1
    19   14   36 1
    20   15   16 1
    21   15   17 1
    22   15   37 1
    23   16   21 1
    24   17   18 1
    25   17   19 1
    26   17   38 1
    27   18   39 1
    28   19   20 1
    29   19   21 1
    30   19   40 1
    31   20   41 1
    32   21   22 1
    33   21   42 1
    34   22   23 ar
    35   22   31 ar
    36   23   24 ar
    37   23   43 1
    38   24   25 ar
    39   24   47 1
    40   25   26 ar
    41   25   31 ar
    42   26   27 1
    43   26   28 ar
    44   27   44 1
    45   27   45 1
    46   28   29 ar
    47   29   30 ar
    48   29   46 1
    49   30   31 ar
@<TRIPOS>SUBSTRUCTURE
     1 ATP         1 GROUP 0 A     ****
@<TRIPOS>MOLECULE
[5-(6-amino-7,8-dihydropurin-8-ylium-9-yl)-3,4-dihydroxy-tetrahydrofuran-2-yl]methyl [hydroxy(phosphonooxy)phosphoryl] phosphate
   47    49     1     0     0
SMALL
USER_CHARGES

@<TRIPOS>ATOM
      1 PG          4.2997   -4.3745   -4.6544 P.3       1 ATP         1.8237
      2 O1G         2.8008   -4.3287   -4.6146 O.2       1 ATP        -0.8455
      3 O2G         5.0031   -4.7131   -3.2383 O.3       1 ATP        -0.7970
      4 O3G         4.9169   -5.4955   -5.6432 O.3       1 ATP        -0.7970
      5 PB          4.9987   -1.5262   -4.4846 P.3       1 ATP         1.9358
      6 O1B         5.4981   -1.4214   -3.0739 O.2       1 ATP        -0.8836
      7 O2B         5.8120   -0.6419   -5.5661 O.3       1 ATP        -0.8065
      8 O3B         5.0284   -3.0109   -5.1190 O.3       1 ATP        -0.8233
      9 PA          2.7386    0.3748   -4.4298 P.3       1 ATP         1.5686
     10 O1A         1.2524    0.2205   -4.6698 O.co2     1 ATP        -0.8169
     11 O2A         3.5296    1.4502   -5.1423 O.co2     1 ATP        -0.8169
     12 O3A         3.4667   -1.0606   -4.6985 O.3       1 ATP        -0.7987
     13 O5'         3.0197    0.5137   -2.8245 O.3       1 ATP        -0.5693
     14 C5'         2.2816   -0.2918   -1.9206 C.3       1 ATP         0.1841
     15 C4'         2.7248    0.0226   -0.4980 C.3       1 ATP         0.0904
     16 O4'         2.4697    1.4219   -0.2462 O.3       1 ATP        -0.4083
     17 C3'         1.9404   -0.7419    0.5596 C.3       1 ATP         0.0826
     18 O3'         2.7418   -0.8086    1.7389 O.3       1 ATP        -0.6106
     19 C2'         0.7477    0.1630    0.7858 C.3       1 ATP         0.1294
     20 O2'         0.1373   -0.0577    2.0407 O.3       1 ATP        -0.5701
     21 C1'         1.3733    1.5427    0.6747 C.3       1 ATP         0.3967
     22 N9          0.4520    2.5240    0.1767 N.pl3     1 ATP        -0.5600
     23 C8         -0.5899    2.3466   -0.6224 C.ar      1 ATP         0.3009
     24 N7         -1.2514    3.4689   -0.8989 N.pl3     1 ATP        -0.5113
     25 C5         -0.5826    4.4323   -0.2272 C.ar      1 ATP        -0.2824
     26 C6         -0.7636    5.7789   -0.1086 C.ar      1 ATP         0.7670
     27 N6         -1.8382    6.3927   -0.7843 N.pl3     1 ATP        -0.9491
     28 N1          0.0741    6.5233    0.6461 N.ar      1 ATP        -0.7474
     29 C2          1.0845    5.8486    1.2626 C.ar      1 ATP         0.7118
     30 N3          1.3516    4.5236    1.2116 N.ar      1 ATP        -0.6661
     31 C4          0.4827    3.8546    0.4481 C.ar      1 ATP         0.6308
     32 HOG2        4.7969   -5.5649   -2.7977 H         1 ATP         0.4930
     33 HOG3        4.7013   -5.4550   -6.5994 H         1 ATP         0.4930
     34 HOB2        5.8491    0.3316   -5.4521 H         1 ATP         0.4808
     35 H5'1        1.2153   -0.0781   -2.0454 H         1 ATP         0.0350
     36 H5'2        2.4645   -1.3454   -2.1547 H         1 ATP         0.0350
     37 H4'         3.8050   -0.1388   -0.4008 H         1 ATP         0.1244
     38 H3'         1.6784   -1.7629    0.2714 H         1 ATP         0.0924
     39 HO3'        2.2232   -1.2979    2.3953 H         1 ATP         0.4379
     40 H2'        -0.0011    0.0027    0.0003 H         1 ATP         0.0849
     41 HO2'       -0.1563   -0.9855    2.0596 H         1 ATP         0.4417
     42 H1'         1.7826    1.9024    1.6451 H         1 ATP         0.1307
     43 H8         -0.8833    1.3888   -1.0158 H         1 ATP         0.2875
     44 HN61       -2.4225    5.8385   -1.3773 H         1 ATP         0.4559
     45 HN62       -1.9421    7.3862   -0.7348 H         1 ATP         0.4559
     46 H2          1.7546    6.4491    1.8670 H         1 ATP         0.0858
     47 H47        -2.0705    3.5612   -1.4834 H         1 ATP         0.5042
@<TRIPOS>BOND
     1    1    2 2
     2    1    3 1
     3    1    4 1
     4    1    8 1
     5    3   32 1
     6    4   33 1
     7    5    6 2
     8    5    7 1
     9    5    8 1
    10    5   12 1
    11    7   34 1
    12    9   10 2
    13    9   11 1
    14    9   12 1
    15    9   13 1
    16   13   14 1
    17   14   15 1
    18   14   35 1
    19   14   36 1
    20   15   16 1
    21   15   17 1
    22   15   37 1
    23   16   21 1
    24   17   18 1
    25   17   19 1
    26   17   38 1
    27   18   39 1
    28   19   20 1
    29   19   21 1
    30   19   40 1
    31   20   41 1
    32   21   22 1
    33   21   42 1
    34   22   23 ar
    35   22   31 ar
    36   23   24 ar
    37   23   43 1
    38   24   25 ar
    39   24   47 1
    40   25   26 ar
    41   25   31 ar
    42   26   27 1
    43   26   28 ar
    44   27   44 1
    45   27   45 1
    46   28   29 ar
    47   29   30 ar
    48   29   46 1
    49   30   31 ar
@<TRIPOS>SUBSTRUCTURE
     1 ATP         1 GROUP 0 A     ****
@<TRIPOS>MOLECULE
[5-(6-amino-7,8-dihydropurin-8-ylium-9-yl)-3,4-dihydroxy-tetrahydrofuran-2-yl]methyl [hydroxy(phosphonooxy)phosphoryl] phosphate
   47    49     1     0     0
SMALL
USER_CHARGES

@<TRIPOS>ATOM
      1 PG          4.0763    2.2077   -6.0451 P.3       1 ATP         1.8237
      2 O1G         3.7984    2.4479   -4.5907 O.2       1 ATP        -0.8455
      3 O2G         2.8886    2.6621   -7.0439 O.3       1 ATP        -0.7970
      4 O3G         5.3621    2.9964   -6.6282 O.3       1 ATP        -0.7970
      5 PB          3.4183   -0.6415   -6.3263 P.3       1 ATP         1.9358
      6 O1B         2.1109   -0.5787   -7.0592 O.2       1 ATP        -0.8836
      7 O2B         4.4004   -1.8427   -6.7802 O.3       1 ATP        -0.8065
      8 O3B         4.3487    0.6715   -6.4602 O.3       1 ATP        -0.8233
      9 PA          2.6176   -2.0495   -3.8562 P.3       1 ATP         1.5686
     10 O1A         3.4079   -3.3198   -4.0842 O.co2     1 ATP        -0.8169
     11 O2A         1.1213   -2.0189   -4.0801 O.co2     1 ATP        -0.8169
     12 O3A         3.2916   -0.8468   -4.7290 O.3       1 ATP        -0.7987
     13 O5'         2.9201   -1.4821   -2.3524 O.3       1 ATP        -0.5693
     14 C5'         2.2816   -0.2918   -1.9206 C.3       1 ATP         0.1841
     15 C4'         2.7248    0.0226   -0.4980 C.3       1 ATP         0.0904
     16 O4'         2.4697    1.4219   -0.2462 O.3       1 ATP        -0.4083
     17 C3'         1.9404   -0.7419    0.5596 C.3       1 ATP         0.0826
     18 O3'         2.7418   -0.8086    1.7389 O.3       1 ATP        -0.6106
     19 C2'         0.7477    0.1630    0.7858 C.3       1 ATP         0.1294
     20 O2'         0.1373   -0.0577    2.0407 O.3       1 ATP        -0.5701
     21 C1'         1.3733    1.5427    0.6747 C.3       1 ATP         0.3967
     22 N9          0.4520    2.5240    0.1767 N.pl3     1 ATP        -0.5600
     23 C8         -0.3477    3.3274    0.8626 C.ar      1 ATP         0.3009
     24 N7         -1.0836    4.1323    0.0983 N.pl3     1 ATP        -0.5113
     25 C5         -0.7273    3.8194   -1.1674 C.ar      1 ATP        -0.2824
     26 C6         -1.1208    4.2877   -2.3863 C.ar      1 ATP         0.7670
     27 N6         -2.0932    5.3066   -2.4528 N.pl3     1 ATP        -0.9491
     28 N1         -0.5892    3.7853   -3.5223 N.ar      1 ATP        -0.7474
     29 C2          0.3427    2.8040   -3.3648 C.ar      1 ATP         0.7118
     30 N3          0.8012    2.2709   -2.2093 N.ar      1 ATP        -0.6661
     31 C4          0.2307    2.8167   -1.1312 C.ar      1 ATP         0.6308
     32 HOG2        2.0036    2.2502   -6.9472 H         1 ATP         0.4930
     33 HOG3        6.2435    2.8233   -6.2338 H         1 ATP         0.4930
     34 HOB2        4.0904   -2.7690   -6.6909 H         1 ATP         0.4808
     35 H5'1        2.5581    0.5235   -2.5966 H         1 ATP         0.0350
     36 H5'2        1.1974   -0.4370   -1.9607 H         1 ATP         0.0350
     37 H4'         3.8050   -0.1388   -0.4008 H         1 ATP         0.1244
     38 H3'         1.6784   -1.7629    0.2714 H         1 ATP         0.0924
     39 HO3'        2.2232   -1.2979    2.3953 H         1 ATP         0.4379
     40 H2'        -0.0011    0.0027    0.0003 H         1 ATP         0.0849
     41 HO2'       -0.6141    0.5574    2.1082 H         1 ATP         0.4417
     42 H1'         1.7826    1.9024    1.6451 H         1 ATP         0.1307
     43 H8         -0.4040    3.3373    1.9373 H         1 ATP         0.2875
     44 HN61       -2.5133    5.6366   -1.6073 H         1 ATP         0.4559
     45 HN62       -2.4153    5.6161   -3.3477 H         1 ATP         0.4559
     46 H2          0.7668    2.4032   -4.2782 H         1 ATP         0.0858
     47 H47        -1.7549    4.8194    0.4122 H         1 ATP         0.5042
@<TRIPOS>BOND
     1    1    2 2
     2    1    3 1
     3    1    4 1
     4    1    8 1
     5    3   32 1
     6    4   33 1
     7    5    6 2
     8    5    7 1
     9    5    8 1
    10    5   12 1
    11    7   34 1
    12    9   10 2
    13    9   11 1
    14    9   12 1
    15    9   13 1
    16   13   14 1
    17   14   15 1
    18   14   35 1
    19   14   36 1
    20   15   16 1
    21   15   17 1
    22   15   37 1
    23   16   21 1
    24   17   18 1
    25   17   19 1
    26   17   38 1
    27   18   39 1
    28   19   20 1
    29   19   21 1
    30   19   40 1
    31   20   41 1
    32   21   22 1
    33   21   42 1
    34   22   23 ar
    35   22   31 ar
    36   23   24 ar
    37   23   43 1
    38   24   25 ar
    39   24   47 1
    40   25   26 ar
    41   25   31 ar
    42   26   27 1
    43   26   28 ar
    44   27   44 1
    45   27   45 1
    46   28   29 ar
    47   29   30 ar
    48   29   46 1
    49   30   31 ar
@<TRIPOS>SUBSTRUCTURE
     1 ATP         1 GROUP 0 A     ****
@<TRIPOS>MOLECULE
[5-(6-amino-7,8-dihydropurin-8-ylium-9-yl)-3,4-dihydroxy-tetrahydrofuran-2-yl]methyl [hydroxy(phosphonooxy)phosphoryl] phosphate
   47    49     1     0     0
SMALL
USER_CHARGES

@<TRIPOS>ATOM
      1 PG          6.6905   -3.5488   -5.2768 P.3       1 ATP         1.8237
      2 O1G         7.4658   -2.9095   -6.3905 O.2       1 ATP        -0.8455
      3 O2G         6.3639   -5.1174   -5.4946 O.3       1 ATP        -0.7970
      4 O3G         7.4295   -3.5285   -3.8385 O.3       1 ATP        -0.7970
      5 PB          4.8233   -1.4074   -4.5299 P.3       1 ATP         1.9358
      6 O1B         5.4096   -0.9343   -3.2326 O.2       1 ATP        -0.8836
      7 O2B         5.2081   -0.5141   -5.8210 O.3       1 ATP        -0.8065
      8 O3B         5.2427   -2.9027   -4.9725 O.3       1 ATP        -0.8233
      9 PA          2.1361   -2.2694   -3.6576 P.3       1 ATP         1.5686
     10 O1A         2.4847   -3.7413   -3.7034 O.co2     1 ATP        -0.8169
     11 O2A         0.7444   -1.7928   -4.0127 O.co2     1 ATP        -0.8169
     12 O3A         3.2088   -1.4460   -4.5707 O.3       1 ATP        -0.7987
     13 O5'         2.5237   -1.6631   -2.1889 O.3       1 ATP        -0.5693
     14 C5'         2.2816   -0.2918   -1.9206 C.3       1 ATP         0.1841
     15 C4'         2.7248    0.0226   -0.4980 C.3       1 ATP         0.0904
     16 O4'         2.4697    1.4219   -0.2462 O.3       1 ATP        -0.4083
     17 C3'         1.9404   -0.7419    0.5596 C.3       1 ATP         0.0826
     18 O3'         2.7418   -0.8086    1.7389 O.3       1 ATP        -0.6106
     19 C2'         0.7477    0.1630    0.7858 C.3       1 ATP         0.1294
     20 O2'         0.1373   -0.0577    2.0407 O.3       1 ATP        -0.5701
     21 C1'         1.3733    1.5427    0.6747 C.3       1 ATP         0.3967
     22 N9          0.4520    2.5240    0.1767 N.pl3     1 ATP        -0.5600
     23 C8         -0.8602    2.5861    0.3496 C.ar      1 ATP         0.3009
     24 N7         -1.4308    3.6326   -0.2443 N.pl3     1 ATP        -0.5113
     25 C5         -0.4080    4.2856   -0.8394 C.ar      1 ATP        -0.2824
     26 C6         -0.3432    5.4196   -1.5943 C.ar      1 ATP         0.7670
     27 N6         -1.5276    6.1333   -1.8702 N.pl3     1 ATP        -0.9491
     28 N1          0.8395    5.8603   -2.0764 N.ar      1 ATP        -0.7474
     29 C2          1.9319    5.1095   -1.7617 C.ar      1 ATP         0.7118
     30 N3          1.9773    3.9761   -1.0249 N.ar      1 ATP        -0.6661
     31 C4          0.7724    3.6031   -0.5836 C.ar      1 ATP         0.6308
     32 HOG2        5.8361   -5.3882   -6.2758 H         1 ATP         0.4930
     33 HOG3        7.6631   -2.6642   -3.4375 H         1 ATP         0.4930
     34 HOB2        6.1527   -0.4165   -6.0666 H         1 ATP         0.4808
     35 H5'1        2.8429    0.3140   -2.6391 H         1 ATP         0.0350
     36 H5'2        1.2125   -0.0906   -2.0420 H         1 ATP         0.0350
     37 H4'         3.8050   -0.1388   -0.4008 H         1 ATP         0.1244
     38 H3'         1.6784   -1.7629    0.2714 H         1 ATP         0.0924
     39 HO3'        2.2232   -1.2979    2.3953 H         1 ATP         0.4379
     40 H2'        -0.0011    0.0027    0.0003 H         1 ATP         0.0849
     41 HO2'       -0.1563   -0.9855    2.0596 H         1 ATP         0.4417
     42 H1'         1.7826    1.9024    1.6451 H         1 ATP         0.1307
     43 H8         -1.4217    1.8638    0.9164 H         1 ATP         0.2875
     44 HN61       -2.4023    5.7711   -1.5477 H         1 ATP         0.4559
     45 HN62       -1.4857    6.9379   -2.4627 H         1 ATP         0.4559
     46 H2          2.8789    5.4660   -2.1503 H         1 ATP         0.0858
     47 H47        -2.4129    3.8706   -0.2402 H         1 ATP         0.5042
@<TRIPOS>BOND
     1    1    2 2
     2    1    3 1
     3    1    4 1
     4    1    8 1
     5    3   32 1
     6    4   33 1
     7    5    6 2
     8    5    7 1
     9    5    8 1
    10    5   12 1
    11    7   34 1
    12    9   10 2
    13    9   11 1
    14    9   12 1
    15    9   13 1
    16   13   14 1
    17   14   15 1
    18   14   35 1
    19   14   36 1
    20   15   16 1
    21   15   17 1
    22   15   37 1
    23   16   21 1
    24   17   18 1
    25   17   19 1
    26   17   38 1
    27   18   39 1
    28   19   20 1
    29   19   21 1
    30   19   40 1
    31   20   41 1
    32   21   22 1
    33   21   42 1
    34   22   23 ar
    35   22   31 ar
    36   23   24 ar
    37   23   43 1
    38   24   25 ar
    39   24   47 1
    40   25   26 ar
    41   25   31 ar
    42   26   27 1
    43   26   28 ar
    44   27   44 1
    45   27   45 1
    46   28   29 ar
    47   29   30 ar
    48   29   46 1
    49   30   31 ar
@<TRIPOS>SUBSTRUCTURE
     1 ATP         1 GROUP 0 A     ****
@<TRIPOS>MOLECULE
[5-(6-amino-7,8-dihydropurin-8-ylium-9-yl)-3,4-dihydroxy-tetrahydrofuran-2-yl]methyl [hydroxy(phosphonooxy)phosphoryl] phosphate
   47    49     1     0     0
SMALL
USER_CHARGES

@<TRIPOS>ATOM
      1 PG          1.7408   -0.4514   -8.2988 P.3       1 ATP         1.8237
      2 O1G         2.6117    0.5890   -8.9386 O.2       1 ATP        -0.8455
      3 O2G         0.1766   -0.0542   -8.1979 O.3       1 ATP        -0.7970
      4 O3G         1.7052   -1.8723   -9.0702 O.3       1 ATP        -0.7970
      5 PB          3.4815   -1.4701   -6.1628 P.3       1 ATP         1.9358
      6 O1B         3.8842   -2.8064   -6.7129 O.2       1 ATP        -0.8836
      7 O2B         4.5643   -0.2885   -6.3740 O.3       1 ATP        -0.8065
      8 O3B         2.1258   -0.8486   -6.7821 O.3       1 ATP        -0.8233
      9 PA          2.1361   -2.2694   -3.6576 P.3       1 ATP         1.5686
     10 O1A         2.4847   -3.7413   -3.7034 O.co2     1 ATP        -0.8169
     11 O2A         0.7444   -1.7928   -4.0127 O.co2     1 ATP        -0.8169
     12 O3A         3.2088   -1.4460   -4.5707 O.3       1 ATP        -0.7987
     13 O5'         2.5237   -1.6631   -2.1889 O.3       1 ATP        -0.5693
     14 C5'         2.2816   -0.2918   -1.9206 C.3       1 ATP         0.1841
     15 C4'         2.7248    0.0226   -0.4980 C.3       1 ATP         0.0904
     16 O4'         2.4697    1.4219   -0.2462 O.3       1 ATP        -0.4083
     17 C3'         1.9404   -0.7419    0.5596 C.3       1 ATP         0.0826
     18 O3'         2.7418   -0.8086    1.7389 O.3       1 ATP        -0.6106
     19 C2'         0.7477    0.1630    0.7858 C.3       1 ATP         0.1294
     20 O2'         0.1373   -0.0577    2.0407 O.3       1 ATP        -0.5701
     21 C1'         1.3733    1.5427    0.6747 C.3       1 ATP         0.3967
     22 N9          0.4520    2.5240    0.1767 N.pl3     1 ATP        -0.5600
     23 C8         -0.8602    2.5861    0.3496 C.ar      1 ATP         0.3009
     24 N7         -1.4308    3.6326   -0.2443 N.pl3     1 ATP        -0.5113
     25 C5         -0.4080    4.2856   -0.8394 C.ar      1 ATP        -0.2824
     26 C6         -0.3432    5.4196   -1.5943 C.ar      1 ATP         0.7670
     27 N6         -1.5276    6.1333   -1.8702 N.pl3     1 ATP        -0.9491
     28 N1          0.8395    5.8603   -2.0764 N.ar      1 ATP        -0.7474
     29 C2          1.9319    5.1095   -1.7617 C.ar      1 ATP         0.7118
     30 N3          1.9773    3.9761   -1.0249 N.ar      1 ATP        -0.6661
     31 C4          0.7724    3.6031   -0.5836 C.ar      1 ATP         0.6308
     32 HOG2       -0.0779    0.7465   -7.6918 H         1 ATP         0.4930
     33 HOG3        2.5427   -2.3695   -9.1873 H         1 ATP         0.4930
     34 HOB2        4.8285   -0.0440   -7.2865 H         1 ATP         0.4808
     35 H5'1        2.8429    0.3140   -2.6391 H         1 ATP         0.0350
     36 H5'2        1.2125   -0.0906   -2.0420 H         1 ATP         0.0350
     37 H4'         3.8050   -0.1388   -0.4008 H         1 ATP         0.1244
     38 H3'         1.6784   -1.7629    0.2714 H         1 ATP         0.0924
     39 HO3'        2.2232   -1.2979    2.3953 H         1 ATP         0.4379
     40 H2'        -0.0011    0.0027    0.0003 H         1 ATP         0.0849
     41 HO2'       -0.1563   -0.9855    2.0596 H         1 ATP         0.4417
     42 H1'         1.7826    1.9024    1.6451 H         1 ATP         0.1307
     43 H8         -1.4217    1.8638    0.9164 H         1 ATP         0.2875
     44 HN61       -2.4023    5.7711   -1.5477 H         1 ATP         0.4559
     45 HN62       -1.4857    6.9379   -2.4627 H         1 ATP         0.4559
     46 H2          2.8789    5.4660   -2.1503 H         1 ATP         0.0858
     47 H47        -2.4129    3.8706   -0.2402 H         1 ATP         0.5042
@<TRIPOS>BOND
     1    1    2 2
     2    1    3 1
     3    1    4 1
     4    1    8 1
     5    3   32 1
     6    4   33 1
     7    5    6 2
     8    5    7 1
     9    5    8 1
    10    5   12 1
    11    7   34 1
    12    9   10 2
    13    9   11 1
    14    9   12 1
    15    9   13 1
    16   13   14 1
    17   14   15 1
    18   14   35 1
    19   14   36 1
    20   15   16 1
    21   15   17 1
    22   15   37 1
    23   16   21 1
    24   17   18 1
    25   17   19 1
    26   17   38 1
    27   18   39 1
    28   19   20 1
    29   19   21 1
    30   19   40 1
    31   20   41 1
    32   21   22 1
    33   21   42 1
    34   22   23 ar
    35   22   31 ar
    36   23   24 ar
    37   23   43 1
    38   24   25 ar
    39   24   47 1
    40   25   26 ar
    41   25   31 ar
    42   26   27 1
    43   26   28 ar
    44   27   44 1
    45   27   45 1
    46   28   29 ar
    47   29   30 ar
    48   29   46 1
    49   30   31 ar
@<TRIPOS>SUBSTRUCTURE
     1 ATP         1 GROUP 0 A     ****
@<TRIPOS>MOLECULE
[5-(6-amino-7,8-dihydropurin-8-ylium-9-yl)-3,4-dihydroxy-tetrahydrofuran-2-yl]methyl [hydroxy(phosphonooxy)phosphoryl] phosphate
   47    49     1     0     0
SMALL
USER_CHARGES

@<TRIPOS>ATOM
      1 PG          1.1176    1.5280   -6.2420 P.3       1 ATP         1.8237
      2 O1G         1.6126    1.9550   -4.8918 O.2       1 ATP        -0.8455
      3 O2G        -0.4621    1.7683   -6.4896 O.3       1 ATP        -0.7970
      4 O3G         1.8015    2.2984   -7.4886 O.3       1 ATP        -0.7970
      5 PB          0.7667   -1.3652   -5.8728 P.3       1 ATP         1.9358
      6 O1B        -0.7271   -1.4811   -5.7978 O.2       1 ATP        -0.8836
      7 O2B         1.5068   -2.5605   -6.6708 O.3       1 ATP        -0.8065
      8 O3B         1.3203   -0.0334   -6.5989 O.3       1 ATP        -0.8233
      9 PA          1.5535   -2.4535   -3.2419 P.3       1 ATP         1.5686
     10 O1A         2.2581   -3.6962   -3.7414 O.co2     1 ATP        -0.8169
     11 O2A         0.1699   -2.5402   -2.6352 O.co2     1 ATP        -0.8169
     12 O3A         1.5187   -1.3497   -4.4431 O.3       1 ATP        -0.7987
     13 O5'         2.5237   -1.6631   -2.1889 O.3       1 ATP        -0.5693
     14 C5'         2.2816   -0.2918   -1.9206 C.3       1 ATP         0.1841
     15 C4'         2.7248    0.0226   -0.4980 C.3       1 ATP         0.0904
     16 O4'         2.4697    1.4219   -0.2462 O.3       1 ATP        -0.4083
     17 C3'         1.9404   -0.7419    0.5596 C.3       1 ATP         0.0826
     18 O3'         2.7418   -0.8086    1.7389 O.3       1 ATP        -0.6106
     19 C2'         0.7477    0.1630    0.7858 C.3       1 ATP         0.1294
     20 O2'         0.1373   -0.0577    2.0407 O.3       1 ATP        -0.5701
     21 C1'         1.3733    1.5427    0.6747 C.3       1 ATP         0.3967
     22 N9          0.4520    2.5240    0.1767 N.pl3     1 ATP        -0.5600
     23 C8         -0.8602    2.5861    0.3496 C.ar      1 ATP         0.3009
     24 N7         -1.4308    3.6326   -0.2443 N.pl3     1 ATP        -0.5113
     25 C5         -0.4080    4.2856   -0.8394 C.ar      1 ATP        -0.2824
     26 C6         -0.3432    5.4196   -1.5943 C.ar      1 ATP         0.7670
     27 N6         -1.5276    6.1333   -1.8702 N.pl3     1 ATP        -0.9491
     28 N1          0.8395    5.8603   -2.0764 N.ar      1 ATP        -0.7474
     29 C2          1.9319    5.1095   -1.7617 C.ar      1 ATP         0.7118
     30 N3          1.9773    3.9761   -1.0249 N.ar      1 ATP        -0.6661
     31 C4          0.7724    3.6031   -0.5836 C.ar      1 ATP         0.6308
     32 HOG2       -1.1078    1.3245   -5.8995 H         1 ATP         0.4930
     33 HOG3        2.7726    2.2332   -7.6114 H         1 ATP         0.4930
     34 HOB2        1.4059   -3.4811   -6.3475 H         1 ATP         0.4808
     35 H5'1        2.8429    0.3140   -2.6391 H         1 ATP         0.0350
     36 H5'2        1.2125   -0.0906   -2.0420 H         1 ATP         0.0350
     37 H4'         3.8050   -0.1388   -0.4008 H         1 ATP         0.1244
     38 H3'         1.6784   -1.7629    0.2714 H         1 ATP         0.0924
     39 HO3'        2.2232   -1.2979    2.3953 H         1 ATP         0.4379
     40 H2'        -0.0011    0.0027    0.0003 H         1 ATP         0.0849
     41 HO2'       -0.1563   -0.9855    2.0596 H         1 ATP         0.4417
     42 H1'         1.7826    1.9024    1.6451 H         1 ATP         0.1307
     43 H8         -1.4217    1.8638    0.9164 H         1 ATP         0.2875
     44 HN61       -1.4731    6.9898   -2.3837 H         1 ATP         0.4559
     45 HN62       -2.3893    5.8226   -1.4686 H         1 ATP         0.4559
     46 H2          2.8789    5.4660   -2.1503 H         1 ATP         0.0858
     47 H47        -2.4129    3.8706   -0.2402 H         1 ATP         0.5042
@<TRIPOS>BOND
     1    1    2 2
     2    1    3 1
     3    1    4 1
     4    1    8 1
     5    3   32 1
     6    4   33 1
     7    5    6 2
     8    5    7 1
     9    5    8 1
    10    5   12 1
    11    7   34 1
    12    9   10 2
    13    9   11 1
    14    9   12 1
    15    9   13 1
    16   13   14 1
    17   14   15 1
    18   14   35 1
    19   14   36 1
    20   15   16 1
    21   15   17 1
    22   15   37 1
    23   16   21 1
    24   17   18 1
    25   17   19 1
    26   17   38 1
    27   18   39 1
    28   19   20 1
    29   19   21 1
    30   19   40 1
    31   20   41 1
    32   21   22 1
    33   21   42 1
    34   22   23 ar
    35   22   31 ar
    36   23   24 ar
    37   23   43 1
    38   24   25 ar
    39   24   47 1
    40   25   26 ar
    41   25   31 ar
    42   26   27 1
    43   26   28 ar
    44   27   44 1
    45   27   45 1
    46   28   29 ar
    47   29   30 ar
    48   29   46 1
    49   30   31 ar
@<TRIPOS>SUBSTRUCTURE
     1 ATP         1 GROUP 0 A     ****
@<TRIPOS>MOLECULE
[5-(6-amino-7,8-dihydropurin-8-ylium-9-yl)-3,4-dihydroxy-tetrahydrofuran-2-yl]methyl [hydroxy(phosphonooxy)phosphoryl] phosphate
   47    49     1     0     0
SMALL
USER_CHARGES

@<TRIPOS>ATOM
      1 PG          5.7513   -3.5951   -4.8846 P.3       1 ATP         1.8237
      2 O1G         6.0455   -2.8721   -3.6036 O.2       1 ATP        -0.8455
      3 O2G         6.7800   -3.2778   -6.0911 O.3       1 ATP        -0.7970
      4 O3G         5.8025   -5.2080   -4.7790 O.3       1 ATP        -0.7970
      5 PB          3.6381   -1.9227   -6.0539 P.3       1 ATP         1.9358
      6 O1B         4.3800   -1.2246   -7.1551 O.2       1 ATP        -0.8836
      7 O2B         2.1228   -2.3541   -6.4159 O.3       1 ATP        -0.8065
      8 O3B         4.3046   -3.2998   -5.5373 O.3       1 ATP        -0.8233
      9 PA          2.7386    0.3748   -4.4298 P.3       1 ATP         1.5686
     10 O1A         1.2524    0.2205   -4.6698 O.co2     1 ATP        -0.8169
     11 O2A         3.5296    1.4502   -5.1423 O.co2     1 ATP        -0.8169
     12 O3A         3.4667   -1.0606   -4.6985 O.3       1 ATP        -0.7987
     13 O5'         3.0197    0.5137   -2.8245 O.3       1 ATP        -0.5693
     14 C5'         2.2816   -0.2918   -1.9206 C.3       1 ATP         0.1841
     15 C4'         2.7248    0.0226   -0.4980 C.3       1 ATP         0.0904
     16 O4'         2.4697    1.4219   -0.2462 O.3       1 ATP        -0.4083
     17 C3'         1.9404   -0.7419    0.5596 C.3       1 ATP         0.0826
     18 O3'         2.7418   -0.8086    1.7389 O.3       1 ATP        -0.6106
     19 C2'         0.7477    0.1630    0.7858 C.3       1 ATP         0.1294
     20 O2'         0.1373   -0.0577    2.0407 O.3       1 ATP        -0.5701
     21 C1'         1.3733    1.5427    0.6747 C.3       1 ATP         0.3967
     22 N9          0.4520    2.5240    0.1767 N.pl3     1 ATP        -0.5600
     23 C8         -0.5899    2.3466   -0.6224 C.ar      1 ATP         0.3009
     24 N7         -1.2514    3.4689   -0.8989 N.pl3     1 ATP        -0.5113
     25 C5         -0.5826    4.4323   -0.2272 C.ar      1 ATP        -0.2824
     26 C6         -0.7636    5.7789   -0.1086 C.ar      1 ATP         0.7670
     27 N6         -1.8382    6.3927   -0.7843 N.pl3     1 ATP        -0.9491
     28 N1          0.0741    6.5233    0.6461 N.ar      1 ATP        -0.7474
     29 C2          1.0845    5.8486    1.2626 C.ar      1 ATP         0.7118
     30 N3          1.3516    4.5236    1.2116 N.ar      1 ATP        -0.6661
     31 C4          0.4827    3.8546    0.4481 C.ar      1 ATP         0.6308
     32 HOG2        6.8687   -2.3539   -6.4084 H         1 ATP         0.4930
     33 HOG3        6.6399   -5.6389   -4.5040 H         1 ATP         0.4930
     34 HOB2        1.4777   -1.6586   -6.6653 H         1 ATP         0.4808
     35 H5'1        1.2153   -0.0781   -2.0454 H         1 ATP         0.0350
     36 H5'2        2.4645   -1.3454   -2.1547 H         1 ATP         0.0350
     37 H4'         3.8050   -0.1388   -0.4008 H         1 ATP         0.1244
     38 H3'         1.6784   -1.7629    0.2714 H         1 ATP         0.0924
     39 HO3'        2.2232   -1.2979    2.3953 H         1 ATP         0.4379
     40 H2'        -0.0011    0.0027    0.0003 H         1 ATP         0.0849
     41 HO2'       -0.1563   -0.9855    2.0596 H         1 ATP         0.4417
     42 H1'         1.7826    1.9024    1.6451 H         1 ATP         0.1307
     43 H8         -0.8833    1.3888   -1.0158 H         1 ATP         0.2875
     44 HN61       -2.4225    5.8385   -1.3773 H         1 ATP         0.4559
     45 HN62       -1.9421    7.3862   -0.7348 H         1 ATP         0.4559
     46 H2          1.7546    6.4491    1.8670 H         1 ATP         0.0858
     47 H47        -2.0705    3.5612   -1.4834 H         1 ATP         0.5042
@<TRIPOS>BOND
     1    1    2 2
     2    1    3 1
     3    1    4 1
     4    1    8 1
     5    3   32 1
     6    4   33 1
     7    5    6 2
     8    5    7 1
     9    5    8 1
    10    5   12 1
    11    7   34 1
    12    9   10 2
    13    9   11 1
    14    9   12 1
    15    9   13 1
    16   13   14 1
    17   14   15 1
    18   14   35 1
    19   14   36 1
    20   15   16 1
    21   15   17 1
    22   15   37 1
    23   16   21 1
    24   17   18 1
    25   17   19 1
    26   17   38 1
    27   18   39 1
    28   19   20 1
    29   19   21 1
    30   19   40 1
    31   20   41 1
    32   21   22 1
    33   21   42 1
    34   22   23 ar
    35   22   31 ar
    36   23   24 ar
    37   23   43 1
    38   24   25 ar
    39   24   47 1
    40   25   26 ar
    41   25   31 ar
    42   26   27 1
    43   26   28 ar
    44   27   44 1
    45   27   45 1
    46   28   29 ar
    47   29   30 ar
    48   29   46 1
    49   30   31 ar
@<TRIPOS>SUBSTRUCTURE
     1 ATP         1 GROUP 0 A     ****
@<TRIPOS>MOLECULE
[5-(6-amino-7,8-dihydropurin-8-ylium-9-yl)-3,4-dihydroxy-tetrahydrofuran-2-yl]methyl [hydroxy(phosphonooxy)phosphoryl] phosphate
   47    49     1     0     0
SMALL
USER_CHARGES

@<TRIPOS>ATOM
      1 PG         -5.7851   -7.3571    0.1432 P.3       1 ATP         1.8237
      2 O1G        -7.2001   -6.9560    0.4388 O.2       1 ATP        -0.8455
      3 O2G        -5.5341   -8.9533    0.0819 O.3       1 ATP        -0.7970
      4 O3G        -5.2205   -6.8461   -1.2835 O.3       1 ATP        -0.7970
      5 PB         -4.2579   -5.3504    1.6501 P.3       1 ATP         1.9358
      6 O1B        -3.7516   -4.4666    0.5488 O.2       1 ATP        -0.8836
      7 O2B        -5.5751   -4.8065    2.4132 O.3       1 ATP        -0.8065
      8 O3B        -4.6778   -6.8432    1.1996 O.3       1 ATP        -0.8233
      9 PA         -1.7212   -6.2752    2.8479 P.3       1 ATP         1.5686
     10 O1A        -1.8047   -7.6453    2.2107 O.co2     1 ATP        -0.8169
     11 O2A        -1.1157   -6.0976    4.2232 O.co2     1 ATP        -0.8169
     12 O3A        -3.2091   -5.6054    2.8520 O.3       1 ATP        -0.7987
     13 O5'        -0.9729   -5.2427    1.8237 O.3       1 ATP        -0.5693
     14 C5'        -0.7840   -3.8935    2.2172 C.3       1 ATP         0.1841
     15 C4'        -0.0724   -3.1466    1.1027 C.3       1 ATP         0.0904
     16 O4'        -0.8674   -3.1929   -0.0945 O.3       1 ATP        -0.4083
     17 C3'         0.1338   -1.6715    1.4027 C.3       1 ATP         0.0826
     18 O3'         1.2893   -1.4445    2.1808 O.3       1 ATP        -0.6106
     19 C2'         0.2158   -1.0724    0.0128 C.3       1 ATP         0.1294
     20 O2'         1.5141   -1.2448   -0.5513 O.3       1 ATP        -0.5701
     21 C1'        -0.7897   -1.9176   -0.7583 C.3       1 ATP         0.3967
     22 N9         -2.1040   -1.3333   -0.7704 N.pl3     1 ATP        -0.5600
     23 C8         -2.6611   -0.5376    0.1306 C.ar      1 ATP         0.3009
     24 N7         -3.9008   -0.1619   -0.1787 N.pl3     1 ATP        -0.5113
     25 C5         -4.1527   -0.7619   -1.3633 C.ar      1 ATP        -0.2824
     26 C6         -5.2376   -0.7682   -2.1896 C.ar      1 ATP         0.7670
     27 N6         -6.3842   -0.0312   -1.8286 N.pl3     1 ATP        -0.9491
     28 N1         -5.2214   -1.4713   -3.3433 N.ar      1 ATP        -0.7474
     29 C2         -4.0737   -2.1541   -3.6127 C.ar      1 ATP         0.7118
     30 N3         -2.9476   -2.2143   -2.8660 N.ar      1 ATP        -0.6661
     31 C4         -3.0383   -1.4958   -1.7429 C.ar      1 ATP         0.6308
     32 HOG2       -5.7245   -9.4945    0.8775 H         1 ATP         0.4930
     33 HOG3       -5.1876   -5.8822   -1.4629 H         1 ATP         0.4930
     34 HOB2       -6.3965   -4.6602    1.8973 H         1 ATP         0.4808
     35 H5'1       -1.7613   -3.4427    2.4167 H         1 ATP         0.0350
     36 H5'2       -0.1870   -3.8723    3.1344 H         1 ATP         0.0350
     37 H4'         0.8886   -3.6447    0.8779 H         1 ATP         0.1244
     38 H3'        -0.7373   -1.2359    1.9870 H         1 ATP         0.0924
     39 HO3'        1.3408   -0.4870    2.3219 H         1 ATP         0.4379
     40 H2'        -0.0384   -0.0310    0.0096 H         1 ATP         0.0849
     41 HO2'        2.1463   -0.7958    0.0370 H         1 ATP         0.4417
     42 H1'        -0.4769   -2.1002   -1.8093 H         1 ATP         0.1307
     43 H8         -2.1661   -0.2178    1.0311 H         1 ATP         0.2875
     44 HN61       -6.4010    0.4463   -0.9500 H         1 ATP         0.4559
     45 HN62       -7.1957   -0.0744   -2.4116 H         1 ATP         0.4559
     46 H2         -4.0645   -2.7171   -4.5389 H         1 ATP         0.0858
     47 H47        -4.5050    0.4395    0.3640 H         1 ATP         0.5042
@<TRIPOS>BOND
     1    1    2 2
     2    1    3 1
     3    1    4 1
     4    1    8 1
     5    3   32 1
     6    4   33 1
     7    5    6 2
     8    5    7 1
     9    5    8 1
    10    5   12 1
    11    7   34 1
    12    9   10 2
    13    9   11 1
    14    9   12 1
    15    9   13 1
    16   13   14 1
    17   14   15 1
    18   14   35 1
    19   14   36 1
    20   15   16 1
    21   15   17 1
    22   15   37 1
    23   16   21 1
    24   17   18 1
    25   17   19 1
    26   17   38 1
    27   18   39 1
    28   19   20 1
    29   19   21 1
    30   19   40 1
    31   20   41 1
    32   21   22 1
    33   21   42 1
    34   22   23 ar
    35   22   31 ar
    36   23   24 ar
    37   23   43 1
    38   24   25 ar
    39   24   47 1
    40   25   26 ar
    41   25   31 ar
    42   26   27 1
    43   26   28 ar
    44   27   44 1
    45   27   45 1
    46   28   29 ar
    47   29   30 ar
    48   29   46 1
    49   30   31 ar
@<TRIPOS>SUBSTRUCTURE
     1 ATP         1 GROUP 0 A     ****
@<TRIPOS>MOLECULE
[5-(6-amino-7,8-dihydropurin-8-ylium-9-yl)-3,4-dihydroxy-tetrahydrofuran-2-yl]methyl [hydroxy(phosphonooxy)phosphoryl] phosphate
   47    49     1     0     0
SMALL
USER_CHARGES

@<TRIPOS>ATOM
      1 PG          6.7778    0.9611   -4.0873 P.3       1 ATP         1.8237
      2 O1G         6.5004    2.0168   -5.1164 O.2       1 ATP        -0.8455
      3 O2G         8.2769    0.9853   -3.4817 O.3       1 ATP        -0.7970
      4 O3G         5.8509    1.0446   -2.7648 O.3       1 ATP        -0.7970
      5 PB          5.3095   -1.3418   -5.1693 P.3       1 ATP         1.9358
      6 O1B         4.7284   -0.7658   -6.4268 O.2       1 ATP        -0.8836
      7 O2B         5.8188   -2.8713   -5.2888 O.3       1 ATP        -0.8065
      8 O3B         6.5985   -0.5641   -4.5850 O.3       1 ATP        -0.8233
      9 PA          2.8591   -2.1295   -3.7203 P.3       1 ATP         1.5686
     10 O1A         3.0780   -3.6265   -3.7548 O.co2     1 ATP        -0.8169
     11 O2A         1.8561   -1.4730   -4.6439 O.co2     1 ATP        -0.8169
     12 O3A         4.2973   -1.3829   -3.9109 O.3       1 ATP        -0.7987
     13 O5'         2.5237   -1.6631   -2.1889 O.3       1 ATP        -0.5693
     14 C5'         2.2816   -0.2918   -1.9206 C.3       1 ATP         0.1841
     15 C4'         2.7248    0.0226   -0.4980 C.3       1 ATP         0.0904
     16 O4'         2.4697    1.4219   -0.2462 O.3       1 ATP        -0.4083
     17 C3'         1.9404   -0.7419    0.5596 C.3       1 ATP         0.0826
     18 O3'         2.7418   -0.8086    1.7389 O.3       1 ATP        -0.6106
     19 C2'         0.7477    0.1630    0.7858 C.3       1 ATP         0.1294
     20 O2'         0.1373   -0.0577    2.0407 O.3       1 ATP        -0.5701
     21 C1'         1.3733    1.5427    0.6747 C.3       1 ATP         0.3967
     22 N9          0.4520    2.5240    0.1767 N.pl3     1 ATP        -0.5600
     23 C8         -0.8602    2.5861    0.3496 C.ar      1 ATP         0.3009
     24 N7         -1.4308    3.6326   -0.2443 N.pl3     1 ATP        -0.5113
     25 C5         -0.4080    4.2856   -0.8394 C.ar      1 ATP        -0.2824
     26 C6         -0.3432    5.4196   -1.5943 C.ar      1 ATP         0.7670
     27 N6         -1.5276    6.1333   -1.8702 N.pl3     1 ATP        -0.9491
     28 N1          0.8395    5.8603   -2.0764 N.ar      1 ATP        -0.7474
     29 C2          1.9319    5.1095   -1.7617 C.ar      1 ATP         0.7118
     30 N3          1.9773    3.9761   -1.0249 N.ar      1 ATP        -0.6661
     31 C4          0.7724    3.6031   -0.5836 C.ar      1 ATP         0.6308
     32 HOG2        8.5884    1.7915   -3.0180 H         1 ATP         0.4930
     33 HOG3        4.8778    0.9662   -2.8619 H         1 ATP         0.4930
     34 HOB2        5.1742   -3.5687   -5.5343 H         1 ATP         0.4808
     35 H5'1        2.8429    0.3140   -2.6391 H         1 ATP         0.0350
     36 H5'2        1.2125   -0.0906   -2.0420 H         1 ATP         0.0350
     37 H4'         3.8050   -0.1388   -0.4008 H         1 ATP         0.1244
     38 H3'         1.6784   -1.7629    0.2714 H         1 ATP         0.0924
     39 HO3'        2.2232   -1.2979    2.3953 H         1 ATP         0.4379
     40 H2'        -0.0011    0.0027    0.0003 H         1 ATP         0.0849
     41 HO2'       -0.1563   -0.9855    2.0596 H         1 ATP         0.4417
     42 H1'         1.7826    1.9024    1.6451 H         1 ATP         0.1307
     43 H8         -1.4217    1.8638    0.9164 H         1 ATP         0.2875
     44 HN61       -2.4023    5.7711   -1.5477 H         1 ATP         0.4559
     45 HN62       -1.4857    6.9379   -2.4627 H         1 ATP         0.4559
     46 H2          2.8789    5.4660   -2.1503 H         1 ATP         0.0858
     47 H47        -2.4129    3.8706   -0.2402 H         1 ATP         0.5042
@<TRIPOS>BOND
     1    1    2 2
     2    1    3 1
     3    1    4 1
     4    1    8 1
     5    3   32 1
     6    4   33 1
     7    5    6 2
     8    5    7 1
     9    5    8 1
    10    5   12 1
    11    7   34 1
    12    9   10 2
    13    9   11 1
    14    9   12 1
    15    9   13 1
    16   13   14 1
    17   14   15 1
    18   14   35 1
    19   14   36 1
    20   15   16 1
    21   15   17 1
    22   15   37 1
    23   16   21 1
    24   17   18 1
    25   17   19 1
    26   17   38 1
    27   18   39 1
    28   19   20 1
    29   19   21 1
    30   19   40 1
    31   20   41 1
    32   21   22 1
    33   21   42 1
    34   22   23 ar
    35   22   31 ar
    36   23   24 ar
    37   23   43 1
    38   24   25 ar
    39   24   47 1
    40   25   26 ar
    41   25   31 ar
    42   26   27 1
    43   26   28 ar
    44   27   44 1
    45   27   45 1
    46   28   29 ar
    47   29   30 ar
    48   29   46 1
    49   30   31 ar
@<TRIPOS>SUBSTRUCTURE
     1 ATP         1 GROUP 0 A     ****
@<TRIPOS>MOLECULE
[5-(6-amino-7,8-dihydropurin-8-ylium-9-yl)-3,4-dihydroxy-tetrahydrofuran-2-yl]methyl [hydroxy(phosphonooxy)phosphoryl] phosphate
   47    49     1     0     0
SMALL
USER_CHARGES

@<TRIPOS>ATOM
      1 PG          1.1115   -3.8808   -5.6575 P.3       1 ATP         1.8237
      2 O1G         1.1875   -4.8229   -4.4926 O.2       1 ATP        -0.8455
      3 O2G         0.6461   -4.5620   -7.0482 O.3       1 ATP        -0.7970
      4 O3G         0.0590   -2.6661   -5.4785 O.3       1 ATP        -0.7970
      5 PB          3.4383   -2.1493   -5.1905 P.3       1 ATP         1.9358
      6 O1B         4.0012   -2.7336   -3.9287 O.2       1 ATP        -0.8836
      7 O2B         4.5389   -1.6605   -6.2689 O.3       1 ATP        -0.8065
      8 O3B         2.4910   -3.1379   -6.0466 O.3       1 ATP        -0.8233
      9 PA          2.8596    0.6156   -4.3272 P.3       1 ATP         1.5686
     10 O1A         1.5860    1.4295   -4.2515 O.co2     1 ATP        -0.8169
     11 O2A         4.0898    1.1666   -5.0150 O.co2     1 ATP        -0.8169
     12 O3A         2.5158   -0.8400   -4.9794 O.3       1 ATP        -0.7987
     13 O5'         3.2883    0.1336   -2.8242 O.3       1 ATP        -0.5693
     14 C5'         2.2816   -0.2918   -1.9206 C.3       1 ATP         0.1841
     15 C4'         2.7248    0.0226   -0.4980 C.3       1 ATP         0.0904
     16 O4'         2.4697    1.4219   -0.2462 O.3       1 ATP        -0.4083
     17 C3'         1.9404   -0.7419    0.5596 C.3       1 ATP         0.0826
     18 O3'         2.7418   -0.8086    1.7389 O.3       1 ATP        -0.6106
     19 C2'         0.7477    0.1630    0.7858 C.3       1 ATP         0.1294
     20 O2'         0.1373   -0.0577    2.0407 O.3       1 ATP        -0.5701
     21 C1'         1.3733    1.5427    0.6747 C.3       1 ATP         0.3967
     22 N9          0.4520    2.5240    0.1767 N.pl3     1 ATP        -0.5600
     23 C8         -0.8602    2.5861    0.3496 C.ar      1 ATP         0.3009
     24 N7         -1.4308    3.6326   -0.2443 N.pl3     1 ATP        -0.5113
     25 C5         -0.4080    4.2856   -0.8394 C.ar      1 ATP        -0.2824
     26 C6         -0.3432    5.4196   -1.5943 C.ar      1 ATP         0.7670
     27 N6         -1.5276    6.1333   -1.8702 N.pl3     1 ATP        -0.9491
     28 N1          0.8395    5.8603   -2.0764 N.ar      1 ATP        -0.7474
     29 C2          1.9319    5.1095   -1.7617 C.ar      1 ATP         0.7118
     30 N3          1.9773    3.9761   -1.0249 N.ar      1 ATP        -0.6661
     31 C4          0.7724    3.6031   -0.5836 C.ar      1 ATP         0.6308
     32 HOG2       -0.2331   -4.9945   -7.0937 H         1 ATP         0.4930
     33 HOG3        0.1800   -2.0396   -4.7333 H         1 ATP         0.4930
     34 HOB2        5.1811   -0.9655   -6.0104 H         1 ATP         0.4808
     35 H5'1        1.3500    0.2325   -2.1560 H         1 ATP         0.0350
     36 H5'2        2.1266   -1.3683   -2.0443 H         1 ATP         0.0350
     37 H4'         3.8050   -0.1388   -0.4008 H         1 ATP         0.1244
     38 H3'         1.6784   -1.7629    0.2714 H         1 ATP         0.0924
     39 HO3'        3.5554   -1.2733    1.4914 H         1 ATP         0.4379
     40 H2'        -0.0011    0.0027    0.0003 H         1 ATP         0.0849
     41 HO2'       -0.1563   -0.9855    2.0596 H         1 ATP         0.4417
     42 H1'         1.7826    1.9024    1.6451 H         1 ATP         0.1307
     43 H8         -1.4217    1.8638    0.9164 H         1 ATP         0.2875
     44 HN61       -2.4023    5.7711   -1.5477 H         1 ATP         0.4559
     45 HN62       -1.4857    6.9379   -2.4627 H         1 ATP         0.4559
     46 H2          2.8789    5.4660   -2.1503 H         1 ATP         0.0858
     47 H47        -2.4129    3.8706   -0.2402 H         1 ATP         0.5042
@<TRIPOS>BOND
     1    1    2 2
     2    1    3 1
     3    1    4 1
     4    1    8 1
     5    3   32 1
     6    4   33 1
     7    5    6 2
     8    5    7 1
     9    5    8 1
    10    5   12 1
    11    7   34 1
    12    9   10 2
    13    9   11 1
    14    9   12 1
    15    9   13 1
    16   13   14 1
    17   14   15 1
    18   14   35 1
    19   14   36 1
    20   15   16 1
    21   15   17 1
    22   15   37 1
    23   16   21 1
    24   17   18 1
    25   17   19 1
    26   17   38 1
    27   18   39 1
    28   19   20 1
    29   19   21 1
    30   19   40 1
    31   20   41 1
    32   21   22 1
    33   21   42 1
    34   22   23 ar
    35   22   31 ar
    36   23   24 ar
    37   23   43 1
    38   24   25 ar
    39   24   47 1
    40   25   26 ar
    41   25   31 ar
    42   26   27 1
    43   26   28 ar
    44   27   44 1
    45   27   45 1
    46   28   29 ar
    47   29   30 ar
    48   29   46 1
    49   30   31 ar
@<TRIPOS>SUBSTRUCTURE
     1 ATP         1 GROUP 0 A     ****
@<TRIPOS>MOLECULE
[5-(6-amino-7,8-dihydropurin-8-ylium-9-yl)-3,4-dihydroxy-tetrahydrofuran-2-yl]methyl [hydroxy(phosphonooxy)phosphoryl] phosphate
   47    49     1     0     0
SMALL
USER_CHARGES

@<TRIPOS>ATOM
      1 PG          1.1381   -3.2516   -7.4822 P.3       1 ATP         1.8237
      2 O1G        -0.3344   -3.4408   -7.6979 O.2       1 ATP        -0.8455
      3 O2G         1.9202   -4.5696   -6.9667 O.3       1 ATP        -0.7970
      4 O3G         1.9678   -2.8316   -8.8052 O.3       1 ATP        -0.7970
      5 PB          1.2431   -0.5398   -6.3573 P.3       1 ATP         1.9358
      6 O1B         1.7788    0.2475   -7.5165 O.2       1 ATP        -0.8836
      7 O2B        -0.3607   -0.4719   -6.1667 O.3       1 ATP        -0.8065
      8 O3B         1.5468   -2.1252   -6.4003 O.3       1 ATP        -0.8233
      9 PA          3.3322   -0.0533   -4.3265 P.3       1 ATP         1.5686
     10 O1A         4.1270    0.9770   -5.0991 O.co2     1 ATP        -0.8169
     11 O2A         3.8287   -1.4771   -4.1997 O.co2     1 ATP        -0.8169
     12 O3A         1.8098   -0.0911   -4.9126 O.3       1 ATP        -0.7987
     13 O5'         3.0197    0.5137   -2.8245 O.3       1 ATP        -0.5693
     14 C5'         2.2816   -0.2918   -1.9206 C.3       1 ATP         0.1841
     15 C4'         2.7248    0.0226   -0.4980 C.3       1 ATP         0.0904
     16 O4'         2.4697    1.4219   -0.2462 O.3       1 ATP        -0.4083
     17 C3'         1.9404   -0.7419    0.5596 C.3       1 ATP         0.0826
     18 O3'         2.7418   -0.8086    1.7389 O.3       1 ATP        -0.6106
     19 C2'         0.7477    0.1630    0.7858 C.3       1 ATP         0.1294
     20 O2'         0.1373   -0.0577    2.0407 O.3       1 ATP        -0.5701
     21 C1'         1.3733    1.5427    0.6747 C.3       1 ATP         0.3967
     22 N9          0.4520    2.5240    0.1767 N.pl3     1 ATP        -0.5600
     23 C8         -0.8602    2.5861    0.3496 C.ar      1 ATP         0.3009
     24 N7         -1.4308    3.6326   -0.2443 N.pl3     1 ATP        -0.5113
     25 C5         -0.4080    4.2856   -0.8394 C.ar      1 ATP        -0.2824
     26 C6         -0.3432    5.4196   -1.5943 C.ar      1 ATP         0.7670
     27 N6         -1.5276    6.1333   -1.8702 N.pl3     1 ATP        -0.9491
     28 N1          0.8395    5.8603   -2.0764 N.ar      1 ATP        -0.7474
     29 C2          1.9319    5.1095   -1.7617 C.ar      1 ATP         0.7118
     30 N3          1.9773    3.9761   -1.0249 N.ar      1 ATP        -0.6661
     31 C4          0.7724    3.6031   -0.5836 C.ar      1 ATP         0.6308
     32 HOG2        1.6527   -4.9777   -6.1158 H         1 ATP         0.4930
     33 HOG3        1.7336   -1.9986   -9.2675 H         1 ATP         0.4930
     34 HOB2       -0.9391   -0.7894   -6.8925 H         1 ATP         0.4808
     35 H5'1        1.2153   -0.0781   -2.0454 H         1 ATP         0.0350
     36 H5'2        2.4645   -1.3454   -2.1547 H         1 ATP         0.0350
     37 H4'         3.8050   -0.1388   -0.4008 H         1 ATP         0.1244
     38 H3'         1.6784   -1.7629    0.2714 H         1 ATP         0.0924
     39 HO3'        2.2232   -1.2979    2.3953 H         1 ATP         0.4379
     40 H2'        -0.0011    0.0027    0.0003 H         1 ATP         0.0849
     41 HO2'       -0.1563   -0.9855    2.0596 H         1 ATP         0.4417
     42 H1'         1.7826    1.9024    1.6451 H         1 ATP         0.1307
     43 H8         -1.4217    1.8638    0.9164 H         1 ATP         0.2875
     44 HN61       -2.4023    5.7711   -1.5477 H         1 ATP         0.4559
     45 HN62       -1.4857    6.9379   -2.4627 H         1 ATP         0.4559
     46 H2          2.8789    5.4660   -2.1503 H         1 ATP         0.0858
     47 H47        -2.4129    3.8706   -0.2402 H         1 ATP         0.5042
@<TRIPOS>BOND
     1    1    2 2
     2    1    3 1
     3    1    4 1
     4    1    8 1
     5    3   32 1
     6    4   33 1
     7    5    6 2
     8    5    7 1
     9    5    8 1
    10    5   12 1
    11    7   34 1
    12    9   10 2
    13    9   11 1
    14    9   12 1
    15    9   13 1
    16   13   14 1
    17   14   15 1
    18   14   35 1
    19   14   36 1
    20   15   16 1
    21   15   17 1
    22   15   37 1
    23   16   21 1
    24   17   18 1
    25   17   19 1
    26   17   38 1
    27   18   39 1
    28   19   20 1
    29   19   21 1
    30   19   40 1
    31   20   41 1
    32   21   22 1
    33   21   42 1
    34   22   23 ar
    35   22   31 ar
    36   23   24 ar
    37   23   43 1
    38   24   25 ar
    39   24   47 1
    40   25   26 ar
    41   25   31 ar
    42   26   27 1
    43   26   28 ar
    44   27   44 1
    45   27   45 1
    46   28   29 ar
    47   29   30 ar
    48   29   46 1
    49   30   31 ar
@<TRIPOS>SUBSTRUCTURE
     1 ATP         1 GROUP 0 A     ****
@<TRIPOS>MOLECULE
[5-(6-amino-7,8-dihydropurin-8-ylium-9-yl)-3,4-dihydroxy-tetrahydrofuran-2-yl]methyl [hydroxy(phosphonooxy)phosphoryl] phosphate
   47    49     1     0     0
SMALL
USER_CHARGES

@<TRIPOS>ATOM
      1 PG         -1.6187   -0.7712   -5.4944 P.3       1 ATP         1.8237
      2 O1G        -0.5981    0.2788   -5.8200 O.2       1 ATP        -0.8455
      3 O2G        -2.5541   -0.4319   -4.2198 O.3       1 ATP        -0.7970
      4 O3G        -2.6942   -1.0570   -6.6677 O.3       1 ATP        -0.7970
      5 PB         -0.0224   -2.7222   -3.9858 P.3       1 ATP         1.9358
      6 O1B        -0.4970   -2.4808   -2.5833 O.2       1 ATP        -0.8836
      7 O2B         0.2552   -4.2707   -4.3575 O.3       1 ATP        -0.8065
      8 O3B        -1.0304   -2.2344   -5.1494 O.3       1 ATP        -0.8233
      9 PA          2.8591   -2.1295   -3.7203 P.3       1 ATP         1.5686
     10 O1A         3.7685   -1.1094   -4.3702 O.co2     1 ATP        -0.8169
     11 O2A         3.2339   -3.5954   -3.6958 O.co2     1 ATP        -0.8169
     12 O3A         1.3673   -1.9921   -4.3670 O.3       1 ATP        -0.7987
     13 O5'         2.5237   -1.6631   -2.1889 O.3       1 ATP        -0.5693
     14 C5'         2.2816   -0.2918   -1.9206 C.3       1 ATP         0.1841
     15 C4'         2.7248    0.0226   -0.4980 C.3       1 ATP         0.0904
     16 O4'         2.4697    1.4219   -0.2462 O.3       1 ATP        -0.4083
     17 C3'         1.9404   -0.7419    0.5596 C.3       1 ATP         0.0826
     18 O3'         2.7418   -0.8086    1.7389 O.3       1 ATP        -0.6106
     19 C2'         0.7477    0.1630    0.7858 C.3       1 ATP         0.1294
     20 O2'         0.1373   -0.0577    2.0407 O.3       1 ATP        -0.5701
     21 C1'         1.3733    1.5427    0.6747 C.3       1 ATP         0.3967
     22 N9          0.4520    2.5240    0.1767 N.pl3     1 ATP        -0.5600
     23 C8         -0.3477    3.3274    0.8626 C.ar      1 ATP         0.3009
     24 N7         -1.0836    4.1323    0.0983 N.pl3     1 ATP        -0.5113
     25 C5         -0.7273    3.8194   -1.1674 C.ar      1 ATP        -0.2824
     26 C6         -1.1208    4.2877   -2.3863 C.ar      1 ATP         0.7670
     27 N6         -2.0932    5.3066   -2.4528 N.pl3     1 ATP        -0.9491
     28 N1         -0.5892    3.7853   -3.5223 N.ar      1 ATP        -0.7474
     29 C2          0.3427    2.8040   -3.3648 C.ar      1 ATP         0.7118
     30 N3          0.8012    2.2709   -2.2093 N.ar      1 ATP        -0.6661
     31 C4          0.2307    2.8167   -1.1312 C.ar      1 ATP         0.6308
     32 HOG2       -2.1326   -0.2963   -3.3445 H         1 ATP         0.4930
     33 HOG3       -2.3723   -1.3674   -7.5409 H         1 ATP         0.4930
     34 HOB2        0.9258   -4.7695   -3.8440 H         1 ATP         0.4808
     35 H5'1        2.8429    0.3140   -2.6391 H         1 ATP         0.0350
     36 H5'2        1.2125   -0.0906   -2.0420 H         1 ATP         0.0350
     37 H4'         3.8050   -0.1388   -0.4008 H         1 ATP         0.1244
     38 H3'         1.6784   -1.7629    0.2714 H         1 ATP         0.0924
     39 HO3'        2.2232   -1.2979    2.3953 H         1 ATP         0.4379
     40 H2'        -0.0011    0.0027    0.0003 H         1 ATP         0.0849
     41 HO2'       -0.6141    0.5574    2.1082 H         1 ATP         0.4417
     42 H1'         1.7826    1.9024    1.6451 H         1 ATP         0.1307
     43 H8         -0.4040    3.3373    1.9373 H         1 ATP         0.2875
     44 HN61       -2.5133    5.6366   -1.6073 H         1 ATP         0.4559
     45 HN62       -2.4153    5.6161   -3.3477 H         1 ATP         0.4559
     46 H2          0.7668    2.4032   -4.2782 H         1 ATP         0.0858
     47 H47        -1.7549    4.8194    0.4122 H         1 ATP         0.5042
@<TRIPOS>BOND
     1    1    2 2
     2    1    3 1
     3    1    4 1
     4    1    8 1
     5    3   32 1
     6    4   33 1
     7    5    6 2
     8    5    7 1
     9    5    8 1
    10    5   12 1
    11    7   34 1
    12    9   10 2
    13    9   11 1
    14    9   12 1
    15    9   13 1
    16   13   14 1
    17   14   15 1
    18   14   35 1
    19   14   36 1
    20   15   16 1
    21   15   17 1
    22   15   37 1
    23   16   21 1
    24   17   18 1
    25   17   19 1
    26   17   38 1
    27   18   39 1
    28   19   20 1
    29   19   21 1
    30   19   40 1
    31   20   41 1
    32   21   22 1
    33   21   42 1
    34   22   23 ar
    35   22   31 ar
    36   23   24 ar
    37   23   43 1
    38   24   25 ar
    39   24   47 1
    40   25   26 ar
    41   25   31 ar
    42   26   27 1
    43   26   28 ar
    44   27   44 1
    45   27   45 1
    46   28   29 ar
    47   29   30 ar
    48   29   46 1
    49   30   31 ar
@<TRIPOS>SUBSTRUCTURE
     1 ATP         1 GROUP 0 A     ****
@<TRIPOS>MOLECULE
[5-(6-amino-7,8-dihydropurin-8-ylium-9-yl)-3,4-dihydroxy-tetrahydrofuran-2-yl]methyl [hydroxy(phosphonooxy)phosphoryl] phosphate
   47    49     1     0     0
SMALL
USER_CHARGES

@<TRIPOS>ATOM
      1 PG          7.3080   -2.6796   -2.7976 P.3       1 ATP         1.8237
      2 O1G         8.5570   -2.1175   -3.4095 O.2       1 ATP        -0.8455
      3 O2G         7.5241   -4.0391   -1.9491 O.3       1 ATP        -0.7970
      4 O3G         6.5745   -1.7032   -1.7375 O.3       1 ATP        -0.7970
      5 PB          5.3185   -2.1638   -4.8966 P.3       1 ATP         1.9358
      6 O1B         6.1549   -1.4964   -5.9480 O.2       1 ATP        -0.8836
      7 O2B         4.1906   -3.1758   -5.4596 O.3       1 ATP        -0.8065
      8 O3B         6.1346   -3.0678   -3.8362 O.3       1 ATP        -0.8233
      9 PA          3.3322   -0.0533   -4.3265 P.3       1 ATP         1.5686
     10 O1A         2.1130   -0.7769   -4.8559 O.co2     1 ATP        -0.8169
     11 O2A         3.9798    1.0571   -5.1250 O.co2     1 ATP        -0.8169
     12 O3A         4.4780   -1.1544   -3.9562 O.3       1 ATP        -0.7987
     13 O5'         3.0197    0.5137   -2.8245 O.3       1 ATP        -0.5693
     14 C5'         2.2816   -0.2918   -1.9206 C.3       1 ATP         0.1841
     15 C4'         2.7248    0.0226   -0.4980 C.3       1 ATP         0.0904
     16 O4'         2.4697    1.4219   -0.2462 O.3       1 ATP        -0.4083
     17 C3'         1.9404   -0.7419    0.5596 C.3       1 ATP         0.0826
     18 O3'         2.7418   -0.8086    1.7389 O.3       1 ATP        -0.6106
     19 C2'         0.7477    0.1630    0.7858 C.3       1 ATP         0.1294
     20 O2'         0.1373   -0.0577    2.0407 O.3       1 ATP        -0.5701
     21 C1'         1.3733    1.5427    0.6747 C.3       1 ATP         0.3967
     22 N9          0.4520    2.5240    0.1767 N.pl3     1 ATP        -0.5600
     23 C8         -0.3477    3.3274    0.8626 C.ar      1 ATP         0.3009
     24 N7         -1.0836    4.1323    0.0983 N.pl3     1 ATP        -0.5113
     25 C5         -0.7273    3.8194   -1.1674 C.ar      1 ATP        -0.2824
     26 C6         -1.1208    4.2877   -2.3863 C.ar      1 ATP         0.7670
     27 N6         -2.0932    5.3066   -2.4528 N.pl3     1 ATP        -0.9491
     28 N1         -0.5892    3.7853   -3.5223 N.ar      1 ATP        -0.7474
     29 C2          0.3427    2.8040   -3.3648 C.ar      1 ATP         0.7118
     30 N3          0.8012    2.2709   -2.2093 N.ar      1 ATP        -0.6661
     31 C4          0.2307    2.8167   -1.1312 C.ar      1 ATP         0.6308
     32 HOG2        8.1270   -4.0248   -1.1755 H         1 ATP         0.4930
     33 HOG3        6.2604   -0.8246   -2.0405 H         1 ATP         0.4930
     34 HOB2        3.4963   -2.8273   -6.0585 H         1 ATP         0.4808
     35 H5'1        1.2153   -0.0781   -2.0454 H         1 ATP         0.0350
     36 H5'2        2.4645   -1.3454   -2.1547 H         1 ATP         0.0350
     37 H4'         3.8050   -0.1388   -0.4008 H         1 ATP         0.1244
     38 H3'         1.6784   -1.7629    0.2714 H         1 ATP         0.0924
     39 HO3'        2.2232   -1.2979    2.3953 H         1 ATP         0.4379
     40 H2'        -0.0011    0.0027    0.0003 H         1 ATP         0.0849
     41 HO2'       -0.6141    0.5574    2.1082 H         1 ATP         0.4417
     42 H1'         1.7826    1.9024    1.6451 H         1 ATP         0.1307
     43 H8         -0.4040    3.3373    1.9373 H         1 ATP         0.2875
     44 HN61       -2.5133    5.6366   -1.6073 H         1 ATP         0.4559
     45 HN62       -2.4153    5.6161   -3.3477 H         1 ATP         0.4559
     46 H2          0.7668    2.4032   -4.2782 H         1 ATP         0.0858
     47 H47        -1.7549    4.8194    0.4122 H         1 ATP         0.5042
@<TRIPOS>BOND
     1    1    2 2
     2    1    3 1
     3    1    4 1
     4    1    8 1
     5    3   32 1
     6    4   33 1
     7    5    6 2
     8    5    7 1
     9    5    8 1
    10    5   12 1
    11    7   34 1
    12    9   10 2
    13    9   11 1
    14    9   12 1
    15    9   13 1
    16   13   14 1
    17   14   15 1
    18   14   35 1
    19   14   36 1
    20   15   16 1
    21   15   17 1
    22   15   37 1
    23   16   21 1
    24   17   18 1
    25   17   19 1
    26   17   38 1
    27   18   39 1
    28   19   20 1
    29   19   21 1
    30   19   40 1
    31   20   41 1
    32   21   22 1
    33   21   42 1
    34   22   23 ar
    35   22   31 ar
    36   23   24 ar
    37   23   43 1
    38   24   25 ar
    39   24   47 1
    40   25   26 ar
    41   25   31 ar
    42   26   27 1
    43   26   28 ar
    44   27   44 1
    45   27   45 1
    46   28   29 ar
    47   29   30 ar
    48   29   46 1
    49   30   31 ar
@<TRIPOS>SUBSTRUCTURE
     1 ATP         1 GROUP 0 A     ****
@<TRIPOS>MOLECULE
[5-(6-amino-7,8-dihydropurin-8-ylium-9-yl)-3,4-dihydroxy-tetrahydrofuran-2-yl]methyl [hydroxy(phosphonooxy)phosphoryl] phosphate
   47    49     1     0     0
SMALL
USER_CHARGES

@<TRIPOS>ATOM
      1 PG          5.3005   -1.2843   -8.3902 P.3       1 ATP         1.8237
      2 O1G         4.3623   -1.5695   -9.5255 O.2       1 ATP        -0.8455
      3 O2G         6.3504   -2.4708   -8.0670 O.3       1 ATP        -0.7970
      4 O3G         6.2600   -0.0012   -8.6107 O.3       1 ATP        -0.7970
      5 PB          3.6381   -1.9227   -6.0539 P.3       1 ATP         1.9358
      6 O1B         2.3512   -2.3382   -6.7033 O.2       1 ATP        -0.8836
      7 O2B         4.6013   -3.1399   -5.6027 O.3       1 ATP        -0.8065
      8 O3B         4.6035   -1.0003   -6.9621 O.3       1 ATP        -0.8233
      9 PA          2.7386    0.3748   -4.4298 P.3       1 ATP         1.5686
     10 O1A         1.2524    0.2205   -4.6698 O.co2     1 ATP        -0.8169
     11 O2A         3.5296    1.4502   -5.1423 O.co2     1 ATP        -0.8169
     12 O3A         3.4667   -1.0606   -4.6985 O.3       1 ATP        -0.7987
     13 O5'         3.0197    0.5137   -2.8245 O.3       1 ATP        -0.5693
     14 C5'         2.2816   -0.2918   -1.9206 C.3       1 ATP         0.1841
     15 C4'         2.7248    0.0226   -0.4980 C.3       1 ATP         0.0904
     16 O4'         2.4697    1.4219   -0.2462 O.3       1 ATP        -0.4083
     17 C3'         1.9404   -0.7419    0.5596 C.3       1 ATP         0.0826
     18 O3'         2.7418   -0.8086    1.7389 O.3       1 ATP        -0.6106
     19 C2'         0.7477    0.1630    0.7858 C.3       1 ATP         0.1294
     20 O2'         0.1373   -0.0577    2.0407 O.3       1 ATP        -0.5701
     21 C1'         1.3733    1.5427    0.6747 C.3       1 ATP         0.3967
     22 N9          0.4520    2.5240    0.1767 N.pl3     1 ATP        -0.5600
     23 C8         -0.6854    2.9365    0.7168 C.ar      1 ATP         0.3009
     24 N7         -1.3118    3.8692    0.0018 N.pl3     1 ATP        -0.5113
     25 C5         -0.5159    4.0659   -1.0727 C.ar      1 ATP        -0.2824
     26 C6         -0.6068    4.8856   -2.1589 C.ar      1 ATP         0.7670
     27 N6         -1.7186    5.7437   -2.2844 N.pl3     1 ATP        -0.9491
     28 N1          0.3541    4.8807   -3.1087 N.ar      1 ATP        -0.7474
     29 C2          1.3913    4.0207   -2.9071 C.ar      1 ATP         0.7118
     30 N3          1.5770    3.1707   -1.8715 N.ar      1 ATP        -0.6661
     31 C4          0.5883    3.2318   -0.9747 C.ar      1 ATP         0.6308
     32 HOG2        6.9931   -2.3497   -7.3360 H         1 ATP         0.4930
     33 HOG3        5.8501    0.8797   -8.7462 H         1 ATP         0.4930
     34 HOB2        4.9284   -3.7646   -6.2846 H         1 ATP         0.4808
     35 H5'1        1.2153   -0.0781   -2.0454 H         1 ATP         0.0350
     36 H5'2        2.4645   -1.3454   -2.1547 H         1 ATP         0.0350
     37 H4'         3.8050   -0.1388   -0.4008 H         1 ATP         0.1244
     38 H3'         1.6784   -1.7629    0.2714 H         1 ATP         0.0924
     39 HO3'        2.2232   -1.2979    2.3953 H         1 ATP         0.4379
     40 H2'        -0.0011    0.0027    0.0003 H         1 ATP         0.0849
     41 HO2'       -0.1563   -0.9855    2.0596 H         1 ATP         0.4417
     42 H1'         1.7826    1.9024    1.6451 H         1 ATP         0.1307
     43 H8         -1.0749    2.5601    1.6468 H         1 ATP         0.2875
     44 HN61       -2.4460    5.7038   -1.5992 H         1 ATP         0.4559
     45 HN62       -1.8079    6.3099   -3.1040 H         1 ATP         0.4559
     46 H2          2.1601    4.0194   -3.6712 H         1 ATP         0.0858
     47 H47        -2.1877    4.3195    0.2279 H         1 ATP         0.5042
@<TRIPOS>BOND
     1    1    2 2
     2    1    3 1
     3    1    4 1
     4    1    8 1
     5    3   32 1
     6    4   33 1
     7    5    6 2
     8    5    7 1
     9    5    8 1
    10    5   12 1
    11    7   34 1
    12    9   10 2
    13    9   11 1
    14    9   12 1
    15    9   13 1
    16   13   14 1
    17   14   15 1
    18   14   35 1
    19   14   36 1
    20   15   16 1
    21   15   17 1
    22   15   37 1
    23   16   21 1
    24   17   18 1
    25   17   19 1
    26   17   38 1
    27   18   39 1
    28   19   20 1
    29   19   21 1
    30   19   40 1
    31   20   41 1
    32   21   22 1
    33   21   42 1
    34   22   23 ar
    35   22   31 ar
    36   23   24 ar
    37   23   43 1
    38   24   25 ar
    39   24   47 1
    40   25   26 ar
    41   25   31 ar
    42   26   27 1
    43   26   28 ar
    44   27   44 1
    45   27   45 1
    46   28   29 ar
    47   29   30 ar
    48   29   46 1
    49   30   31 ar
@<TRIPOS>SUBSTRUCTURE
     1 ATP         1 GROUP 0 A     ****
@<TRIPOS>MOLECULE
[5-(6-amino-7,8-dihydropurin-8-ylium-9-yl)-3,4-dihydroxy-tetrahydrofuran-2-yl]methyl [hydroxy(phosphonooxy)phosphoryl] phosphate
   47    49     1     0     0
SMALL
USER_CHARGES

@<TRIPOS>ATOM
      1 PG          6.1401   -3.8598   -2.6928 P.3       1 ATP         1.8237
      2 O1G         6.1406   -3.8864   -1.1929 O.2       1 ATP        -0.8455
      3 O2G         7.1324   -4.9306   -3.3879 O.3       1 ATP        -0.7970
      4 O3G         4.7122   -4.1920   -3.3754 O.3       1 ATP        -0.7970
      5 PB          5.9201   -0.9835   -3.2485 P.3       1 ATP         1.9358
      6 O1B         5.8780   -0.4105   -1.8628 O.2       1 ATP        -0.8836
      7 O2B         6.7624   -0.1170   -4.3222 O.3       1 ATP        -0.8065
      8 O3B         6.5697   -2.4572   -3.3669 O.3       1 ATP        -0.8233
      9 PA          3.3322   -0.0533   -4.3265 P.3       1 ATP         1.5686
     10 O1A         2.1130   -0.7769   -4.8559 O.co2     1 ATP        -0.8169
     11 O2A         3.9798    1.0571   -5.1250 O.co2     1 ATP        -0.8169
     12 O3A         4.4780   -1.1544   -3.9562 O.3       1 ATP        -0.7987
     13 O5'         3.0197    0.5137   -2.8245 O.3       1 ATP        -0.5693
     14 C5'         2.2816   -0.2918   -1.9206 C.3       1 ATP         0.1841
     15 C4'         2.7248    0.0226   -0.4980 C.3       1 ATP         0.0904
     16 O4'         2.4697    1.4219   -0.2462 O.3       1 ATP        -0.4083
     17 C3'         1.9404   -0.7419    0.5596 C.3       1 ATP         0.0826
     18 O3'         2.7418   -0.8086    1.7389 O.3       1 ATP        -0.6106
     19 C2'         0.7477    0.1630    0.7858 C.3       1 ATP         0.1294
     20 O2'         0.1373   -0.0577    2.0407 O.3       1 ATP        -0.5701
     21 C1'         1.3733    1.5427    0.6747 C.3       1 ATP         0.3967
     22 N9          0.4520    2.5240    0.1767 N.pl3     1 ATP        -0.5600
     23 C8         -0.5899    2.3466   -0.6224 C.ar      1 ATP         0.3009
     24 N7         -1.2514    3.4689   -0.8989 N.pl3     1 ATP        -0.5113
     25 C5         -0.5826    4.4323   -0.2272 C.ar      1 ATP        -0.2824
     26 C6         -0.7636    5.7789   -0.1086 C.ar      1 ATP         0.7670
     27 N6         -1.8382    6.3927   -0.7843 N.pl3     1 ATP        -0.9491
     28 N1          0.0741    6.5233    0.6461 N.ar      1 ATP        -0.7474
     29 C2          1.0845    5.8486    1.2626 C.ar      1 ATP         0.7118
     30 N3          1.3516    4.5236    1.2116 N.ar      1 ATP        -0.6661
     31 C4          0.4827    3.8546    0.4481 C.ar      1 ATP         0.6308
     32 HOG2        8.0930   -4.8818   -3.1957 H         1 ATP         0.4930
     33 HOG3        3.9444   -3.6157   -3.1735 H         1 ATP         0.4930
     34 HOB2        6.4867    0.8057   -4.5089 H         1 ATP         0.4808
     35 H5'1        1.2153   -0.0781   -2.0454 H         1 ATP         0.0350
     36 H5'2        2.4645   -1.3454   -2.1547 H         1 ATP         0.0350
     37 H4'         3.8050   -0.1388   -0.4008 H         1 ATP         0.1244
     38 H3'         1.6784   -1.7629    0.2714 H         1 ATP         0.0924
     39 HO3'        2.2232   -1.2979    2.3953 H         1 ATP         0.4379
     40 H2'        -0.0011    0.0027    0.0003 H         1 ATP         0.0849
     41 HO2'       -0.6141    0.5574    2.1082 H         1 ATP         0.4417
     42 H1'         1.7826    1.9024    1.6451 H         1 ATP         0.1307
     43 H8         -0.8833    1.3888   -1.0158 H         1 ATP         0.2875
     44 HN61       -2.4225    5.8385   -1.3773 H         1 ATP         0.4559
     45 HN62       -1.9421    7.3862   -0.7348 H         1 ATP         0.4559
     46 H2          1.7546    6.4491    1.8670 H         1 ATP         0.0858
     47 H47        -2.0705    3.5612   -1.4834 H         1 ATP         0.5042
@<TRIPOS>BOND
     1    1    2 2
     2    1    3 1
     3    1    4 1
     4    1    8 1
     5    3   32 1
     6    4   33 1
     7    5    6 2
     8    5    7 1
     9    5    8 1
    10    5   12 1
    11    7   34 1
    12    9   10 2
    13    9   11 1
    14    9   12 1
    15    9   13 1
    16   13   14 1
    17   14   15 1
    18   14   35 1
    19   14   36 1
    20   15   16 1
    21   15   17 1
    22   15   37 1
    23   16   21 1
    24   17   18 1
    25   17   19 1
    26   17   38 1
    27   18   39 1
    28   19   20 1
    29   19   21 1
    30   19   40 1
    31   20   41 1
    32   21   22 1
    33   21   42 1
    34   22   23 ar
    35   22   31 ar
    36   23   24 ar
    37   23   43 1
    38   24   25 ar
    39   24   47 1
    40   25   26 ar
    41   25   31 ar
    42   26   27 1
    43   26   28 ar
    44   27   44 1
    45   27   45 1
    46   28   29 ar
    47   29   30 ar
    48   29   46 1
    49   30   31 ar
@<TRIPOS>SUBSTRUCTURE
     1 ATP         1 GROUP 0 A     ****
@<TRIPOS>MOLECULE
[5-(6-amino-7,8-dihydropurin-8-ylium-9-yl)-3,4-dihydroxy-tetrahydrofuran-2-yl]methyl [hydroxy(phosphonooxy)phosphoryl] phosphate
   47    49     1     0     0
SMALL
USER_CHARGES

@<TRIPOS>ATOM
      1 PG         -1.5149   -0.7388   -5.3655 P.3       1 ATP         1.8237
      2 O1G        -1.7991   -2.2023   -5.5315 O.2       1 ATP        -0.8455
      3 O2G        -2.7619    0.2341   -5.7018 O.3       1 ATP        -0.7970
      4 O3G        -1.1027   -0.2949   -3.8660 O.3       1 ATP        -0.7970
      5 PB          1.2431   -0.5398   -6.3573 P.3       1 ATP         1.9358
      6 O1B         1.5323   -1.9630   -6.7334 O.2       1 ATP        -0.8836
      7 O2B         1.8554    0.5709   -7.3597 O.3       1 ATP        -0.8065
      8 O3B        -0.3221   -0.1503   -6.2805 O.3       1 ATP        -0.8233
      9 PA          3.3322   -0.0533   -4.3265 P.3       1 ATP         1.5686
     10 O1A         4.1270    0.9770   -5.0991 O.co2     1 ATP        -0.8169
     11 O2A         3.8287   -1.4771   -4.1997 O.co2     1 ATP        -0.8169
     12 O3A         1.8098   -0.0911   -4.9126 O.3       1 ATP        -0.7987
     13 O5'         3.0197    0.5137   -2.8245 O.3       1 ATP        -0.5693
     14 C5'         2.2816   -0.2918   -1.9206 C.3       1 ATP         0.1841
     15 C4'         2.7248    0.0226   -0.4980 C.3       1 ATP         0.0904
     16 O4'         2.4697    1.4219   -0.2462 O.3       1 ATP        -0.4083
     17 C3'         1.9404   -0.7419    0.5596 C.3       1 ATP         0.0826
     18 O3'         2.7418   -0.8086    1.7389 O.3       1 ATP        -0.6106
     19 C2'         0.7477    0.1630    0.7858 C.3       1 ATP         0.1294
     20 O2'         0.1373   -0.0577    2.0407 O.3       1 ATP        -0.5701
     21 C1'         1.3733    1.5427    0.6747 C.3       1 ATP         0.3967
     22 N9          0.4520    2.5240    0.1767 N.pl3     1 ATP        -0.5600
     23 C8         -0.8602    2.5861    0.3496 C.ar      1 ATP         0.3009
     24 N7         -1.4308    3.6326   -0.2443 N.pl3     1 ATP        -0.5113
     25 C5         -0.4080    4.2856   -0.8394 C.ar      1 ATP        -0.2824
     26 C6         -0.3432    5.4196   -1.5943 C.ar      1 ATP         0.7670
     27 N6         -1.5276    6.1333   -1.8702 N.pl3     1 ATP        -0.9491
     28 N1          0.8395    5.8603   -2.0764 N.ar      1 ATP        -0.7474
     29 C2          1.9319    5.1095   -1.7617 C.ar      1 ATP         0.7118
     30 N3          1.9773    3.9761   -1.0249 N.ar      1 ATP        -0.6661
     31 C4          0.7724    3.6031   -0.5836 C.ar      1 ATP         0.6308
     32 HOG2       -3.1490    0.2150   -6.6029 H         1 ATP         0.4930
     33 HOG3       -0.3050   -0.6925   -3.4561 H         1 ATP         0.4930
     34 HOB2        2.8264    0.6058   -7.4939 H         1 ATP         0.4808
     35 H5'1        1.2153   -0.0781   -2.0454 H         1 ATP         0.0350
     36 H5'2        2.4645   -1.3454   -2.1547 H         1 ATP         0.0350
     37 H4'         3.8050   -0.1388   -0.4008 H         1 ATP         0.1244
     38 H3'         1.6784   -1.7629    0.2714 H         1 ATP         0.0924
     39 HO3'        3.5554   -1.2733    1.4914 H         1 ATP         0.4379
     40 H2'        -0.0011    0.0027    0.0003 H         1 ATP         0.0849
     41 HO2'        0.8082    0.1199    2.7232 H         1 ATP         0.4417
     42 H1'         1.7826    1.9024    1.6451 H         1 ATP         0.1307
     43 H8         -1.4217    1.8638    0.9164 H         1 ATP         0.2875
     44 HN61       -2.4023    5.7711   -1.5477 H         1 ATP         0.4559
     45 HN62       -1.4857    6.9379   -2.4627 H         1 ATP         0.4559
     46 H2          2.8789    5.4660   -2.1503 H         1 ATP         0.0858
     47 H47        -2.4129    3.8706   -0.2402 H         1 ATP         0.5042
@<TRIPOS>BOND
     1    1    2 2
     2    1    3 1
     3    1    4 1
     4    1    8 1
     5    3   32 1
     6    4   33 1
     7    5    6 2
     8    5    7 1
     9    5    8 1
    10    5   12 1
    11    7   34 1
    12    9   10 2
    13    9   11 1
    14    9   12 1
    15    9   13 1
    16   13   14 1
    17   14   15 1
    18   14   35 1
    19   14   36 1
    20   15   16 1
    21   15   17 1
    22   15   37 1
    23   16   21 1
    24   17   18 1
    25   17   19 1
    26   17   38 1
    27   18   39 1
    28   19   20 1
    29   19   21 1
    30   19   40 1
    31   20   41 1
    32   21   22 1
    33   21   42 1
    34   22   23 ar
    35   22   31 ar
    36   23   24 ar
    37   23   43 1
    38   24   25 ar
    39   24   47 1
    40   25   26 ar
    41   25   31 ar
    42   26   27 1
    43   26   28 ar
    44   27   44 1
    45   27   45 1
    46   28   29 ar
    47   29   30 ar
    48   29   46 1
    49   30   31 ar
@<TRIPOS>SUBSTRUCTURE
     1 ATP         1 GROUP 0 A     ****
@<TRIPOS>MOLECULE
[5-(6-amino-7,8-dihydropurin-8-ylium-9-yl)-3,4-dihydroxy-tetrahydrofuran-2-yl]methyl [hydroxy(phosphonooxy)phosphoryl] phosphate
   47    49     1     0     0
SMALL
USER_CHARGES

@<TRIPOS>ATOM
      1 PG         -0.8746   -0.4239   -7.4901 P.3       1 ATP         1.8237
      2 O1G        -2.1573    0.3487   -7.3998 O.2       1 ATP        -0.8455
      3 O2G        -1.0432   -2.0283   -7.3816 O.3       1 ATP        -0.7970
      4 O3G        -0.0680   -0.2371   -8.8793 O.3       1 ATP        -0.7970
      5 PB          0.9773    1.2976   -5.9945 P.3       1 ATP         1.9358
      6 O1B         1.7951    1.8948   -7.1013 O.2       1 ATP        -0.8836
      7 O2B        -0.2172    2.2368   -5.4427 O.3       1 ATP        -0.8065
      8 O3B         0.2265   -0.0847   -6.3593 O.3       1 ATP        -0.8233
      9 PA          3.0648   -0.0870   -4.4293 P.3       1 ATP         1.5686
     10 O1A         4.2654    0.4430   -5.1830 O.co2     1 ATP        -0.8169
     11 O2A         2.5779   -1.5030   -4.6479 O.co2     1 ATP        -0.8169
     12 O3A         1.8088    0.9287   -4.6595 O.3       1 ATP        -0.7987
     13 O5'         3.2883    0.1336   -2.8242 O.3       1 ATP        -0.5693
     14 C5'         2.2816   -0.2918   -1.9206 C.3       1 ATP         0.1841
     15 C4'         2.7248    0.0226   -0.4980 C.3       1 ATP         0.0904
     16 O4'         2.4697    1.4219   -0.2462 O.3       1 ATP        -0.4083
     17 C3'         1.9404   -0.7419    0.5596 C.3       1 ATP         0.0826
     18 O3'         2.7418   -0.8086    1.7389 O.3       1 ATP        -0.6106
     19 C2'         0.7477    0.1630    0.7858 C.3       1 ATP         0.1294
     20 O2'         0.1373   -0.0577    2.0407 O.3       1 ATP        -0.5701
     21 C1'         1.3733    1.5427    0.6747 C.3       1 ATP         0.3967
     22 N9          0.4520    2.5240    0.1767 N.pl3     1 ATP        -0.5600
     23 C8         -0.8252    2.3702   -0.1405 C.ar      1 ATP         0.3009
     24 N7         -1.4086    3.4861   -0.5739 N.pl3     1 ATP        -0.5113
     25 C5         -0.4324    4.4197   -0.5299 C.ar      1 ATP        -0.2824
     26 C6         -0.4006    5.7465   -0.8439 C.ar      1 ATP         0.7670
     27 N6         -1.5714    6.3708   -1.3211 N.pl3     1 ATP        -0.9491
     28 N1          0.7370    6.4615   -0.7020 N.ar      1 ATP        -0.7474
     29 C2          1.8196    5.7785   -0.2355 C.ar      1 ATP         0.7118
     30 N3          1.8948    4.4713    0.1036 N.ar      1 ATP        -0.6661
     31 C4          0.7337    3.8311   -0.0629 C.ar      1 ATP         0.6308
     32 HOG2       -1.4401   -2.4099   -6.5698 H         1 ATP         0.4930
     33 HOG3       -0.5050   -0.4928   -9.7195 H         1 ATP         0.4930
     34 HOB2       -0.9212    2.5232   -6.0628 H         1 ATP         0.4808
     35 H5'1        1.3500    0.2325   -2.1560 H         1 ATP         0.0350
     36 H5'2        2.1266   -1.3683   -2.0443 H         1 ATP         0.0350
     37 H4'         3.8050   -0.1388   -0.4008 H         1 ATP         0.1244
     38 H3'         1.6784   -1.7629    0.2714 H         1 ATP         0.0924
     39 HO3'        2.2232   -1.2979    2.3953 H         1 ATP         0.4379
     40 H2'        -0.0011    0.0027    0.0003 H         1 ATP         0.0849
     41 HO2'       -0.6141    0.5574    2.1082 H         1 ATP         0.4417
     42 H1'         1.7826    1.9024    1.6451 H         1 ATP         0.1307
     43 H8         -1.3516    1.4351   -0.0582 H         1 ATP         0.2875
     44 HN61       -2.3936    5.8204   -1.4664 H         1 ATP         0.4559
     45 HN62       -1.5348    7.3319   -1.5955 H         1 ATP         0.4559
     46 H2          2.7305    6.3553   -0.1232 H         1 ATP         0.0858
     47 H47        -2.3700    3.5931   -0.8665 H         1 ATP         0.5042
@<TRIPOS>BOND
     1    1    2 2
     2    1    3 1
     3    1    4 1
     4    1    8 1
     5    3   32 1
     6    4   33 1
     7    5    6 2
     8    5    7 1
     9    5    8 1
    10    5   12 1
    11    7   34 1
    12    9   10 2
    13    9   11 1
    14    9   12 1
    15    9   13 1
    16   13   14 1
    17   14   15 1
    18   14   35 1
    19   14   36 1
    20   15   16 1
    21   15   17 1
    22   15   37 1
    23   16   21 1
    24   17   18 1
    25   17   19 1
    26   17   38 1
    27   18   39 1
    28   19   20 1
    29   19   21 1
    30   19   40 1
    31   20   41 1
    32   21   22 1
    33   21   42 1
    34   22   23 ar
    35   22   31 ar
    36   23   24 ar
    37   23   43 1
    38   24   25 ar
    39   24   47 1
    40   25   26 ar
    41   25   31 ar
    42   26   27 1
    43   26   28 ar
    44   27   44 1
    45   27   45 1
    46   28   29 ar
    47   29   30 ar
    48   29   46 1
    49   30   31 ar
@<TRIPOS>SUBSTRUCTURE
     1 ATP         1 GROUP 0 A     ****
@<TRIPOS>MOLECULE
[5-(6-amino-7,8-dihydropurin-8-ylium-9-yl)-3,4-dihydroxy-tetrahydrofuran-2-yl]methyl [hydroxy(phosphonooxy)phosphoryl] phosphate
   47    49     1     0     0
SMALL
USER_CHARGES

@<TRIPOS>ATOM
      1 PG         -1.5909   -4.3513   -2.4303 P.3       1 ATP         1.8237
      2 O1G        -0.7483   -4.0335   -1.2305 O.2       1 ATP        -0.8455
      3 O2G        -1.4926   -5.8833   -2.9382 O.3       1 ATP        -0.7970
      4 O3G        -3.1800   -4.1413   -2.2166 O.3       1 ATP        -0.7970
      5 PB          0.0873   -3.3627   -4.6295 P.3       1 ATP         1.9358
      6 O1B         0.5963   -4.6442   -5.2205 O.2       1 ATP        -0.8836
      7 O2B        -0.2694   -2.2080   -5.7030 O.3       1 ATP        -0.8065
      8 O3B        -1.2665   -3.4937   -3.7590 O.3       1 ATP        -0.8233
      9 PA          2.6176   -2.0495   -3.8562 P.3       1 ATP         1.5686
     10 O1A         2.5475   -0.8911   -4.8275 O.co2     1 ATP        -0.8169
     11 O2A         3.5417   -3.2199   -4.1138 O.co2     1 ATP        -0.8169
     12 O3A         1.1108   -2.6284   -3.6180 O.3       1 ATP        -0.7987
     13 O5'         2.9201   -1.4821   -2.3524 O.3       1 ATP        -0.5693
     14 C5'         2.2816   -0.2918   -1.9206 C.3       1 ATP         0.1841
     15 C4'         2.7248    0.0226   -0.4980 C.3       1 ATP         0.0904
     16 O4'         2.4697    1.4219   -0.2462 O.3       1 ATP        -0.4083
     17 C3'         1.9404   -0.7419    0.5596 C.3       1 ATP         0.0826
     18 O3'         2.7418   -0.8086    1.7389 O.3       1 ATP        -0.6106
     19 C2'         0.7477    0.1630    0.7858 C.3       1 ATP         0.1294
     20 O2'         0.1373   -0.0577    2.0407 O.3       1 ATP        -0.5701
     21 C1'         1.3733    1.5427    0.6747 C.3       1 ATP         0.3967
     22 N9          0.4520    2.5240    0.1767 N.pl3     1 ATP        -0.5600
     23 C8         -0.3477    3.3274    0.8626 C.ar      1 ATP         0.3009
     24 N7         -1.0836    4.1323    0.0983 N.pl3     1 ATP        -0.5113
     25 C5         -0.7273    3.8194   -1.1674 C.ar      1 ATP        -0.2824
     26 C6         -1.1208    4.2877   -2.3863 C.ar      1 ATP         0.7670
     27 N6         -2.0932    5.3066   -2.4528 N.pl3     1 ATP        -0.9491
     28 N1         -0.5892    3.7853   -3.5223 N.ar      1 ATP        -0.7474
     29 C2          0.3427    2.8040   -3.3648 C.ar      1 ATP         0.7118
     30 N3          0.8012    2.2709   -2.2093 N.ar      1 ATP        -0.6661
     31 C4          0.2307    2.8167   -1.1312 C.ar      1 ATP         0.6308
     32 HOG2       -0.6208   -6.2356   -3.2173 H         1 ATP         0.4930
     33 HOG3       -3.5130   -3.2494   -1.9798 H         1 ATP         0.4930
     34 HOB2        0.4385   -1.8739   -6.2940 H         1 ATP         0.4808
     35 H5'1        2.5581    0.5235   -2.5966 H         1 ATP         0.0350
     36 H5'2        1.1974   -0.4370   -1.9607 H         1 ATP         0.0350
     37 H4'         3.8050   -0.1388   -0.4008 H         1 ATP         0.1244
     38 H3'         1.6784   -1.7629    0.2714 H         1 ATP         0.0924
     39 HO3'        2.2232   -1.2979    2.3953 H         1 ATP         0.4379
     40 H2'        -0.0011    0.0027    0.0003 H         1 ATP         0.0849
     41 HO2'       -0.6141    0.5574    2.1082 H         1 ATP         0.4417
     42 H1'         1.7826    1.9024    1.6451 H         1 ATP         0.1307
     43 H8         -0.4040    3.3373    1.9373 H         1 ATP         0.2875
     44 HN61       -2.5133    5.6366   -1.6073 H         1 ATP         0.4559
     45 HN62       -2.4153    5.6161   -3.3477 H         1 ATP         0.4559
     46 H2          0.7668    2.4032   -4.2782 H         1 ATP         0.0858
     47 H47        -1.7549    4.8194    0.4122 H         1 ATP         0.5042
@<TRIPOS>BOND
     1    1    2 2
     2    1    3 1
     3    1    4 1
     4    1    8 1
     5    3   32 1
     6    4   33 1
     7    5    6 2
     8    5    7 1
     9    5    8 1
    10    5   12 1
    11    7   34 1
    12    9   10 2
    13    9   11 1
    14    9   12 1
    15    9   13 1
    16   13   14 1
    17   14   15 1
    18   14   35 1
    19   14   36 1
    20   15   16 1
    21   15   17 1
    22   15   37 1
    23   16   21 1
    24   17   18 1
    25   17   19 1
    26   17   38 1
    27   18   39 1
    28   19   20 1
    29   19   21 1
    30   19   40 1
    31   20   41 1
    32   21   22 1
    33   21   42 1
    34   22   23 ar
    35   22   31 ar
    36   23   24 ar
    37   23   43 1
    38   24   25 ar
    39   24   47 1
    40   25   26 ar
    41   25   31 ar
    42   26   27 1
    43   26   28 ar
    44   27   44 1
    45   27   45 1
    46   28   29 ar
    47   29   30 ar
    48   29   46 1
    49   30   31 ar
@<TRIPOS>SUBSTRUCTURE
     1 ATP         1 GROUP 0 A     ****
@<TRIPOS>MOLECULE
[5-(6-amino-7,8-dihydropurin-8-ylium-9-yl)-3,4-dihydroxy-tetrahydrofuran-2-yl]methyl [hydroxy(phosphonooxy)phosphoryl] phosphate
   47    49     1     0     0
SMALL
USER_CHARGES

@<TRIPOS>ATOM
      1 PG          4.2280   -3.6304   -7.7599 P.3       1 ATP         1.8237
      2 O1G         4.2269   -5.1140   -7.5380 O.2       1 ATP        -0.8455
      3 O2G         5.6615   -3.0112   -8.1800 O.3       1 ATP        -0.7970
      4 O3G         3.2520   -3.1222   -8.9450 O.3       1 ATP        -0.7970
      5 PB          2.4139   -2.6990   -5.6453 P.3       1 ATP         1.9358
      6 O1B         1.1850   -2.3524   -6.4327 O.2       1 ATP        -0.8836
      7 O2B         2.3809   -4.1469   -4.9272 O.3       1 ATP        -0.8065
      8 O3B         3.7890   -2.7337   -6.4913 O.3       1 ATP        -0.8233
      9 PA          3.0648   -0.0870   -4.4293 P.3       1 ATP         1.5686
     10 O1A         1.8228    0.6556   -4.8721 O.co2     1 ATP        -0.8169
     11 O2A         4.3895    0.1375   -5.1255 O.co2     1 ATP        -0.8169
     12 O3A         2.7493   -1.6879   -4.4309 O.3       1 ATP        -0.7987
     13 O5'         3.2883    0.1336   -2.8242 O.3       1 ATP        -0.5693
     14 C5'         2.2816   -0.2918   -1.9206 C.3       1 ATP         0.1841
     15 C4'         2.7248    0.0226   -0.4980 C.3       1 ATP         0.0904
     16 O4'         2.4697    1.4219   -0.2462 O.3       1 ATP        -0.4083
     17 C3'         1.9404   -0.7419    0.5596 C.3       1 ATP         0.0826
     18 O3'         2.7418   -0.8086    1.7389 O.3       1 ATP        -0.6106
     19 C2'         0.7477    0.1630    0.7858 C.3       1 ATP         0.1294
     20 O2'         0.1373   -0.0577    2.0407 O.3       1 ATP        -0.5701
     21 C1'         1.3733    1.5427    0.6747 C.3       1 ATP         0.3967
     22 N9          0.4520    2.5240    0.1767 N.pl3     1 ATP        -0.5600
     23 C8         -0.8602    2.5861    0.3496 C.ar      1 ATP         0.3009
     24 N7         -1.4308    3.6326   -0.2443 N.pl3     1 ATP        -0.5113
     25 C5         -0.4080    4.2856   -0.8394 C.ar      1 ATP        -0.2824
     26 C6         -0.3432    5.4196   -1.5943 C.ar      1 ATP         0.7670
     27 N6         -1.5276    6.1333   -1.8702 N.pl3     1 ATP        -0.9491
     28 N1          0.8395    5.8603   -2.0764 N.ar      1 ATP        -0.7474
     29 C2          1.9319    5.1095   -1.7617 C.ar      1 ATP         0.7118
     30 N3          1.9773    3.9761   -1.0249 N.ar      1 ATP        -0.6661
     31 C4          0.7724    3.6031   -0.5836 C.ar      1 ATP         0.6308
     32 HOG2        6.4207   -3.1139   -7.5675 H         1 ATP         0.4930
     33 HOG3        3.4015   -3.4522   -9.8567 H         1 ATP         0.4930
     34 HOB2        2.2805   -4.9499   -5.4816 H         1 ATP         0.4808
     35 H5'1        1.3500    0.2325   -2.1560 H         1 ATP         0.0350
     36 H5'2        2.1266   -1.3683   -2.0443 H         1 ATP         0.0350
     37 H4'         3.8050   -0.1388   -0.4008 H         1 ATP         0.1244
     38 H3'         1.6784   -1.7629    0.2714 H         1 ATP         0.0924
     39 HO3'        3.5554   -1.2733    1.4914 H         1 ATP         0.4379
     40 H2'        -0.0011    0.0027    0.0003 H         1 ATP         0.0849
     41 HO2'       -0.1563   -0.9855    2.0596 H         1 ATP         0.4417
     42 H1'         1.7826    1.9024    1.6451 H         1 ATP         0.1307
     43 H8         -1.4217    1.8638    0.9164 H         1 ATP         0.2875
     44 HN61       -2.4023    5.7711   -1.5477 H         1 ATP         0.4559
     45 HN62       -1.4857    6.9379   -2.4627 H         1 ATP         0.4559
     46 H2          2.8789    5.4660   -2.1503 H         1 ATP         0.0858
     47 H47        -2.4129    3.8706   -0.2402 H         1 ATP         0.5042
@<TRIPOS>BOND
     1    1    2 2
     2    1    3 1
     3    1    4 1
     4    1    8 1
     5    3   32 1
     6    4   33 1
     7    5    6 2
     8    5    7 1
     9    5    8 1
    10    5   12 1
    11    7   34 1
    12    9   10 2
    13    9   11 1
    14    9   12 1
    15    9   13 1
    16   13   14 1
    17   14   15 1
    18   14   35 1
    19   14   36 1
    20   15   16 1
    21   15   17 1
    22   15   37 1
    23   16   21 1
    24   17   18 1
    25   17   19 1
    26   17   38 1
    27   18   39 1
    28   19   20 1
    29   19   21 1
    30   19   40 1
    31   20   41 1
    32   21   22 1
    33   21   42 1
    34   22   23 ar
    35   22   31 ar
    36   23   24 ar
    37   23   43 1
    38   24   25 ar
    39   24   47 1
    40   25   26 ar
    41   25   31 ar
    42   26   27 1
    43   26   28 ar
    44   27   44 1
    45   27   45 1
    46   28   29 ar
    47   29   30 ar
    48   29   46 1
    49   30   31 ar
@<TRIPOS>SUBSTRUCTURE
     1 ATP         1 GROUP 0 A     ****
@<TRIPOS>MOLECULE
[5-(6-amino-7,8-dihydropurin-8-ylium-9-yl)-3,4-dihydroxy-tetrahydrofuran-2-yl]methyl [hydroxy(phosphonooxy)phosphoryl] phosphate
   47    49     1     0     0
SMALL
USER_CHARGES

@<TRIPOS>ATOM
      1 PG          6.7778    0.9611   -4.0873 P.3       1 ATP         1.8237
      2 O1G         5.9008    1.3785   -2.9440 O.2       1 ATP        -0.8455
      3 O2G         6.5800    1.8239   -5.4405 O.3       1 ATP        -0.7970
      4 O3G         8.3650    1.0883   -3.8048 O.3       1 ATP        -0.7970
      5 PB          5.3095   -1.3418   -5.1693 P.3       1 ATP         1.9358
      6 O1B         4.7284   -0.7658   -6.4268 O.2       1 ATP        -0.8836
      7 O2B         5.8188   -2.8713   -5.2888 O.3       1 ATP        -0.8065
      8 O3B         6.5985   -0.5641   -4.5850 O.3       1 ATP        -0.8233
      9 PA          2.8591   -2.1295   -3.7203 P.3       1 ATP         1.5686
     10 O1A         3.0780   -3.6265   -3.7548 O.co2     1 ATP        -0.8169
     11 O2A         1.8561   -1.4730   -4.6439 O.co2     1 ATP        -0.8169
     12 O3A         4.2973   -1.3829   -3.9109 O.3       1 ATP        -0.7987
     13 O5'         2.5237   -1.6631   -2.1889 O.3       1 ATP        -0.5693
     14 C5'         2.2816   -0.2918   -1.9206 C.3       1 ATP         0.1841
     15 C4'         2.7248    0.0226   -0.4980 C.3       1 ATP         0.0904
     16 O4'         2.4697    1.4219   -0.2462 O.3       1 ATP        -0.4083
     17 C3'         1.9404   -0.7419    0.5596 C.3       1 ATP         0.0826
     18 O3'         2.7418   -0.8086    1.7389 O.3       1 ATP        -0.6106
     19 C2'         0.7477    0.1630    0.7858 C.3       1 ATP         0.1294
     20 O2'         0.1373   -0.0577    2.0407 O.3       1 ATP        -0.5701
     21 C1'         1.3733    1.5427    0.6747 C.3       1 ATP         0.3967
     22 N9          0.4520    2.5240    0.1767 N.pl3     1 ATP        -0.5600
     23 C8         -0.3477    3.3274    0.8626 C.ar      1 ATP         0.3009
     24 N7         -1.0836    4.1323    0.0983 N.pl3     1 ATP        -0.5113
     25 C5         -0.7273    3.8194   -1.1674 C.ar      1 ATP        -0.2824
     26 C6         -1.1208    4.2877   -2.3863 C.ar      1 ATP         0.7670
     27 N6         -2.0932    5.3066   -2.4528 N.pl3     1 ATP        -0.9491
     28 N1         -0.5892    3.7853   -3.5223 N.ar      1 ATP        -0.7474
     29 C2          0.3427    2.8040   -3.3648 C.ar      1 ATP         0.7118
     30 N3          0.8012    2.2709   -2.2093 N.ar      1 ATP        -0.6661
     31 C4          0.2307    2.8167   -1.1312 C.ar      1 ATP         0.6308
     32 HOG2        5.6983    1.8373   -5.8701 H         1 ATP         0.4930
     33 HOG3        8.7577    0.5765   -3.0657 H         1 ATP         0.4930
     34 HOB2        5.1742   -3.5687   -5.5343 H         1 ATP         0.4808
     35 H5'1        2.8429    0.3140   -2.6391 H         1 ATP         0.0350
     36 H5'2        1.2125   -0.0906   -2.0420 H         1 ATP         0.0350
     37 H4'         3.8050   -0.1388   -0.4008 H         1 ATP         0.1244
     38 H3'         1.6784   -1.7629    0.2714 H         1 ATP         0.0924
     39 HO3'        2.2232   -1.2979    2.3953 H         1 ATP         0.4379
     40 H2'        -0.0011    0.0027    0.0003 H         1 ATP         0.0849
     41 HO2'       -0.6141    0.5574    2.1082 H         1 ATP         0.4417
     42 H1'         1.7826    1.9024    1.6451 H         1 ATP         0.1307
     43 H8         -0.4040    3.3373    1.9373 H         1 ATP         0.2875
     44 HN61       -2.5133    5.6366   -1.6073 H         1 ATP         0.4559
     45 HN62       -2.4153    5.6161   -3.3477 H         1 ATP         0.4559
     46 H2          0.7668    2.4032   -4.2782 H         1 ATP         0.0858
     47 H47        -1.7549    4.8194    0.4122 H         1 ATP         0.5042
@<TRIPOS>BOND
     1    1    2 2
     2    1    3 1
     3    1    4 1
     4    1    8 1
     5    3   32 1
     6    4   33 1
     7    5    6 2
     8    5    7 1
     9    5    8 1
    10    5   12 1
    11    7   34 1
    12    9   10 2
    13    9   11 1
    14    9   12 1
    15    9   13 1
    16   13   14 1
    17   14   15 1
    18   14   35 1
    19   14   36 1
    20   15   16 1
    21   15   17 1
    22   15   37 1
    23   16   21 1
    24   17   18 1
    25   17   19 1
    26   17   38 1
    27   18   39 1
    28   19   20 1
    29   19   21 1
    30   19   40 1
    31   20   41 1
    32   21   22 1
    33   21   42 1
    34   22   23 ar
    35   22   31 ar
    36   23   24 ar
    37   23   43 1
    38   24   25 ar
    39   24   47 1
    40   25   26 ar
    41   25   31 ar
    42   26   27 1
    43   26   28 ar
    44   27   44 1
    45   27   45 1
    46   28   29 ar
    47   29   30 ar
    48   29   46 1
    49   30   31 ar
@<TRIPOS>SUBSTRUCTURE
     1 ATP         1 GROUP 0 A     ****
@<TRIPOS>MOLECULE
[5-(6-amino-7,8-dihydropurin-8-ylium-9-yl)-3,4-dihydroxy-tetrahydrofuran-2-yl]methyl [hydroxy(phosphonooxy)phosphoryl] phosphate
   47    49     1     0     0
SMALL
USER_CHARGES

@<TRIPOS>ATOM
      1 PG         -1.2629    0.1033   -5.6301 P.3       1 ATP         1.8237
      2 O1G        -1.9954   -1.2044   -5.6910 O.2       1 ATP        -0.8455
      3 O2G        -2.1085    1.3765   -6.1579 O.3       1 ATP        -0.7970
      4 O3G        -0.8114    0.5581   -4.1453 O.3       1 ATP        -0.7970
      5 PB          1.4609   -0.6906   -6.3918 P.3       1 ATP         1.9358
      6 O1B         1.2946   -2.1648   -6.6147 O.2       1 ATP        -0.8836
      7 O2B         2.4526    0.0511   -7.4309 O.3       1 ATP        -0.8065
      8 O3B         0.1038    0.1793   -6.4861 O.3       1 ATP        -0.8233
      9 PA          3.4817   -0.6663   -4.2376 P.3       1 ATP         1.5686
     10 O1A         4.6075   -0.0325   -5.0257 O.co2     1 ATP        -0.8169
     11 O2A         3.4839   -2.1507   -3.9434 O.co2     1 ATP        -0.8169
     12 O3A         2.0630   -0.2863   -4.9483 O.3       1 ATP        -0.7987
     13 O5'         3.2883    0.1336   -2.8242 O.3       1 ATP        -0.5693
     14 C5'         2.2816   -0.2918   -1.9206 C.3       1 ATP         0.1841
     15 C4'         2.7248    0.0226   -0.4980 C.3       1 ATP         0.0904
     16 O4'         2.4697    1.4219   -0.2462 O.3       1 ATP        -0.4083
     17 C3'         1.9404   -0.7419    0.5596 C.3       1 ATP         0.0826
     18 O3'         2.7418   -0.8086    1.7389 O.3       1 ATP        -0.6106
     19 C2'         0.7477    0.1630    0.7858 C.3       1 ATP         0.1294
     20 O2'         0.1373   -0.0577    2.0407 O.3       1 ATP        -0.5701
     21 C1'         1.3733    1.5427    0.6747 C.3       1 ATP         0.3967
     22 N9          0.4520    2.5240    0.1767 N.pl3     1 ATP        -0.5600
     23 C8         -0.5899    2.3466   -0.6224 C.ar      1 ATP         0.3009
     24 N7         -1.2514    3.4689   -0.8989 N.pl3     1 ATP        -0.5113
     25 C5         -0.5826    4.4323   -0.2272 C.ar      1 ATP        -0.2824
     26 C6         -0.7636    5.7789   -0.1086 C.ar      1 ATP         0.7670
     27 N6         -1.8382    6.3927   -0.7843 N.pl3     1 ATP        -0.9491
     28 N1          0.0741    6.5233    0.6461 N.ar      1 ATP        -0.7474
     29 C2          1.0845    5.8486    1.2626 C.ar      1 ATP         0.7118
     30 N3          1.3516    4.5236    1.2116 N.ar      1 ATP        -0.6661
     31 C4          0.4827    3.8546    0.4481 C.ar      1 ATP         0.6308
     32 HOG2       -2.9495    1.6068   -5.7087 H         1 ATP         0.4930
     33 HOG3       -0.2084   -0.0229   -3.6342 H         1 ATP         0.4930
     34 HOB2        3.3886   -0.2377   -7.4826 H         1 ATP         0.4808
     35 H5'1        1.3500    0.2325   -2.1560 H         1 ATP         0.0350
     36 H5'2        2.1266   -1.3683   -2.0443 H         1 ATP         0.0350
     37 H4'         3.8050   -0.1388   -0.4008 H         1 ATP         0.1244
     38 H3'         1.6784   -1.7629    0.2714 H         1 ATP         0.0924
     39 HO3'        2.2232   -1.2979    2.3953 H         1 ATP         0.4379
     40 H2'        -0.0011    0.0027    0.0003 H         1 ATP         0.0849
     41 HO2'       -0.6141    0.5574    2.1082 H         1 ATP         0.4417
     42 H1'         1.7826    1.9024    1.6451 H         1 ATP         0.1307
     43 H8         -0.8833    1.3888   -1.0158 H         1 ATP         0.2875
     44 HN61       -2.4225    5.8385   -1.3773 H         1 ATP         0.4559
     45 HN62       -1.9421    7.3862   -0.7348 H         1 ATP         0.4559
     46 H2          1.7546    6.4491    1.8670 H         1 ATP         0.0858
     47 H47        -2.0705    3.5612   -1.4834 H         1 ATP         0.5042
@<TRIPOS>BOND
     1    1    2 2
     2    1    3 1
     3    1    4 1
     4    1    8 1
     5    3   32 1
     6    4   33 1
     7    5    6 2
     8    5    7 1
     9    5    8 1
    10    5   12 1
    11    7   34 1
    12    9   10 2
    13    9   11 1
    14    9   12 1
    15    9   13 1
    16   13   14 1
    17   14   15 1
    18   14   35 1
    19   14   36 1
    20   15   16 1
    21   15   17 1
    22   15   37 1
    23   16   21 1
    24   17   18 1
    25   17   19 1
    26   17   38 1
    27   18   39 1
    28   19   20 1
    29   19   21 1
    30   19   40 1
    31   20   41 1
    32   21   22 1
    33   21   42 1
    34   22   23 ar
    35   22   31 ar
    36   23   24 ar
    37   23   43 1
    38   24   25 ar
    39   24   47 1
    40   25   26 ar
    41   25   31 ar
    42   26   27 1
    43   26   28 ar
    44   27   44 1
    45   27   45 1
    46   28   29 ar
    47   29   30 ar
    48   29   46 1
    49   30   31 ar
@<TRIPOS>SUBSTRUCTURE
     1 ATP         1 GROUP 0 A     ****
@<TRIPOS>MOLECULE
[5-(6-amino-7,8-dihydropurin-8-ylium-9-yl)-3,4-dihydroxy-tetrahydrofuran-2-yl]methyl [hydroxy(phosphonooxy)phosphoryl] phosphate
   47    49     1     0     0
SMALL
USER_CHARGES

@<TRIPOS>ATOM
      1 PG          2.5071    0.7674   -6.9513 P.3       1 ATP         1.8237
      2 O1G         1.2591    1.5200   -7.3070 O.2       1 ATP        -0.8455
      3 O2G         3.7699    1.0575   -7.9186 O.3       1 ATP        -0.7970
      4 O3G         3.0957    1.0893   -5.4798 O.3       1 ATP        -0.7970
      5 PB          1.4302   -1.8390   -6.1284 P.3       1 ATP         1.9358
      6 O1B        -0.0434   -1.6299   -6.3161 O.2       1 ATP        -0.8836
      7 O2B         1.9710   -3.3061   -6.5388 O.3       1 ATP        -0.8065
      8 O3B         2.3818   -0.8420   -6.9699 O.3       1 ATP        -0.8233
      9 PA          1.5535   -2.4535   -3.2419 P.3       1 ATP         1.5686
     10 O1A         2.0065   -3.8924   -3.3623 O.co2     1 ATP        -0.8169
     11 O2A         0.1171   -2.1210   -2.9012 O.co2     1 ATP        -0.8169
     12 O3A         1.9530   -1.6599   -4.6105 O.3       1 ATP        -0.7987
     13 O5'         2.5237   -1.6631   -2.1889 O.3       1 ATP        -0.5693
     14 C5'         2.2816   -0.2918   -1.9206 C.3       1 ATP         0.1841
     15 C4'         2.7248    0.0226   -0.4980 C.3       1 ATP         0.0904
     16 O4'         2.4697    1.4219   -0.2462 O.3       1 ATP        -0.4083
     17 C3'         1.9404   -0.7419    0.5596 C.3       1 ATP         0.0826
     18 O3'         2.7418   -0.8086    1.7389 O.3       1 ATP        -0.6106
     19 C2'         0.7477    0.1630    0.7858 C.3       1 ATP         0.1294
     20 O2'         0.1373   -0.0577    2.0407 O.3       1 ATP        -0.5701
     21 C1'         1.3733    1.5427    0.6747 C.3       1 ATP         0.3967
     22 N9          0.4520    2.5240    0.1767 N.pl3     1 ATP        -0.5600
     23 C8         -0.3477    3.3274    0.8626 C.ar      1 ATP         0.3009
     24 N7         -1.0836    4.1323    0.0983 N.pl3     1 ATP        -0.5113
     25 C5         -0.7273    3.8194   -1.1674 C.ar      1 ATP        -0.2824
     26 C6         -1.1208    4.2877   -2.3863 C.ar      1 ATP         0.7670
     27 N6         -2.0932    5.3066   -2.4528 N.pl3     1 ATP        -0.9491
     28 N1         -0.5892    3.7853   -3.5223 N.ar      1 ATP        -0.7474
     29 C2          0.3427    2.8040   -3.3648 C.ar      1 ATP         0.7118
     30 N3          0.8012    2.2709   -2.2093 N.ar      1 ATP        -0.6661
     31 C4          0.2307    2.8167   -1.1312 C.ar      1 ATP         0.6308
     32 HOG2        3.6908    0.8564   -8.8753 H         1 ATP         0.4930
     33 HOG3        2.5346    0.9111   -4.6951 H         1 ATP         0.4930
     34 HOB2        1.6095   -4.0920   -6.0764 H         1 ATP         0.4808
     35 H5'1        2.8429    0.3140   -2.6391 H         1 ATP         0.0350
     36 H5'2        1.2125   -0.0906   -2.0420 H         1 ATP         0.0350
     37 H4'         3.8050   -0.1388   -0.4008 H         1 ATP         0.1244
     38 H3'         1.6784   -1.7629    0.2714 H         1 ATP         0.0924
     39 HO3'        3.5554   -1.2733    1.4914 H         1 ATP         0.4379
     40 H2'        -0.0011    0.0027    0.0003 H         1 ATP         0.0849
     41 HO2'       -0.1563   -0.9855    2.0596 H         1 ATP         0.4417
     42 H1'         1.7826    1.9024    1.6451 H         1 ATP         0.1307
     43 H8         -0.4040    3.3373    1.9373 H         1 ATP         0.2875
     44 HN61       -2.5133    5.6366   -1.6073 H         1 ATP         0.4559
     45 HN62       -2.4153    5.6161   -3.3477 H         1 ATP         0.4559
     46 H2          0.7668    2.4032   -4.2782 H         1 ATP         0.0858
     47 H47        -1.7549    4.8194    0.4122 H         1 ATP         0.5042
@<TRIPOS>BOND
     1    1    2 2
     2    1    3 1
     3    1    4 1
     4    1    8 1
     5    3   32 1
     6    4   33 1
     7    5    6 2
     8    5    7 1
     9    5    8 1
    10    5   12 1
    11    7   34 1
    12    9   10 2
    13    9   11 1
    14    9   12 1
    15    9   13 1
    16   13   14 1
    17   14   15 1
    18   14   35 1
    19   14   36 1
    20   15   16 1
    21   15   17 1
    22   15   37 1
    23   16   21 1
    24   17   18 1
    25   17   19 1
    26   17   38 1
    27   18   39 1
    28   19   20 1
    29   19   21 1
    30   19   40 1
    31   20   41 1
    32   21   22 1
    33   21   42 1
    34   22   23 ar
    35   22   31 ar
    36   23   24 ar
    37   23   43 1
    38   24   25 ar
    39   24   47 1
    40   25   26 ar
    41   25   31 ar
    42   26   27 1
    43   26   28 ar
    44   27   44 1
    45   27   45 1
    46   28   29 ar
    47   29   30 ar
    48   29   46 1
    49   30   31 ar
@<TRIPOS>SUBSTRUCTURE
     1 ATP         1 GROUP 0 A     ****
@<TRIPOS>MOLECULE
[5-(6-amino-7,8-dihydropurin-8-ylium-9-yl)-3,4-dihydroxy-tetrahydrofuran-2-yl]methyl [hydroxy(phosphonooxy)phosphoryl] phosphate
   47    49     1     0     0
SMALL
USER_CHARGES

@<TRIPOS>ATOM
      1 PG          6.7778    0.9611   -4.0873 P.3       1 ATP         1.8237
      2 O1G         5.9008    1.3785   -2.9440 O.2       1 ATP        -0.8455
      3 O2G         6.5800    1.8239   -5.4405 O.3       1 ATP        -0.7970
      4 O3G         8.3650    1.0883   -3.8048 O.3       1 ATP        -0.7970
      5 PB          5.3095   -1.3418   -5.1693 P.3       1 ATP         1.9358
      6 O1B         4.7284   -0.7658   -6.4268 O.2       1 ATP        -0.8836
      7 O2B         5.8188   -2.8713   -5.2888 O.3       1 ATP        -0.8065
      8 O3B         6.5985   -0.5641   -4.5850 O.3       1 ATP        -0.8233
      9 PA          2.8591   -2.1295   -3.7203 P.3       1 ATP         1.5686
     10 O1A         3.0780   -3.6265   -3.7548 O.co2     1 ATP        -0.8169
     11 O2A         1.8561   -1.4730   -4.6439 O.co2     1 ATP        -0.8169
     12 O3A         4.2973   -1.3829   -3.9109 O.3       1 ATP        -0.7987
     13 O5'         2.5237   -1.6631   -2.1889 O.3       1 ATP        -0.5693
     14 C5'         2.2816   -0.2918   -1.9206 C.3       1 ATP         0.1841
     15 C4'         2.7248    0.0226   -0.4980 C.3       1 ATP         0.0904
     16 O4'         2.4697    1.4219   -0.2462 O.3       1 ATP        -0.4083
     17 C3'         1.9404   -0.7419    0.5596 C.3       1 ATP         0.0826
     18 O3'         2.7418   -0.8086    1.7389 O.3       1 ATP        -0.6106
     19 C2'         0.7477    0.1630    0.7858 C.3       1 ATP         0.1294
     20 O2'         0.1373   -0.0577    2.0407 O.3       1 ATP        -0.5701
     21 C1'         1.3733    1.5427    0.6747 C.3       1 ATP         0.3967
     22 N9          0.4520    2.5240    0.1767 N.pl3     1 ATP        -0.5600
     23 C8         -0.5899    2.3466   -0.6224 C.ar      1 ATP         0.3009
     24 N7         -1.2514    3.4689   -0.8989 N.pl3     1 ATP        -0.5113
     25 C5         -0.5826    4.4323   -0.2272 C.ar      1 ATP        -0.2824
     26 C6         -0.7636    5.7789   -0.1086 C.ar      1 ATP         0.7670
     27 N6         -1.8382    6.3927   -0.7843 N.pl3     1 ATP        -0.9491
     28 N1          0.0741    6.5233    0.6461 N.ar      1 ATP        -0.7474
     29 C2          1.0845    5.8486    1.2626 C.ar      1 ATP         0.7118
     30 N3          1.3516    4.5236    1.2116 N.ar      1 ATP        -0.6661
     31 C4          0.4827    3.8546    0.4481 C.ar      1 ATP         0.6308
     32 HOG2        6.7449    2.7905   -5.4153 H         1 ATP         0.4930
     33 HOG3        8.7577    0.5765   -3.0657 H         1 ATP         0.4930
     34 HOB2        5.1742   -3.5687   -5.5343 H         1 ATP         0.4808
     35 H5'1        2.8429    0.3140   -2.6391 H         1 ATP         0.0350
     36 H5'2        1.2125   -0.0906   -2.0420 H         1 ATP         0.0350
     37 H4'         3.8050   -0.1388   -0.4008 H         1 ATP         0.1244
     38 H3'         1.6784   -1.7629    0.2714 H         1 ATP         0.0924
     39 HO3'        2.2232   -1.2979    2.3953 H         1 ATP         0.4379
     40 H2'        -0.0011    0.0027    0.0003 H         1 ATP         0.0849
     41 HO2'       -0.6141    0.5574    2.1082 H         1 ATP         0.4417
     42 H1'         1.7826    1.9024    1.6451 H         1 ATP         0.1307
     43 H8         -0.8833    1.3888   -1.0158 H         1 ATP         0.2875
     44 HN61       -1.9982    7.3720   -0.6591 H         1 ATP         0.4559
     45 HN62       -2.4782    5.8240   -1.3014 H         1 ATP         0.4559
     46 H2          1.7546    6.4491    1.8670 H         1 ATP         0.0858
     47 H47        -2.0705    3.5612   -1.4834 H         1 ATP         0.5042
@<TRIPOS>BOND
     1    1    2 2
     2    1    3 1
     3    1    4 1
     4    1    8 1
     5    3   32 1
     6    4   33 1
     7    5    6 2
     8    5    7 1
     9    5    8 1
    10    5   12 1
    11    7   34 1
    12    9   10 2
    13    9   11 1
    14    9   12 1
    15    9   13 1
    16   13   14 1
    17   14   15 1
    18   14   35 1
    19   14   36 1
    20   15   16 1
    21   15   17 1
    22   15   37 1
    23   16   21 1
    24   17   18 1
    25   17   19 1
    26   17   38 1
    27   18   39 1
    28   19   20 1
    29   19   21 1
    30   19   40 1
    31   20   41 1
    32   21   22 1
    33   21   42 1
    34   22   23 ar
    35   22   31 ar
    36   23   24 ar
    37   23   43 1
    38   24   25 ar
    39   24   47 1
    40   25   26 ar
    41   25   31 ar
    42   26   27 1
    43   26   28 ar
    44   27   44 1
    45   27   45 1
    46   28   29 ar
    47   29   30 ar
    48   29   46 1
    49   30   31 ar
@<TRIPOS>SUBSTRUCTURE
     1 ATP         1 GROUP 0 A     ****
@<TRIPOS>MOLECULE
[5-(6-amino-7,8-dihydropurin-8-ylium-9-yl)-3,4-dihydroxy-tetrahydrofuran-2-yl]methyl [hydroxy(phosphonooxy)phosphoryl] phosphate
   47    49     1     0     0
SMALL
USER_CHARGES

@<TRIPOS>ATOM
      1 PG         -2.1199   -1.1796   -6.3859 P.3       1 ATP         1.8237
      2 O1G        -2.2078    0.0681   -7.2142 O.2       1 ATP        -0.8455
      3 O2G        -3.3290   -1.3764   -5.3305 O.3       1 ATP        -0.7970
      4 O3G        -2.1489   -2.5575   -7.2320 O.3       1 ATP        -0.7970
      5 PB          0.7667   -1.3652   -5.8728 P.3       1 ATP         1.9358
      6 O1B         1.1631   -2.4914   -6.7810 O.2       1 ATP        -0.8836
      7 O2B         1.0455    0.1160   -6.4572 O.3       1 ATP        -0.8065
      8 O3B        -0.7968   -1.3195   -5.4715 O.3       1 ATP        -0.8233
      9 PA          1.5535   -2.4535   -3.2419 P.3       1 ATP         1.5686
     10 O1A         2.2581   -3.6962   -3.7414 O.co2     1 ATP        -0.8169
     11 O2A         0.1699   -2.5402   -2.6352 O.co2     1 ATP        -0.8169
     12 O3A         1.5187   -1.3497   -4.4431 O.3       1 ATP        -0.7987
     13 O5'         2.5237   -1.6631   -2.1889 O.3       1 ATP        -0.5693
     14 C5'         2.2816   -0.2918   -1.9206 C.3       1 ATP         0.1841
     15 C4'         2.7248    0.0226   -0.4980 C.3       1 ATP         0.0904
     16 O4'         2.4697    1.4219   -0.2462 O.3       1 ATP        -0.4083
     17 C3'         1.9404   -0.7419    0.5596 C.3       1 ATP         0.0826
     18 O3'         2.7418   -0.8086    1.7389 O.3       1 ATP        -0.6106
     19 C2'         0.7477    0.1630    0.7858 C.3       1 ATP         0.1294
     20 O2'         0.1373   -0.0577    2.0407 O.3       1 ATP        -0.5701
     21 C1'         1.3733    1.5427    0.6747 C.3       1 ATP         0.3967
     22 N9          0.4520    2.5240    0.1767 N.pl3     1 ATP        -0.5600
     23 C8         -0.3477    3.3274    0.8626 C.ar      1 ATP         0.3009
     24 N7         -1.0836    4.1323    0.0983 N.pl3     1 ATP        -0.5113
     25 C5         -0.7273    3.8194   -1.1674 C.ar      1 ATP        -0.2824
     26 C6         -1.1208    4.2877   -2.3863 C.ar      1 ATP         0.7670
     27 N6         -2.0932    5.3066   -2.4528 N.pl3     1 ATP        -0.9491
     28 N1         -0.5892    3.7853   -3.5223 N.ar      1 ATP        -0.7474
     29 C2          0.3427    2.8040   -3.3648 C.ar      1 ATP         0.7118
     30 N3          0.8012    2.2709   -2.2093 N.ar      1 ATP        -0.6661
     31 C4          0.2307    2.8167   -1.1312 C.ar      1 ATP         0.6308
     32 HOG2       -3.4699   -0.6962   -4.6381 H         1 ATP         0.4930
     33 HOG3       -1.4471   -2.7200   -7.8979 H         1 ATP         0.4930
     34 HOB2        0.6094    0.3866   -7.2931 H         1 ATP         0.4808
     35 H5'1        2.8429    0.3140   -2.6391 H         1 ATP         0.0350
     36 H5'2        1.2125   -0.0906   -2.0420 H         1 ATP         0.0350
     37 H4'         3.8050   -0.1388   -0.4008 H         1 ATP         0.1244
     38 H3'         1.6784   -1.7629    0.2714 H         1 ATP         0.0924
     39 HO3'        2.2232   -1.2979    2.3953 H         1 ATP         0.4379
     40 H2'        -0.0011    0.0027    0.0003 H         1 ATP         0.0849
     41 HO2'       -0.6141    0.5574    2.1082 H         1 ATP         0.4417
     42 H1'         1.7826    1.9024    1.6451 H         1 ATP         0.1307
     43 H8         -0.4040    3.3373    1.9373 H         1 ATP         0.2875
     44 HN61       -2.3467    5.6821   -3.3445 H         1 ATP         0.4559
     45 HN62       -2.4443    5.7023   -1.6040 H         1 ATP         0.4559
     46 H2          0.7668    2.4032   -4.2782 H         1 ATP         0.0858
     47 H47        -1.7549    4.8194    0.4122 H         1 ATP         0.5042
@<TRIPOS>BOND
     1    1    2 2
     2    1    3 1
     3    1    4 1
     4    1    8 1
     5    3   32 1
     6    4   33 1
     7    5    6 2
     8    5    7 1
     9    5    8 1
    10    5   12 1
    11    7   34 1
    12    9   10 2
    13    9   11 1
    14    9   12 1
    15    9   13 1
    16   13   14 1
    17   14   15 1
    18   14   35 1
    19   14   36 1
    20   15   16 1
    21   15   17 1
    22   15   37 1
    23   16   21 1
    24   17   18 1
    25   17   19 1
    26   17   38 1
    27   18   39 1
    28   19   20 1
    29   19   21 1
    30   19   40 1
    31   20   41 1
    32   21   22 1
    33   21   42 1
    34   22   23 ar
    35   22   31 ar
    36   23   24 ar
    37   23   43 1
    38   24   25 ar
    39   24   47 1
    40   25   26 ar
    41   25   31 ar
    42   26   27 1
    43   26   28 ar
    44   27   44 1
    45   27   45 1
    46   28   29 ar
    47   29   30 ar
    48   29   46 1
    49   30   31 ar
@<TRIPOS>SUBSTRUCTURE
     1 ATP         1 GROUP 0 A     ****
@<TRIPOS>MOLECULE
[5-(6-amino-7,8-dihydropurin-8-ylium-9-yl)-3,4-dihydroxy-tetrahydrofuran-2-yl]methyl [hydroxy(phosphonooxy)phosphoryl] phosphate
   47    49     1     0     0
SMALL
USER_CHARGES

@<TRIPOS>ATOM
      1 PG          7.0074   -3.5804   -6.2574 P.3       1 ATP         1.8237
      2 O1G         7.8589   -4.5916   -5.5483 O.2       1 ATP        -0.8455
      3 O2G         7.8306   -2.3872   -6.9738 O.3       1 ATP        -0.7970
      4 O3G         6.1102   -4.1770   -7.4634 O.3       1 ATP        -0.7970
      5 PB          4.7074   -3.3458   -4.4449 P.3       1 ATP         1.9358
      6 O1B         3.6481   -4.0896   -5.2033 O.2       1 ATP        -0.8836
      7 O2B         5.4388   -4.1950   -3.2800 O.3       1 ATP        -0.8065
      8 O3B         5.9379   -2.7978   -5.3354 O.3       1 ATP        -0.8233
      9 PA          3.4817   -0.6663   -4.2376 P.3       1 ATP         1.5686
     10 O1A         2.1248   -1.0219   -4.8054 O.co2     1 ATP        -0.8169
     11 O2A         4.4957    0.0866   -5.0712 O.co2     1 ATP        -0.8169
     12 O3A         4.1884   -2.0246   -3.6737 O.3       1 ATP        -0.7987
     13 O5'         3.2883    0.1336   -2.8242 O.3       1 ATP        -0.5693
     14 C5'         2.2816   -0.2918   -1.9206 C.3       1 ATP         0.1841
     15 C4'         2.7248    0.0226   -0.4980 C.3       1 ATP         0.0904
     16 O4'         2.4697    1.4219   -0.2462 O.3       1 ATP        -0.4083
     17 C3'         1.9404   -0.7419    0.5596 C.3       1 ATP         0.0826
     18 O3'         2.7418   -0.8086    1.7389 O.3       1 ATP        -0.6106
     19 C2'         0.7477    0.1630    0.7858 C.3       1 ATP         0.1294
     20 O2'         0.1373   -0.0577    2.0407 O.3       1 ATP        -0.5701
     21 C1'         1.3733    1.5427    0.6747 C.3       1 ATP         0.3967
     22 N9          0.4520    2.5240    0.1767 N.pl3     1 ATP        -0.5600
     23 C8         -0.5899    2.3466   -0.6224 C.ar      1 ATP         0.3009
     24 N7         -1.2514    3.4689   -0.8989 N.pl3     1 ATP        -0.5113
     25 C5         -0.5826    4.4323   -0.2272 C.ar      1 ATP        -0.2824
     26 C6         -0.7636    5.7789   -0.1086 C.ar      1 ATP         0.7670
     27 N6         -1.8382    6.3927   -0.7843 N.pl3     1 ATP        -0.9491
     28 N1          0.0741    6.5233    0.6461 N.ar      1 ATP        -0.7474
     29 C2          1.0845    5.8486    1.2626 C.ar      1 ATP         0.7118
     30 N3          1.3516    4.5236    1.2116 N.ar      1 ATP        -0.6661
     31 C4          0.4827    3.8546    0.4481 C.ar      1 ATP         0.6308
     32 HOG2        8.4819   -2.6126   -7.6718 H         1 ATP         0.4930
     33 HOG3        5.4511   -4.8757   -7.2634 H         1 ATP         0.4930
     34 HOB2        5.9210   -5.0144   -3.5210 H         1 ATP         0.4808
     35 H5'1        1.3500    0.2325   -2.1560 H         1 ATP         0.0350
     36 H5'2        2.1266   -1.3683   -2.0443 H         1 ATP         0.0350
     37 H4'         3.8050   -0.1388   -0.4008 H         1 ATP         0.1244
     38 H3'         1.6784   -1.7629    0.2714 H         1 ATP         0.0924
     39 HO3'        2.2232   -1.2979    2.3953 H         1 ATP         0.4379
     40 H2'        -0.0011    0.0027    0.0003 H         1 ATP         0.0849
     41 HO2'       -0.1563   -0.9855    2.0596 H         1 ATP         0.4417
     42 H1'         1.7826    1.9024    1.6451 H         1 ATP         0.1307
     43 H8         -0.8833    1.3888   -1.0158 H         1 ATP         0.2875
     44 HN61       -2.4225    5.8385   -1.3773 H         1 ATP         0.4559
     45 HN62       -1.9421    7.3862   -0.7348 H         1 ATP         0.4559
     46 H2          1.7546    6.4491    1.8670 H         1 ATP         0.0858
     47 H47        -2.0705    3.5612   -1.4834 H         1 ATP         0.5042
@<TRIPOS>BOND
     1    1    2 2
     2    1    3 1
     3    1    4 1
     4    1    8 1
     5    3   32 1
     6    4   33 1
     7    5    6 2
     8    5    7 1
     9    5    8 1
    10    5   12 1
    11    7   34 1
    12    9   10 2
    13    9   11 1
    14    9   12 1
    15    9   13 1
    16   13   14 1
    17   14   15 1
    18   14   35 1
    19   14   36 1
    20   15   16 1
    21   15   17 1
    22   15   37 1
    23   16   21 1
    24   17   18 1
    25   17   19 1
    26   17   38 1
    27   18   39 1
    28   19   20 1
    29   19   21 1
    30   19   40 1
    31   20   41 1
    32   21   22 1
    33   21   42 1
    34   22   23 ar
    35   22   31 ar
    36   23   24 ar
    37   23   43 1
    38   24   25 ar
    39   24   47 1
    40   25   26 ar
    41   25   31 ar
    42   26   27 1
    43   26   28 ar
    44   27   44 1
    45   27   45 1
    46   28   29 ar
    47   29   30 ar
    48   29   46 1
    49   30   31 ar
@<TRIPOS>SUBSTRUCTURE
     1 ATP         1 GROUP 0 A     ****
@<TRIPOS>MOLECULE
[5-(6-amino-7,8-dihydropurin-8-ylium-9-yl)-3,4-dihydroxy-tetrahydrofuran-2-yl]methyl [hydroxy(phosphonooxy)phosphoryl] phosphate
   47    49     1     0     0
SMALL
USER_CHARGES

@<TRIPOS>ATOM
      1 PG          1.1115   -3.8808   -5.6575 P.3       1 ATP         1.8237
      2 O1G        -0.0263   -2.9800   -5.2778 O.2       1 ATP        -0.8455
      3 O2G         1.5586   -4.9260   -4.5076 O.3       1 ATP        -0.7970
      4 O3G         0.8212   -4.8401   -6.9267 O.3       1 ATP        -0.7970
      5 PB          3.4383   -2.1493   -5.1905 P.3       1 ATP         1.9358
      6 O1B         4.0012   -2.7336   -3.9287 O.2       1 ATP        -0.8836
      7 O2B         4.5389   -1.6605   -6.2689 O.3       1 ATP        -0.8065
      8 O3B         2.4910   -3.1379   -6.0466 O.3       1 ATP        -0.8233
      9 PA          2.8596    0.6156   -4.3272 P.3       1 ATP         1.5686
     10 O1A         1.5860    1.4295   -4.2515 O.co2     1 ATP        -0.8169
     11 O2A         4.0898    1.1666   -5.0150 O.co2     1 ATP        -0.8169
     12 O3A         2.5158   -0.8400   -4.9794 O.3       1 ATP        -0.7987
     13 O5'         3.2883    0.1336   -2.8242 O.3       1 ATP        -0.5693
     14 C5'         2.2816   -0.2918   -1.9206 C.3       1 ATP         0.1841
     15 C4'         2.7248    0.0226   -0.4980 C.3       1 ATP         0.0904
     16 O4'         2.4697    1.4219   -0.2462 O.3       1 ATP        -0.4083
     17 C3'         1.9404   -0.7419    0.5596 C.3       1 ATP         0.0826
     18 O3'         2.7418   -0.8086    1.7389 O.3       1 ATP        -0.6106
     19 C2'         0.7477    0.1630    0.7858 C.3       1 ATP         0.1294
     20 O2'         0.1373   -0.0577    2.0407 O.3       1 ATP        -0.5701
     21 C1'         1.3733    1.5427    0.6747 C.3       1 ATP         0.3967
     22 N9          0.4520    2.5240    0.1767 N.pl3     1 ATP        -0.5600
     23 C8         -0.5899    2.3466   -0.6224 C.ar      1 ATP         0.3009
     24 N7         -1.2514    3.4689   -0.8989 N.pl3     1 ATP        -0.5113
     25 C5         -0.5826    4.4323   -0.2272 C.ar      1 ATP        -0.2824
     26 C6         -0.7636    5.7789   -0.1086 C.ar      1 ATP         0.7670
     27 N6         -1.8382    6.3927   -0.7843 N.pl3     1 ATP        -0.9491
     28 N1          0.0741    6.5233    0.6461 N.ar      1 ATP        -0.7474
     29 C2          1.0845    5.8486    1.2626 C.ar      1 ATP         0.7118
     30 N3          1.3516    4.5236    1.2116 N.ar      1 ATP        -0.6661
     31 C4          0.4827    3.8546    0.4481 C.ar      1 ATP         0.6308
     32 HOG2        1.8694   -4.5779   -3.6448 H         1 ATP         0.4930
     33 HOG3        0.6048   -4.4303   -7.7913 H         1 ATP         0.4930
     34 HOB2        5.1811   -0.9655   -6.0104 H         1 ATP         0.4808
     35 H5'1        1.3500    0.2325   -2.1560 H         1 ATP         0.0350
     36 H5'2        2.1266   -1.3683   -2.0443 H         1 ATP         0.0350
     37 H4'         3.8050   -0.1388   -0.4008 H         1 ATP         0.1244
     38 H3'         1.6784   -1.7629    0.2714 H         1 ATP         0.0924
     39 HO3'        2.2232   -1.2979    2.3953 H         1 ATP         0.4379
     40 H2'        -0.0011    0.0027    0.0003 H         1 ATP         0.0849
     41 HO2'       -0.6141    0.5574    2.1082 H         1 ATP         0.4417
     42 H1'         1.7826    1.9024    1.6451 H         1 ATP         0.1307
     43 H8         -0.8833    1.3888   -1.0158 H         1 ATP         0.2875
     44 HN61       -2.4225    5.8385   -1.3773 H         1 ATP         0.4559
     45 HN62       -1.9421    7.3862   -0.7348 H         1 ATP         0.4559
     46 H2          1.7546    6.4491    1.8670 H         1 ATP         0.0858
     47 H47        -2.0705    3.5612   -1.4834 H         1 ATP         0.5042
@<TRIPOS>BOND
     1    1    2 2
     2    1    3 1
     3    1    4 1
     4    1    8 1
     5    3   32 1
     6    4   33 1
     7    5    6 2
     8    5    7 1
     9    5    8 1
    10    5   12 1
    11    7   34 1
    12    9   10 2
    13    9   11 1
    14    9   12 1
    15    9   13 1
    16   13   14 1
    17   14   15 1
    18   14   35 1
    19   14   36 1
    20   15   16 1
    21   15   17 1
    22   15   37 1
    23   16   21 1
    24   17   18 1
    25   17   19 1
    26   17   38 1
    27   18   39 1
    28   19   20 1
    29   19   21 1
    30   19   40 1
    31   20   41 1
    32   21   22 1
    33   21   42 1
    34   22   23 ar
    35   22   31 ar
    36   23   24 ar
    37   23   43 1
    38   24   25 ar
    39   24   47 1
    40   25   26 ar
    41   25   31 ar
    42   26   27 1
    43   26   28 ar
    44   27   44 1
    45   27   45 1
    46   28   29 ar
    47   29   30 ar
    48   29   46 1
    49   30   31 ar
@<TRIPOS>SUBSTRUCTURE
     1 ATP         1 GROUP 0 A     ****
@<TRIPOS>MOLECULE
[5-(6-amino-7,8-dihydropurin-8-ylium-9-yl)-3,4-dihydroxy-tetrahydrofuran-2-yl]methyl [hydroxy(phosphonooxy)phosphoryl] phosphate
   47    49     1     0     0
SMALL
USER_CHARGES

@<TRIPOS>ATOM
      1 PG          7.1839   -1.6412   -5.8522 P.3       1 ATP         1.8237
      2 O1G         7.6176   -0.6903   -6.9283 O.2       1 ATP        -0.8455
      3 O2G         7.3519   -3.2056   -6.2250 O.3       1 ATP        -0.7970
      4 O3G         8.0009   -1.5096   -4.4628 O.3       1 ATP        -0.7970
      5 PB          4.8083   -0.2924   -4.7717 P.3       1 ATP         1.9358
      6 O1B         5.3257    0.2289   -3.4636 O.2       1 ATP        -0.8836
      7 O2B         4.7774    0.7872   -5.9745 O.3       1 ATP        -0.8065
      8 O3B         5.6384   -1.5269   -5.3999 O.3       1 ATP        -0.8233
      9 PA          2.6176   -2.0495   -3.8562 P.3       1 ATP         1.5686
     10 O1A         3.4079   -3.3198   -4.0842 O.co2     1 ATP        -0.8169
     11 O2A         1.1213   -2.0189   -4.0801 O.co2     1 ATP        -0.8169
     12 O3A         3.2916   -0.8468   -4.7290 O.3       1 ATP        -0.7987
     13 O5'         2.9201   -1.4821   -2.3524 O.3       1 ATP        -0.5693
     14 C5'         2.2816   -0.2918   -1.9206 C.3       1 ATP         0.1841
     15 C4'         2.7248    0.0226   -0.4980 C.3       1 ATP         0.0904
     16 O4'         2.4697    1.4219   -0.2462 O.3       1 ATP        -0.4083
     17 C3'         1.9404   -0.7419    0.5596 C.3       1 ATP         0.0826
     18 O3'         2.7418   -0.8086    1.7389 O.3       1 ATP        -0.6106
     19 C2'         0.7477    0.1630    0.7858 C.3       1 ATP         0.1294
     20 O2'         0.1373   -0.0577    2.0407 O.3       1 ATP        -0.5701
     21 C1'         1.3733    1.5427    0.6747 C.3       1 ATP         0.3967
     22 N9          0.4520    2.5240    0.1767 N.pl3     1 ATP        -0.5600
     23 C8         -0.3477    3.3274    0.8626 C.ar      1 ATP         0.3009
     24 N7         -1.0836    4.1323    0.0983 N.pl3     1 ATP        -0.5113
     25 C5         -0.7273    3.8194   -1.1674 C.ar      1 ATP        -0.2824
     26 C6         -1.1208    4.2877   -2.3863 C.ar      1 ATP         0.7670
     27 N6         -2.0932    5.3066   -2.4528 N.pl3     1 ATP        -0.9491
     28 N1         -0.5892    3.7853   -3.5223 N.ar      1 ATP        -0.7474
     29 C2          0.3427    2.8040   -3.3648 C.ar      1 ATP         0.7118
     30 N3          0.8012    2.2709   -2.2093 N.ar      1 ATP        -0.6661
     31 C4          0.2307    2.8167   -1.1312 C.ar      1 ATP         0.6308
     32 HOG2        8.2458   -3.5497   -6.4361 H         1 ATP         0.4930
     33 HOG3        7.9835   -0.6550   -3.9814 H         1 ATP         0.4930
     34 HOB2        5.6177    1.2060   -6.2585 H         1 ATP         0.4808
     35 H5'1        2.5581    0.5235   -2.5966 H         1 ATP         0.0350
     36 H5'2        1.1974   -0.4370   -1.9607 H         1 ATP         0.0350
     37 H4'         3.8050   -0.1388   -0.4008 H         1 ATP         0.1244
     38 H3'         1.6784   -1.7629    0.2714 H         1 ATP         0.0924
     39 HO3'        2.2232   -1.2979    2.3953 H         1 ATP         0.4379
     40 H2'        -0.0011    0.0027    0.0003 H         1 ATP         0.0849
     41 HO2'       -0.6141    0.5574    2.1082 H         1 ATP         0.4417
     42 H1'         1.7826    1.9024    1.6451 H         1 ATP         0.1307
     43 H8         -0.4040    3.3373    1.9373 H         1 ATP         0.2875
     44 HN61       -2.5133    5.6366   -1.6073 H         1 ATP         0.4559
     45 HN62       -2.4153    5.6161   -3.3477 H         1 ATP         0.4559
     46 H2          0.7668    2.4032   -4.2782 H         1 ATP         0.0858
     47 H47        -1.7549    4.8194    0.4122 H         1 ATP         0.5042
@<TRIPOS>BOND
     1    1    2 2
     2    1    3 1
     3    1    4 1
     4    1    8 1
     5    3   32 1
     6    4   33 1
     7    5    6 2
     8    5    7 1
     9    5    8 1
    10    5   12 1
    11    7   34 1
    12    9   10 2
    13    9   11 1
    14    9   12 1
    15    9   13 1
    16   13   14 1
    17   14   15 1
    18   14   35 1
    19   14   36 1
    20   15   16 1
    21   15   17 1
    22   15   37 1
    23   16   21 1
    24   17   18 1
    25   17   19 1
    26   17   38 1
    27   18   39 1
    28   19   20 1
    29   19   21 1
    30   19   40 1
    31   20   41 1
    32   21   22 1
    33   21   42 1
    34   22   23 ar
    35   22   31 ar
    36   23   24 ar
    37   23   43 1
    38   24   25 ar
    39   24   47 1
    40   25   26 ar
    41   25   31 ar
    42   26   27 1
    43   26   28 ar
    44   27   44 1
    45   27   45 1
    46   28   29 ar
    47   29   30 ar
    48   29   46 1
    49   30   31 ar
@<TRIPOS>SUBSTRUCTURE
     1 ATP         1 GROUP 0 A     ****
@<TRIPOS>MOLECULE
[5-(6-amino-7,8-dihydropurin-8-ylium-9-yl)-3,4-dihydroxy-tetrahydrofuran-2-yl]methyl [hydroxy(phosphonooxy)phosphoryl] phosphate
   47    49     1     0     0
SMALL
USER_CHARGES

@<TRIPOS>ATOM
      1 PG          4.4916   -3.9558   -3.1273 P.3       1 ATP         1.8237
      2 O1G         3.8761   -5.2665   -3.5194 O.2       1 ATP        -0.8455
      3 O2G         4.5748   -3.6986   -1.5331 O.3       1 ATP        -0.7970
      4 O3G         6.0230   -3.7564   -3.6073 O.3       1 ATP        -0.7970
      5 PB          3.4383   -2.1493   -5.1905 P.3       1 ATP         1.9358
      6 O1B         4.6483   -1.9355   -6.0511 O.2       1 ATP        -0.8836
      7 O2B         2.3955   -3.2562   -5.7388 O.3       1 ATP        -0.8065
      8 O3B         3.7418   -2.6380   -3.6817 O.3       1 ATP        -0.8233
      9 PA          2.8596    0.6156   -4.3272 P.3       1 ATP         1.5686
     10 O1A         1.5860    1.4295   -4.2515 O.co2     1 ATP        -0.8169
     11 O2A         4.0898    1.1666   -5.0150 O.co2     1 ATP        -0.8169
     12 O3A         2.5158   -0.8400   -4.9794 O.3       1 ATP        -0.7987
     13 O5'         3.2883    0.1336   -2.8242 O.3       1 ATP        -0.5693
     14 C5'         2.2816   -0.2918   -1.9206 C.3       1 ATP         0.1841
     15 C4'         2.7248    0.0226   -0.4980 C.3       1 ATP         0.0904
     16 O4'         2.4697    1.4219   -0.2462 O.3       1 ATP        -0.4083
     17 C3'         1.9404   -0.7419    0.5596 C.3       1 ATP         0.0826
     18 O3'         2.7418   -0.8086    1.7389 O.3       1 ATP        -0.6106
     19 C2'         0.7477    0.1630    0.7858 C.3       1 ATP         0.1294
     20 O2'         0.1373   -0.0577    2.0407 O.3       1 ATP        -0.5701
     21 C1'         1.3733    1.5427    0.6747 C.3       1 ATP         0.3967
     22 N9          0.4520    2.5240    0.1767 N.pl3     1 ATP        -0.5600
     23 C8         -0.5899    2.3466   -0.6224 C.ar      1 ATP         0.3009
     24 N7         -1.2514    3.4689   -0.8989 N.pl3     1 ATP        -0.5113
     25 C5         -0.5826    4.4323   -0.2272 C.ar      1 ATP        -0.2824
     26 C6         -0.7636    5.7789   -0.1086 C.ar      1 ATP         0.7670
     27 N6         -1.8382    6.3927   -0.7843 N.pl3     1 ATP        -0.9491
     28 N1          0.0741    6.5233    0.6461 N.ar      1 ATP        -0.7474
     29 C2          1.0845    5.8486    1.2626 C.ar      1 ATP         0.7118
     30 N3          1.3516    4.5236    1.2116 N.ar      1 ATP        -0.6661
     31 C4          0.4827    3.8546    0.4481 C.ar      1 ATP         0.6308
     32 HOG2        3.7447   -3.6844   -1.0107 H         1 ATP         0.4930
     33 HOG3        6.2267   -3.7841   -4.5665 H         1 ATP         0.4930
     34 HOB2        2.7037   -4.1792   -5.8619 H         1 ATP         0.4808
     35 H5'1        1.3500    0.2325   -2.1560 H         1 ATP         0.0350
     36 H5'2        2.1266   -1.3683   -2.0443 H         1 ATP         0.0350
     37 H4'         3.8050   -0.1388   -0.4008 H         1 ATP         0.1244
     38 H3'         1.6784   -1.7629    0.2714 H         1 ATP         0.0924
     39 HO3'        3.5554   -1.2733    1.4914 H         1 ATP         0.4379
     40 H2'        -0.0011    0.0027    0.0003 H         1 ATP         0.0849
     41 HO2'       -0.6141    0.5574    2.1082 H         1 ATP         0.4417
     42 H1'         1.7826    1.9024    1.6451 H         1 ATP         0.1307
     43 H8         -0.8833    1.3888   -1.0158 H         1 ATP         0.2875
     44 HN61       -2.4225    5.8385   -1.3773 H         1 ATP         0.4559
     45 HN62       -1.9421    7.3862   -0.7348 H         1 ATP         0.4559
     46 H2          1.7546    6.4491    1.8670 H         1 ATP         0.0858
     47 H47        -2.0705    3.5612   -1.4834 H         1 ATP         0.5042
@<TRIPOS>BOND
     1    1    2 2
     2    1    3 1
     3    1    4 1
     4    1    8 1
     5    3   32 1
     6    4   33 1
     7    5    6 2
     8    5    7 1
     9    5    8 1
    10    5   12 1
    11    7   34 1
    12    9   10 2
    13    9   11 1
    14    9   12 1
    15    9   13 1
    16   13   14 1
    17   14   15 1
    18   14   35 1
    19   14   36 1
    20   15   16 1
    21   15   17 1
    22   15   37 1
    23   16   21 1
    24   17   18 1
    25   17   19 1
    26   17   38 1
    27   18   39 1
    28   19   20 1
    29   19   21 1
    30   19   40 1
    31   20   41 1
    32   21   22 1
    33   21   42 1
    34   22   23 ar
    35   22   31 ar
    36   23   24 ar
    37   23   43 1
    38   24   25 ar
    39   24   47 1
    40   25   26 ar
    41   25   31 ar
    42   26   27 1
    43   26   28 ar
    44   27   44 1
    45   27   45 1
    46   28   29 ar
    47   29   30 ar
    48   29   46 1
    49   30   31 ar
@<TRIPOS>SUBSTRUCTURE
     1 ATP         1 GROUP 0 A     ****
@<TRIPOS>MOLECULE
[5-(6-amino-7,8-dihydropurin-8-ylium-9-yl)-3,4-dihydroxy-tetrahydrofuran-2-yl]methyl [hydroxy(phosphonooxy)phosphoryl] phosphate
   47    49     1     0     0
SMALL
USER_CHARGES

@<TRIPOS>ATOM
      1 PG          7.0074   -3.5804   -6.2574 P.3       1 ATP         1.8237
      2 O1G         6.4290   -4.3750   -7.3908 O.2       1 ATP        -0.8455
      3 O2G         7.8603   -4.4466   -5.1912 O.3       1 ATP        -0.7970
      4 O3G         8.0484   -2.4255   -6.7020 O.3       1 ATP        -0.7970
      5 PB          4.7074   -3.3458   -4.4449 P.3       1 ATP         1.9358
      6 O1B         3.6481   -4.0896   -5.2033 O.2       1 ATP        -0.8836
      7 O2B         5.4388   -4.1950   -3.2800 O.3       1 ATP        -0.8065
      8 O3B         5.9379   -2.7978   -5.3354 O.3       1 ATP        -0.8233
      9 PA          3.4817   -0.6663   -4.2376 P.3       1 ATP         1.5686
     10 O1A         2.1248   -1.0219   -4.8054 O.co2     1 ATP        -0.8169
     11 O2A         4.4957    0.0866   -5.0712 O.co2     1 ATP        -0.8169
     12 O3A         4.1884   -2.0246   -3.6737 O.3       1 ATP        -0.7987
     13 O5'         3.2883    0.1336   -2.8242 O.3       1 ATP        -0.5693
     14 C5'         2.2816   -0.2918   -1.9206 C.3       1 ATP         0.1841
     15 C4'         2.7248    0.0226   -0.4980 C.3       1 ATP         0.0904
     16 O4'         2.4697    1.4219   -0.2462 O.3       1 ATP        -0.4083
     17 C3'         1.9404   -0.7419    0.5596 C.3       1 ATP         0.0826
     18 O3'         2.7418   -0.8086    1.7389 O.3       1 ATP        -0.6106
     19 C2'         0.7477    0.1630    0.7858 C.3       1 ATP         0.1294
     20 O2'         0.1373   -0.0577    2.0407 O.3       1 ATP        -0.5701
     21 C1'         1.3733    1.5427    0.6747 C.3       1 ATP         0.3967
     22 N9          0.4520    2.5240    0.1767 N.pl3     1 ATP        -0.5600
     23 C8         -0.8602    2.5861    0.3496 C.ar      1 ATP         0.3009
     24 N7         -1.4308    3.6326   -0.2443 N.pl3     1 ATP        -0.5113
     25 C5         -0.4080    4.2856   -0.8394 C.ar      1 ATP        -0.2824
     26 C6         -0.3432    5.4196   -1.5943 C.ar      1 ATP         0.7670
     27 N6         -1.5276    6.1333   -1.8702 N.pl3     1 ATP        -0.9491
     28 N1          0.8395    5.8603   -2.0764 N.ar      1 ATP        -0.7474
     29 C2          1.9319    5.1095   -1.7617 C.ar      1 ATP         0.7118
     30 N3          1.9773    3.9761   -1.0249 N.ar      1 ATP        -0.6661
     31 C4          0.7724    3.6031   -0.5836 C.ar      1 ATP         0.6308
     32 HOG2        8.2666   -3.9888   -4.4247 H         1 ATP         0.4930
     33 HOG3        7.7377   -1.7107   -7.2978 H         1 ATP         0.4930
     34 HOB2        5.9210   -5.0144   -3.5210 H         1 ATP         0.4808
     35 H5'1        1.3500    0.2325   -2.1560 H         1 ATP         0.0350
     36 H5'2        2.1266   -1.3683   -2.0443 H         1 ATP         0.0350
     37 H4'         3.8050   -0.1388   -0.4008 H         1 ATP         0.1244
     38 H3'         1.6784   -1.7629    0.2714 H         1 ATP         0.0924
     39 HO3'        2.2232   -1.2979    2.3953 H         1 ATP         0.4379
     40 H2'        -0.0011    0.0027    0.0003 H         1 ATP         0.0849
     41 HO2'       -0.1563   -0.9855    2.0596 H         1 ATP         0.4417
     42 H1'         1.7826    1.9024    1.6451 H         1 ATP         0.1307
     43 H8         -1.4217    1.8638    0.9164 H         1 ATP         0.2875
     44 HN61       -2.4023    5.7711   -1.5477 H         1 ATP         0.4559
     45 HN62       -1.4857    6.9379   -2.4627 H         1 ATP         0.4559
     46 H2          2.8789    5.4660   -2.1503 H         1 ATP         0.0858
     47 H47        -2.4129    3.8706   -0.2402 H         1 ATP         0.5042
@<TRIPOS>BOND
     1    1    2 2
     2    1    3 1
     3    1    4 1
     4    1    8 1
     5    3   32 1
     6    4   33 1
     7    5    6 2
     8    5    7 1
     9    5    8 1
    10    5   12 1
    11    7   34 1
    12    9   10 2
    13    9   11 1
    14    9   12 1
    15    9   13 1
    16   13   14 1
    17   14   15 1
    18   14   35 1
    19   14   36 1
    20   15   16 1
    21   15   17 1
    22   15   37 1
    23   16   21 1
    24   17   18 1
    25   17   19 1
    26   17   38 1
    27   18   39 1
    28   19   20 1
    29   19   21 1
    30   19   40 1
    31   20   41 1
    32   21   22 1
    33   21   42 1
    34   22   23 ar
    35   22   31 ar
    36   23   24 ar
    37   23   43 1
    38   24   25 ar
    39   24   47 1
    40   25   26 ar
    41   25   31 ar
    42   26   27 1
    43   26   28 ar
    44   27   44 1
    45   27   45 1
    46   28   29 ar
    47   29   30 ar
    48   29   46 1
    49   30   31 ar
@<TRIPOS>SUBSTRUCTURE
     1 ATP         1 GROUP 0 A     ****
@<TRIPOS>MOLECULE
[5-(6-amino-7,8-dihydropurin-8-ylium-9-yl)-3,4-dihydroxy-tetrahydrofuran-2-yl]methyl [hydroxy(phosphonooxy)phosphoryl] phosphate
   47    49     1     0     0
SMALL
USER_CHARGES

@<TRIPOS>ATOM
      1 PG         -2.6106   -5.2021   -2.9142 P.3       1 ATP         1.8237
      2 O1G        -3.7684   -4.9806   -1.9864 O.2       1 ATP        -0.8455
      3 O2G        -1.8660   -6.6265   -2.7375 O.3       1 ATP        -0.7970
      4 O3G        -2.9895   -5.1834   -4.4863 O.3       1 ATP        -0.7970
      5 PB         -1.3902   -2.5316   -3.0099 P.3       1 ATP         1.9358
      6 O1B        -1.7996   -2.0611   -4.3743 O.2       1 ATP        -0.8836
      7 O2B        -2.3043   -1.9841   -1.7943 O.3       1 ATP        -0.8065
      8 O3B        -1.4072   -4.1323   -2.7977 O.3       1 ATP        -0.8233
      9 PA          1.5535   -2.4535   -3.2419 P.3       1 ATP         1.5686
     10 O1A         1.6303   -1.7851   -4.5975 O.co2     1 ATP        -0.8169
     11 O2A         1.8088   -3.9379   -3.0960 O.co2     1 ATP        -0.8169
     12 O3A         0.1066   -2.1133   -2.5688 O.3       1 ATP        -0.7987
     13 O5'         2.5237   -1.6631   -2.1889 O.3       1 ATP        -0.5693
     14 C5'         2.2816   -0.2918   -1.9206 C.3       1 ATP         0.1841
     15 C4'         2.7248    0.0226   -0.4980 C.3       1 ATP         0.0904
     16 O4'         2.4697    1.4219   -0.2462 O.3       1 ATP        -0.4083
     17 C3'         1.9404   -0.7419    0.5596 C.3       1 ATP         0.0826
     18 O3'         2.7418   -0.8086    1.7389 O.3       1 ATP        -0.6106
     19 C2'         0.7477    0.1630    0.7858 C.3       1 ATP         0.1294
     20 O2'         0.1373   -0.0577    2.0407 O.3       1 ATP        -0.5701
     21 C1'         1.3733    1.5427    0.6747 C.3       1 ATP         0.3967
     22 N9          0.4520    2.5240    0.1767 N.pl3     1 ATP        -0.5600
     23 C8         -0.3477    3.3274    0.8626 C.ar      1 ATP         0.3009
     24 N7         -1.0836    4.1323    0.0983 N.pl3     1 ATP        -0.5113
     25 C5         -0.7273    3.8194   -1.1674 C.ar      1 ATP        -0.2824
     26 C6         -1.1208    4.2877   -2.3863 C.ar      1 ATP         0.7670
     27 N6         -2.0932    5.3066   -2.4528 N.pl3     1 ATP        -0.9491
     28 N1         -0.5892    3.7853   -3.5223 N.ar      1 ATP        -0.7474
     29 C2          0.3427    2.8040   -3.3648 C.ar      1 ATP         0.7118
     30 N3          0.8012    2.2709   -2.2093 N.ar      1 ATP        -0.6661
     31 C4          0.2307    2.8167   -1.1312 C.ar      1 ATP         0.6308
     32 HOG2       -1.4622   -6.8465   -1.8711 H         1 ATP         0.4930
     33 HOG3       -3.3885   -4.3728   -4.8684 H         1 ATP         0.4930
     34 HOB2       -3.2618   -2.1972   -1.7868 H         1 ATP         0.4808
     35 H5'1        2.8429    0.3140   -2.6391 H         1 ATP         0.0350
     36 H5'2        1.2125   -0.0906   -2.0420 H         1 ATP         0.0350
     37 H4'         3.8050   -0.1388   -0.4008 H         1 ATP         0.1244
     38 H3'         1.6784   -1.7629    0.2714 H         1 ATP         0.0924
     39 HO3'        2.2232   -1.2979    2.3953 H         1 ATP         0.4379
     40 H2'        -0.0011    0.0027    0.0003 H         1 ATP         0.0849
     41 HO2'       -0.6141    0.5574    2.1082 H         1 ATP         0.4417
     42 H1'         1.7826    1.9024    1.6451 H         1 ATP         0.1307
     43 H8         -0.4040    3.3373    1.9373 H         1 ATP         0.2875
     44 HN61       -2.5133    5.6366   -1.6073 H         1 ATP         0.4559
     45 HN62       -2.4153    5.6161   -3.3477 H         1 ATP         0.4559
     46 H2          0.7668    2.4032   -4.2782 H         1 ATP         0.0858
     47 H47        -1.7549    4.8194    0.4122 H         1 ATP         0.5042
@<TRIPOS>BOND
     1    1    2 2
     2    1    3 1
     3    1    4 1
     4    1    8 1
     5    3   32 1
     6    4   33 1
     7    5    6 2
     8    5    7 1
     9    5    8 1
    10    5   12 1
    11    7   34 1
    12    9   10 2
    13    9   11 1
    14    9   12 1
    15    9   13 1
    16   13   14 1
    17   14   15 1
    18   14   35 1
    19   14   36 1
    20   15   16 1
    21   15   17 1
    22   15   37 1
    23   16   21 1
    24   17   18 1
    25   17   19 1
    26   17   38 1
    27   18   39 1
    28   19   20 1
    29   19   21 1
    30   19   40 1
    31   20   41 1
    32   21   22 1
    33   21   42 1
    34   22   23 ar
    35   22   31 ar
    36   23   24 ar
    37   23   43 1
    38   24   25 ar
    39   24   47 1
    40   25   26 ar
    41   25   31 ar
    42   26   27 1
    43   26   28 ar
    44   27   44 1
    45   27   45 1
    46   28   29 ar
    47   29   30 ar
    48   29   46 1
    49   30   31 ar
@<TRIPOS>SUBSTRUCTURE
     1 ATP         1 GROUP 0 A     ****
@<TRIPOS>MOLECULE
[5-(6-amino-7,8-dihydropurin-8-ylium-9-yl)-3,4-dihydroxy-tetrahydrofuran-2-yl]methyl [hydroxy(phosphonooxy)phosphoryl] phosphate
   47    49     1     0     0
SMALL
USER_CHARGES

@<TRIPOS>ATOM
      1 PG         -1.2179   -5.5317   -5.4208 P.3       1 ATP         1.8237
      2 O1G        -1.3844   -5.3475   -6.9002 O.2       1 ATP        -0.8455
      3 O2G        -2.6024   -5.5940   -4.5877 O.3       1 ATP        -0.7970
      4 O3G        -0.4726   -6.9003   -4.9885 O.3       1 ATP        -0.7970
      5 PB         -0.6370   -2.7934   -4.5297 P.3       1 ATP         1.9358
      6 O1B        -0.6793   -2.0387   -5.8255 O.2       1 ATP        -0.8836
      7 O2B        -1.9874   -2.7108   -3.6450 O.3       1 ATP        -0.8065
      8 O3B        -0.3756   -4.3813   -4.6637 O.3       1 ATP        -0.8233
      9 PA          2.1361   -2.2694   -3.6576 P.3       1 ATP         1.5686
     10 O1A         2.4968   -1.2636   -4.7294 O.co2     1 ATP        -0.8169
     11 O2A         2.6449   -3.6926   -3.7300 O.co2     1 ATP        -0.8169
     12 O3A         0.5124   -2.3123   -3.5015 O.3       1 ATP        -0.7987
     13 O5'         2.5237   -1.6631   -2.1889 O.3       1 ATP        -0.5693
     14 C5'         2.2816   -0.2918   -1.9206 C.3       1 ATP         0.1841
     15 C4'         2.7248    0.0226   -0.4980 C.3       1 ATP         0.0904
     16 O4'         2.4697    1.4219   -0.2462 O.3       1 ATP        -0.4083
     17 C3'         1.9404   -0.7419    0.5596 C.3       1 ATP         0.0826
     18 O3'         2.7418   -0.8086    1.7389 O.3       1 ATP        -0.6106
     19 C2'         0.7477    0.1630    0.7858 C.3       1 ATP         0.1294
     20 O2'         0.1373   -0.0577    2.0407 O.3       1 ATP        -0.5701
     21 C1'         1.3733    1.5427    0.6747 C.3       1 ATP         0.3967
     22 N9          0.4520    2.5240    0.1767 N.pl3     1 ATP        -0.5600
     23 C8         -0.8602    2.5861    0.3496 C.ar      1 ATP         0.3009
     24 N7         -1.4308    3.6326   -0.2443 N.pl3     1 ATP        -0.5113
     25 C5         -0.4080    4.2856   -0.8394 C.ar      1 ATP        -0.2824
     26 C6         -0.3432    5.4196   -1.5943 C.ar      1 ATP         0.7670
     27 N6         -1.5276    6.1333   -1.8702 N.pl3     1 ATP        -0.9491
     28 N1          0.8395    5.8603   -2.0764 N.ar      1 ATP        -0.7474
     29 C2          1.9319    5.1095   -1.7617 C.ar      1 ATP         0.7118
     30 N3          1.9773    3.9761   -1.0249 N.ar      1 ATP        -0.6661
     31 C4          0.7724    3.6031   -0.5836 C.ar      1 ATP         0.6308
     32 HOG2       -2.5658   -5.7132   -3.6148 H         1 ATP         0.4930
     33 HOG3       -0.8718   -7.7590   -5.2446 H         1 ATP         0.4930
     34 HOB2       -2.8272   -3.0427   -4.0282 H         1 ATP         0.4808
     35 H5'1        2.8429    0.3140   -2.6391 H         1 ATP         0.0350
     36 H5'2        1.2125   -0.0906   -2.0420 H         1 ATP         0.0350
     37 H4'         3.8050   -0.1388   -0.4008 H         1 ATP         0.1244
     38 H3'         1.6784   -1.7629    0.2714 H         1 ATP         0.0924
     39 HO3'        2.2232   -1.2979    2.3953 H         1 ATP         0.4379
     40 H2'        -0.0011    0.0027    0.0003 H         1 ATP         0.0849
     41 HO2'       -0.1563   -0.9855    2.0596 H         1 ATP         0.4417
     42 H1'         1.7826    1.9024    1.6451 H         1 ATP         0.1307
     43 H8         -1.4217    1.8638    0.9164 H         1 ATP         0.2875
     44 HN61       -2.4023    5.7711   -1.5477 H         1 ATP         0.4559
     45 HN62       -1.4857    6.9379   -2.4627 H         1 ATP         0.4559
     46 H2          2.8789    5.4660   -2.1503 H         1 ATP         0.0858
     47 H47        -2.4129    3.8706   -0.2402 H         1 ATP         0.5042
@<TRIPOS>BOND
     1    1    2 2
     2    1    3 1
     3    1    4 1
     4    1    8 1
     5    3   32 1
     6    4   33 1
     7    5    6 2
     8    5    7 1
     9    5    8 1
    10    5   12 1
    11    7   34 1
    12    9   10 2
    13    9   11 1
    14    9   12 1
    15    9   13 1
    16   13   14 1
    17   14   15 1
    18   14   35 1
    19   14   36 1
    20   15   16 1
    21   15   17 1
    22   15   37 1
    23   16   21 1
    24   17   18 1
    25   17   19 1
    26   17   38 1
    27   18   39 1
    28   19   20 1
    29   19   21 1
    30   19   40 1
    31   20   41 1
    32   21   22 1
    33   21   42 1
    34   22   23 ar
    35   22   31 ar
    36   23   24 ar
    37   23   43 1
    38   24   25 ar
    39   24   47 1
    40   25   26 ar
    41   25   31 ar
    42   26   27 1
    43   26   28 ar
    44   27   44 1
    45   27   45 1
    46   28   29 ar
    47   29   30 ar
    48   29   46 1
    49   30   31 ar
@<TRIPOS>SUBSTRUCTURE
     1 ATP         1 GROUP 0 A     ****
@<TRIPOS>MOLECULE
[5-(6-amino-7,8-dihydropurin-8-ylium-9-yl)-3,4-dihydroxy-tetrahydrofuran-2-yl]methyl [hydroxy(phosphonooxy)phosphoryl] phosphate
   47    49     1     0     0
SMALL
USER_CHARGES

@<TRIPOS>ATOM
      1 PG          0.2132   -3.7814   -7.6282 P.3       1 ATP         1.8237
      2 O1G        -1.1565   -3.3342   -8.0456 O.2       1 ATP        -0.8455
      3 O2G         0.3297   -5.3529   -7.2660 O.3       1 ATP        -0.7970
      4 O3G         1.3617   -3.5814   -8.7491 O.3       1 ATP        -0.7970
      5 PB          1.1400   -1.4929   -6.0364 P.3       1 ATP         1.9358
      6 O1B         2.1322   -0.8599   -6.9666 O.2       1 ATP        -0.8836
      7 O2B        -0.3236   -0.8065   -6.0266 O.3       1 ATP        -0.8065
      8 O3B         0.8199   -3.0494   -6.3235 O.3       1 ATP        -0.8233
      9 PA          2.8591   -2.1295   -3.7203 P.3       1 ATP         1.5686
     10 O1A         4.1100   -1.4252   -4.1992 O.co2     1 ATP        -0.8169
     11 O2A         2.7453   -3.6368   -3.7902 O.co2     1 ATP        -0.8169
     12 O3A         1.5676   -1.4818   -4.4786 O.3       1 ATP        -0.7987
     13 O5'         2.5237   -1.6631   -2.1889 O.3       1 ATP        -0.5693
     14 C5'         2.2816   -0.2918   -1.9206 C.3       1 ATP         0.1841
     15 C4'         2.7248    0.0226   -0.4980 C.3       1 ATP         0.0904
     16 O4'         2.4697    1.4219   -0.2462 O.3       1 ATP        -0.4083
     17 C3'         1.9404   -0.7419    0.5596 C.3       1 ATP         0.0826
     18 O3'         2.7418   -0.8086    1.7389 O.3       1 ATP        -0.6106
     19 C2'         0.7477    0.1630    0.7858 C.3       1 ATP         0.1294
     20 O2'         0.1373   -0.0577    2.0407 O.3       1 ATP        -0.5701
     21 C1'         1.3733    1.5427    0.6747 C.3       1 ATP         0.3967
     22 N9          0.4520    2.5240    0.1767 N.pl3     1 ATP        -0.5600
     23 C8         -0.3477    3.3274    0.8626 C.ar      1 ATP         0.3009
     24 N7         -1.0836    4.1323    0.0983 N.pl3     1 ATP        -0.5113
     25 C5         -0.7273    3.8194   -1.1674 C.ar      1 ATP        -0.2824
     26 C6         -1.1208    4.2877   -2.3863 C.ar      1 ATP         0.7670
     27 N6         -2.0932    5.3066   -2.4528 N.pl3     1 ATP        -0.9491
     28 N1         -0.5892    3.7853   -3.5223 N.ar      1 ATP        -0.7474
     29 C2          0.3427    2.8040   -3.3648 C.ar      1 ATP         0.7118
     30 N3          0.8012    2.2709   -2.2093 N.ar      1 ATP        -0.6661
     31 C4          0.2307    2.8167   -1.1312 C.ar      1 ATP         0.6308
     32 HOG2       -0.2199   -5.7142   -6.5383 H         1 ATP         0.4930
     33 HOG3        1.5484   -2.6772   -9.0807 H         1 ATP         0.4930
     34 HOB2       -0.8400   -0.7772   -6.8601 H         1 ATP         0.4808
     35 H5'1        2.8429    0.3140   -2.6391 H         1 ATP         0.0350
     36 H5'2        1.2125   -0.0906   -2.0420 H         1 ATP         0.0350
     37 H4'         3.8050   -0.1388   -0.4008 H         1 ATP         0.1244
     38 H3'         1.6784   -1.7629    0.2714 H         1 ATP         0.0924
     39 HO3'        2.2232   -1.2979    2.3953 H         1 ATP         0.4379
     40 H2'        -0.0011    0.0027    0.0003 H         1 ATP         0.0849
     41 HO2'       -0.6141    0.5574    2.1082 H         1 ATP         0.4417
     42 H1'         1.7826    1.9024    1.6451 H         1 ATP         0.1307
     43 H8         -0.4040    3.3373    1.9373 H         1 ATP         0.2875
     44 HN61       -2.5133    5.6366   -1.6073 H         1 ATP         0.4559
     45 HN62       -2.4153    5.6161   -3.3477 H         1 ATP         0.4559
     46 H2          0.7668    2.4032   -4.2782 H         1 ATP         0.0858
     47 H47        -1.7549    4.8194    0.4122 H         1 ATP         0.5042
@<TRIPOS>BOND
     1    1    2 2
     2    1    3 1
     3    1    4 1
     4    1    8 1
     5    3   32 1
     6    4   33 1
     7    5    6 2
     8    5    7 1
     9    5    8 1
    10    5   12 1
    11    7   34 1
    12    9   10 2
    13    9   11 1
    14    9   12 1
    15    9   13 1
    16   13   14 1
    17   14   15 1
    18   14   35 1
    19   14   36 1
    20   15   16 1
    21   15   17 1
    22   15   37 1
    23   16   21 1
    24   17   18 1
    25   17   19 1
    26   17   38 1
    27   18   39 1
    28   19   20 1
    29   19   21 1
    30   19   40 1
    31   20   41 1
    32   21   22 1
    33   21   42 1
    34   22   23 ar
    35   22   31 ar
    36   23   24 ar
    37   23   43 1
    38   24   25 ar
    39   24   47 1
    40   25   26 ar
    41   25   31 ar
    42   26   27 1
    43   26   28 ar
    44   27   44 1
    45   27   45 1
    46   28   29 ar
    47   29   30 ar
    48   29   46 1
    49   30   31 ar
@<TRIPOS>SUBSTRUCTURE
     1 ATP         1 GROUP 0 A     ****
@<TRIPOS>MOLECULE
[5-(6-amino-7,8-dihydropurin-8-ylium-9-yl)-3,4-dihydroxy-tetrahydrofuran-2-yl]methyl [hydroxy(phosphonooxy)phosphoryl] phosphate
   47    49     1     0     0
SMALL
USER_CHARGES

@<TRIPOS>ATOM
      1 PG         -2.3301    1.7270   -5.8773 P.3       1 ATP         1.8237
      2 O1G        -3.4685    2.3333   -5.1113 O.2       1 ATP        -0.8455
      3 O2G        -2.5874    0.2134   -6.3849 O.3       1 ATP        -0.7970
      4 O3G        -1.9403    2.5053   -7.2402 O.3       1 ATP        -0.7970
      5 PB          0.0014    2.7672   -4.4241 P.3       1 ATP         1.9358
      6 O1B         0.5149    3.8038   -5.3792 O.2       1 ATP        -0.8836
      7 O2B        -0.9081    3.3399   -3.2166 O.3       1 ATP        -0.8065
      8 O3B        -0.9293    1.6231   -5.0816 O.3       1 ATP        -0.8233
      9 PA          2.3317    0.9615   -4.2392 P.3       1 ATP         1.5686
     10 O1A         3.3059    1.8098   -5.0274 O.co2     1 ATP        -0.8169
     11 O2A         1.6920   -0.2610   -4.8607 O.co2     1 ATP        -0.8169
     12 O3A         1.1467    1.9221   -3.6600 O.3       1 ATP        -0.7987
     13 O5'         3.0197    0.5137   -2.8245 O.3       1 ATP        -0.5693
     14 C5'         2.2816   -0.2918   -1.9206 C.3       1 ATP         0.1841
     15 C4'         2.7248    0.0226   -0.4980 C.3       1 ATP         0.0904
     16 O4'         2.4697    1.4219   -0.2462 O.3       1 ATP        -0.4083
     17 C3'         1.9404   -0.7419    0.5596 C.3       1 ATP         0.0826
     18 O3'         2.7418   -0.8086    1.7389 O.3       1 ATP        -0.6106
     19 C2'         0.7477    0.1630    0.7858 C.3       1 ATP         0.1294
     20 O2'         0.1373   -0.0577    2.0407 O.3       1 ATP        -0.5701
     21 C1'         1.3733    1.5427    0.6747 C.3       1 ATP         0.3967
     22 N9          0.4520    2.5240    0.1767 N.pl3     1 ATP        -0.5600
     23 C8         -0.8252    2.3702   -0.1405 C.ar      1 ATP         0.3009
     24 N7         -1.4086    3.4861   -0.5739 N.pl3     1 ATP        -0.5113
     25 C5         -0.4324    4.4197   -0.5299 C.ar      1 ATP        -0.2824
     26 C6         -0.4006    5.7465   -0.8439 C.ar      1 ATP         0.7670
     27 N6         -1.5714    6.3708   -1.3211 N.pl3     1 ATP        -0.9491
     28 N1          0.7370    6.4615   -0.7020 N.ar      1 ATP        -0.7474
     29 C2          1.8196    5.7785   -0.2355 C.ar      1 ATP         0.7118
     30 N3          1.8948    4.4713    0.1036 N.ar      1 ATP        -0.6661
     31 C4          0.7337    3.8311   -0.0629 C.ar      1 ATP         0.6308
     32 HOG2       -3.3402    0.0369   -6.9885 H         1 ATP         0.4930
     33 HOG3       -1.6569    3.4429   -7.1865 H         1 ATP         0.4930
     34 HOB2       -1.7345    3.8223   -3.4320 H         1 ATP         0.4808
     35 H5'1        1.2153   -0.0781   -2.0454 H         1 ATP         0.0350
     36 H5'2        2.4645   -1.3454   -2.1547 H         1 ATP         0.0350
     37 H4'         3.8050   -0.1388   -0.4008 H         1 ATP         0.1244
     38 H3'         1.6784   -1.7629    0.2714 H         1 ATP         0.0924
     39 HO3'        2.2232   -1.2979    2.3953 H         1 ATP         0.4379
     40 H2'        -0.0011    0.0027    0.0003 H         1 ATP         0.0849
     41 HO2'       -0.6141    0.5574    2.1082 H         1 ATP         0.4417
     42 H1'         1.7826    1.9024    1.6451 H         1 ATP         0.1307
     43 H8         -1.3516    1.4351   -0.0582 H         1 ATP         0.2875
     44 HN61       -2.3936    5.8204   -1.4664 H         1 ATP         0.4559
     45 HN62       -1.5348    7.3319   -1.5955 H         1 ATP         0.4559
     46 H2          2.7305    6.3553   -0.1232 H         1 ATP         0.0858
     47 H47        -2.3700    3.5931   -0.8665 H         1 ATP         0.5042
@<TRIPOS>BOND
     1    1    2 2
     2    1    3 1
     3    1    4 1
     4    1    8 1
     5    3   32 1
     6    4   33 1
     7    5    6 2
     8    5    7 1
     9    5    8 1
    10    5   12 1
    11    7   34 1
    12    9   10 2
    13    9   11 1
    14    9   12 1
    15    9   13 1
    16   13   14 1
    17   14   15 1
    18   14   35 1
    19   14   36 1
    20   15   16 1
    21   15   17 1
    22   15   37 1
    23   16   21 1
    24   17   18 1
    25   17   19 1
    26   17   38 1
    27   18   39 1
    28   19   20 1
    29   19   21 1
    30   19   40 1
    31   20   41 1
    32   21   22 1
    33   21   42 1
    34   22   23 ar
    35   22   31 ar
    36   23   24 ar
    37   23   43 1
    38   24   25 ar
    39   24   47 1
    40   25   26 ar
    41   25   31 ar
    42   26   27 1
    43   26   28 ar
    44   27   44 1
    45   27   45 1
    46   28   29 ar
    47   29   30 ar
    48   29   46 1
    49   30   31 ar
@<TRIPOS>SUBSTRUCTURE
     1 ATP         1 GROUP 0 A     ****
@<TRIPOS>MOLECULE
[5-(6-amino-7,8-dihydropurin-8-ylium-9-yl)-3,4-dihydroxy-tetrahydrofuran-2-yl]methyl [hydroxy(phosphonooxy)phosphoryl] phosphate
   47    49     1     0     0
SMALL
USER_CHARGES

@<TRIPOS>ATOM
      1 PG          4.9110    0.0012   -7.7515 P.3       1 ATP         1.8237
      2 O1G         6.0561    0.9699   -7.7770 O.2       1 ATP        -0.8455
      3 O2G         3.5299    0.5714   -8.3696 O.3       1 ATP        -0.7970
      4 O3G         5.1534   -1.3562   -8.5965 O.3       1 ATP        -0.7970
      5 PB          5.3095   -1.3418   -5.1693 P.3       1 ATP         1.9358
      6 O1B         5.8313   -2.6800   -5.6022 O.2       1 ATP        -0.8836
      7 O2B         6.4401   -0.2840   -4.7046 O.3       1 ATP        -0.8065
      8 O3B         4.4773   -0.5298   -6.2899 O.3       1 ATP        -0.8233
      9 PA          2.8591   -2.1295   -3.7203 P.3       1 ATP         1.5686
     10 O1A         3.0780   -3.6265   -3.7548 O.co2     1 ATP        -0.8169
     11 O2A         1.8561   -1.4730   -4.6439 O.co2     1 ATP        -0.8169
     12 O3A         4.2973   -1.3829   -3.9109 O.3       1 ATP        -0.7987
     13 O5'         2.5237   -1.6631   -2.1889 O.3       1 ATP        -0.5693
     14 C5'         2.2816   -0.2918   -1.9206 C.3       1 ATP         0.1841
     15 C4'         2.7248    0.0226   -0.4980 C.3       1 ATP         0.0904
     16 O4'         2.4697    1.4219   -0.2462 O.3       1 ATP        -0.4083
     17 C3'         1.9404   -0.7419    0.5596 C.3       1 ATP         0.0826
     18 O3'         2.7418   -0.8086    1.7389 O.3       1 ATP        -0.6106
     19 C2'         0.7477    0.1630    0.7858 C.3       1 ATP         0.1294
     20 O2'         0.1373   -0.0577    2.0407 O.3       1 ATP        -0.5701
     21 C1'         1.3733    1.5427    0.6747 C.3       1 ATP         0.3967
     22 N9          0.4520    2.5240    0.1767 N.pl3     1 ATP        -0.5600
     23 C8         -0.3477    3.3274    0.8626 C.ar      1 ATP         0.3009
     24 N7         -1.0836    4.1323    0.0983 N.pl3     1 ATP        -0.5113
     25 C5         -0.7273    3.8194   -1.1674 C.ar      1 ATP        -0.2824
     26 C6         -1.1208    4.2877   -2.3863 C.ar      1 ATP         0.7670
     27 N6         -2.0932    5.3066   -2.4528 N.pl3     1 ATP        -0.9491
     28 N1         -0.5892    3.7853   -3.5223 N.ar      1 ATP        -0.7474
     29 C2          0.3427    2.8040   -3.3648 C.ar      1 ATP         0.7118
     30 N3          0.8012    2.2709   -2.2093 N.ar      1 ATP        -0.6661
     31 C4          0.2307    2.8167   -1.1312 C.ar      1 ATP         0.6308
     32 HOG2        3.1195    1.3640   -7.9628 H         1 ATP         0.4930
     33 HOG3        5.9030   -1.9397   -8.3517 H         1 ATP         0.4930
     34 HOB2        7.1327   -0.0168   -5.3457 H         1 ATP         0.4808
     35 H5'1        2.8429    0.3140   -2.6391 H         1 ATP         0.0350
     36 H5'2        1.2125   -0.0906   -2.0420 H         1 ATP         0.0350
     37 H4'         3.8050   -0.1388   -0.4008 H         1 ATP         0.1244
     38 H3'         1.6784   -1.7629    0.2714 H         1 ATP         0.0924
     39 HO3'        2.2232   -1.2979    2.3953 H         1 ATP         0.4379
     40 H2'        -0.0011    0.0027    0.0003 H         1 ATP         0.0849
     41 HO2'       -0.6141    0.5574    2.1082 H         1 ATP         0.4417
     42 H1'         1.7826    1.9024    1.6451 H         1 ATP         0.1307
     43 H8         -0.4040    3.3373    1.9373 H         1 ATP         0.2875
     44 HN61       -2.5133    5.6366   -1.6073 H         1 ATP         0.4559
     45 HN62       -2.4153    5.6161   -3.3477 H         1 ATP         0.4559
     46 H2          0.7668    2.4032   -4.2782 H         1 ATP         0.0858
     47 H47        -1.7549    4.8194    0.4122 H         1 ATP         0.5042
@<TRIPOS>BOND
     1    1    2 2
     2    1    3 1
     3    1    4 1
     4    1    8 1
     5    3   32 1
     6    4   33 1
     7    5    6 2
     8    5    7 1
     9    5    8 1
    10    5   12 1
    11    7   34 1
    12    9   10 2
    13    9   11 1
    14    9   12 1
    15    9   13 1
    16   13   14 1
    17   14   15 1
    18   14   35 1
    19   14   36 1
    20   15   16 1
    21   15   17 1
    22   15   37 1
    23   16   21 1
    24   17   18 1
    25   17   19 1
    26   17   38 1
    27   18   39 1
    28   19   20 1
    29   19   21 1
    30   19   40 1
    31   20   41 1
    32   21   22 1
    33   21   42 1
    34   22   23 ar
    35   22   31 ar
    36   23   24 ar
    37   23   43 1
    38   24   25 ar
    39   24   47 1
    40   25   26 ar
    41   25   31 ar
    42   26   27 1
    43   26   28 ar
    44   27   44 1
    45   27   45 1
    46   28   29 ar
    47   29   30 ar
    48   29   46 1
    49   30   31 ar
@<TRIPOS>SUBSTRUCTURE
     1 ATP         1 GROUP 0 A     ****
@<TRIPOS>MOLECULE
[5-(6-amino-7,8-dihydropurin-8-ylium-9-yl)-3,4-dihydroxy-tetrahydrofuran-2-yl]methyl [hydroxy(phosphonooxy)phosphoryl] phosphate
   47    49     1     0     0
SMALL
USER_CHARGES

@<TRIPOS>ATOM
      1 PG         -1.6152   -0.6761   -5.4266 P.3       1 ATP         1.8237
      2 O1G        -1.6539   -0.8072   -3.9327 O.2       1 ATP        -0.8455
      3 O2G        -2.2486   -1.9275   -6.2312 O.3       1 ATP        -0.7970
      4 O3G        -2.4346    0.5869   -6.0170 O.3       1 ATP        -0.7970
      5 PB          1.1400   -1.4929   -6.0364 P.3       1 ATP         1.9358
      6 O1B         0.9279   -2.8577   -6.6219 O.2       1 ATP        -0.8836
      7 O2B         2.2967   -0.6154   -6.7472 O.3       1 ATP        -0.8065
      8 O3B        -0.1459   -0.5170   -6.0763 O.3       1 ATP        -0.8233
      9 PA          2.8591   -2.1295   -3.7203 P.3       1 ATP         1.5686
     10 O1A         4.1100   -1.4252   -4.1992 O.co2     1 ATP        -0.8169
     11 O2A         2.7453   -3.6368   -3.7902 O.co2     1 ATP        -0.8169
     12 O3A         1.5676   -1.4818   -4.4786 O.3       1 ATP        -0.7987
     13 O5'         2.5237   -1.6631   -2.1889 O.3       1 ATP        -0.5693
     14 C5'         2.2816   -0.2918   -1.9206 C.3       1 ATP         0.1841
     15 C4'         2.7248    0.0226   -0.4980 C.3       1 ATP         0.0904
     16 O4'         2.4697    1.4219   -0.2462 O.3       1 ATP        -0.4083
     17 C3'         1.9404   -0.7419    0.5596 C.3       1 ATP         0.0826
     18 O3'         2.7418   -0.8086    1.7389 O.3       1 ATP        -0.6106
     19 C2'         0.7477    0.1630    0.7858 C.3       1 ATP         0.1294
     20 O2'         0.1373   -0.0577    2.0407 O.3       1 ATP        -0.5701
     21 C1'         1.3733    1.5427    0.6747 C.3       1 ATP         0.3967
     22 N9          0.4520    2.5240    0.1767 N.pl3     1 ATP        -0.5600
     23 C8         -0.5899    2.3466   -0.6224 C.ar      1 ATP         0.3009
     24 N7         -1.2514    3.4689   -0.8989 N.pl3     1 ATP        -0.5113
     25 C5         -0.5826    4.4323   -0.2272 C.ar      1 ATP        -0.2824
     26 C6         -0.7636    5.7789   -0.1086 C.ar      1 ATP         0.7670
     27 N6         -1.8382    6.3927   -0.7843 N.pl3     1 ATP        -0.9491
     28 N1          0.0741    6.5233    0.6461 N.ar      1 ATP        -0.7474
     29 C2          1.0845    5.8486    1.2626 C.ar      1 ATP         0.7118
     30 N3          1.3516    4.5236    1.2116 N.ar      1 ATP        -0.6661
     31 C4          0.4827    3.8546    0.4481 C.ar      1 ATP         0.6308
     32 HOG2       -1.8578   -2.8185   -6.1068 H         1 ATP         0.4930
     33 HOG3       -2.1766    1.4916   -5.7388 H         1 ATP         0.4930
     34 HOB2        3.2151   -0.9598   -6.7579 H         1 ATP         0.4808
     35 H5'1        2.8429    0.3140   -2.6391 H         1 ATP         0.0350
     36 H5'2        1.2125   -0.0906   -2.0420 H         1 ATP         0.0350
     37 H4'         3.8050   -0.1388   -0.4008 H         1 ATP         0.1244
     38 H3'         1.6784   -1.7629    0.2714 H         1 ATP         0.0924
     39 HO3'        3.5554   -1.2733    1.4914 H         1 ATP         0.4379
     40 H2'        -0.0011    0.0027    0.0003 H         1 ATP         0.0849
     41 HO2'       -0.1563   -0.9855    2.0596 H         1 ATP         0.4417
     42 H1'         1.7826    1.9024    1.6451 H         1 ATP         0.1307
     43 H8         -0.8833    1.3888   -1.0158 H         1 ATP         0.2875
     44 HN61       -2.4225    5.8385   -1.3773 H         1 ATP         0.4559
     45 HN62       -1.9421    7.3862   -0.7348 H         1 ATP         0.4559
     46 H2          1.7546    6.4491    1.8670 H         1 ATP         0.0858
     47 H47        -2.0705    3.5612   -1.4834 H         1 ATP         0.5042
@<TRIPOS>BOND
     1    1    2 2
     2    1    3 1
     3    1    4 1
     4    1    8 1
     5    3   32 1
     6    4   33 1
     7    5    6 2
     8    5    7 1
     9    5    8 1
    10    5   12 1
    11    7   34 1
    12    9   10 2
    13    9   11 1
    14    9   12 1
    15    9   13 1
    16   13   14 1
    17   14   15 1
    18   14   35 1
    19   14   36 1
    20   15   16 1
    21   15   17 1
    22   15   37 1
    23   16   21 1
    24   17   18 1
    25   17   19 1
    26   17   38 1
    27   18   39 1
    28   19   20 1
    29   19   21 1
    30   19   40 1
    31   20   41 1
    32   21   22 1
    33   21   42 1
    34   22   23 ar
    35   22   31 ar
    36   23   24 ar
    37   23   43 1
    38   24   25 ar
    39   24   47 1
    40   25   26 ar
    41   25   31 ar
    42   26   27 1
    43   26   28 ar
    44   27   44 1
    45   27   45 1
    46   28   29 ar
    47   29   30 ar
    48   29   46 1
    49   30   31 ar
@<TRIPOS>SUBSTRUCTURE
     1 ATP         1 GROUP 0 A     ****
@<TRIPOS>MOLECULE
[5-(6-amino-7,8-dihydropurin-8-ylium-9-yl)-3,4-dihydroxy-tetrahydrofuran-2-yl]methyl [hydroxy(phosphonooxy)phosphoryl] phosphate
   47    49     1     0     0
SMALL
USER_CHARGES

@<TRIPOS>ATOM
      1 PG          4.9110    0.0012   -7.7515 P.3       1 ATP         1.8237
      2 O1G         6.0561    0.9699   -7.7770 O.2       1 ATP        -0.8455
      3 O2G         3.5299    0.5714   -8.3696 O.3       1 ATP        -0.7970
      4 O3G         5.1534   -1.3562   -8.5965 O.3       1 ATP        -0.7970
      5 PB          5.3095   -1.3418   -5.1693 P.3       1 ATP         1.9358
      6 O1B         5.8313   -2.6800   -5.6022 O.2       1 ATP        -0.8836
      7 O2B         6.4401   -0.2840   -4.7046 O.3       1 ATP        -0.8065
      8 O3B         4.4773   -0.5298   -6.2899 O.3       1 ATP        -0.8233
      9 PA          2.8591   -2.1295   -3.7203 P.3       1 ATP         1.5686
     10 O1A         3.0780   -3.6265   -3.7548 O.co2     1 ATP        -0.8169
     11 O2A         1.8561   -1.4730   -4.6439 O.co2     1 ATP        -0.8169
     12 O3A         4.2973   -1.3829   -3.9109 O.3       1 ATP        -0.7987
     13 O5'         2.5237   -1.6631   -2.1889 O.3       1 ATP        -0.5693
     14 C5'         2.2816   -0.2918   -1.9206 C.3       1 ATP         0.1841
     15 C4'         2.7248    0.0226   -0.4980 C.3       1 ATP         0.0904
     16 O4'         2.4697    1.4219   -0.2462 O.3       1 ATP        -0.4083
     17 C3'         1.9404   -0.7419    0.5596 C.3       1 ATP         0.0826
     18 O3'         2.7418   -0.8086    1.7389 O.3       1 ATP        -0.6106
     19 C2'         0.7477    0.1630    0.7858 C.3       1 ATP         0.1294
     20 O2'         0.1373   -0.0577    2.0407 O.3       1 ATP        -0.5701
     21 C1'         1.3733    1.5427    0.6747 C.3       1 ATP         0.3967
     22 N9          0.4520    2.5240    0.1767 N.pl3     1 ATP        -0.5600
     23 C8         -0.5899    2.3466   -0.6224 C.ar      1 ATP         0.3009
     24 N7         -1.2514    3.4689   -0.8989 N.pl3     1 ATP        -0.5113
     25 C5         -0.5826    4.4323   -0.2272 C.ar      1 ATP        -0.2824
     26 C6         -0.7636    5.7789   -0.1086 C.ar      1 ATP         0.7670
     27 N6         -1.8382    6.3927   -0.7843 N.pl3     1 ATP        -0.9491
     28 N1          0.0741    6.5233    0.6461 N.ar      1 ATP        -0.7474
     29 C2          1.0845    5.8486    1.2626 C.ar      1 ATP         0.7118
     30 N3          1.3516    4.5236    1.2116 N.ar      1 ATP        -0.6661
     31 C4          0.4827    3.8546    0.4481 C.ar      1 ATP         0.6308
     32 HOG2        3.5137    0.8627   -9.3061 H         1 ATP         0.4930
     33 HOG3        5.9030   -1.9397   -8.3517 H         1 ATP         0.4930
     34 HOB2        7.1327   -0.0168   -5.3457 H         1 ATP         0.4808
     35 H5'1        2.8429    0.3140   -2.6391 H         1 ATP         0.0350
     36 H5'2        1.2125   -0.0906   -2.0420 H         1 ATP         0.0350
     37 H4'         3.8050   -0.1388   -0.4008 H         1 ATP         0.1244
     38 H3'         1.6784   -1.7629    0.2714 H         1 ATP         0.0924
     39 HO3'        2.2232   -1.2979    2.3953 H         1 ATP         0.4379
     40 H2'        -0.0011    0.0027    0.0003 H         1 ATP         0.0849
     41 HO2'       -0.6141    0.5574    2.1082 H         1 ATP         0.4417
     42 H1'         1.7826    1.9024    1.6451 H         1 ATP         0.1307
     43 H8         -0.8833    1.3888   -1.0158 H         1 ATP         0.2875
     44 HN61       -1.9982    7.3720   -0.6591 H         1 ATP         0.4559
     45 HN62       -2.4782    5.8240   -1.3014 H         1 ATP         0.4559
     46 H2          1.7546    6.4491    1.8670 H         1 ATP         0.0858
     47 H47        -2.0705    3.5612   -1.4834 H         1 ATP         0.5042
@<TRIPOS>BOND
     1    1    2 2
     2    1    3 1
     3    1    4 1
     4    1    8 1
     5    3   32 1
     6    4   33 1
     7    5    6 2
     8    5    7 1
     9    5    8 1
    10    5   12 1
    11    7   34 1
    12    9   10 2
    13    9   11 1
    14    9   12 1
    15    9   13 1
    16   13   14 1
    17   14   15 1
    18   14   35 1
    19   14   36 1
    20   15   16 1
    21   15   17 1
    22   15   37 1
    23   16   21 1
    24   17   18 1
    25   17   19 1
    26   17   38 1
    27   18   39 1
    28   19   20 1
    29   19   21 1
    30   19   40 1
    31   20   41 1
    32   21   22 1
    33   21   42 1
    34   22   23 ar
    35   22   31 ar
    36   23   24 ar
    37   23   43 1
    38   24   25 ar
    39   24   47 1
    40   25   26 ar
    41   25   31 ar
    42   26   27 1
    43   26   28 ar
    44   27   44 1
    45   27   45 1
    46   28   29 ar
    47   29   30 ar
    48   29   46 1
    49   30   31 ar
@<TRIPOS>SUBSTRUCTURE
     1 ATP         1 GROUP 0 A     ****
@<TRIPOS>MOLECULE
[5-(6-amino-7,8-dihydropurin-8-ylium-9-yl)-3,4-dihydroxy-tetrahydrofuran-2-yl]methyl [hydroxy(phosphonooxy)phosphoryl] phosphate
   47    49     1     0     0
SMALL
USER_CHARGES

@<TRIPOS>ATOM
      1 PG          3.1000   -0.0392   -9.0775 P.3       1 ATP         1.8237
      2 O1G         3.5133   -1.3521   -9.6738 O.2       1 ATP        -0.8455
      3 O2G         4.1291    1.1787   -9.3463 O.3       1 ATP        -0.7970
      4 O3G         1.6962    0.5436   -9.6300 O.3       1 ATP        -0.7970
      5 PB          1.9309   -0.8770   -6.5160 P.3       1 ATP         1.9358
      6 O1B         0.4652   -0.6952   -6.7791 O.2       1 ATP        -0.8836
      7 O2B         2.4720   -2.3920   -6.6749 O.3       1 ATP        -0.8065
      8 O3B         2.9149   -0.0273   -7.4738 O.3       1 ATP        -0.8233
      9 PA          2.3317    0.9615   -4.2392 P.3       1 ATP         1.5686
     10 O1A         0.8779    1.3102   -4.0045 O.co2     1 ATP        -0.8169
     11 O2A         3.2600    1.9386   -4.9272 O.co2     1 ATP        -0.8169
     12 O3A         2.4099   -0.4638   -5.0296 O.3       1 ATP        -0.7987
     13 O5'         3.0197    0.5137   -2.8245 O.3       1 ATP        -0.5693
     14 C5'         2.2816   -0.2918   -1.9206 C.3       1 ATP         0.1841
     15 C4'         2.7248    0.0226   -0.4980 C.3       1 ATP         0.0904
     16 O4'         2.4697    1.4219   -0.2462 O.3       1 ATP        -0.4083
     17 C3'         1.9404   -0.7419    0.5596 C.3       1 ATP         0.0826
     18 O3'         2.7418   -0.8086    1.7389 O.3       1 ATP        -0.6106
     19 C2'         0.7477    0.1630    0.7858 C.3       1 ATP         0.1294
     20 O2'         0.1373   -0.0577    2.0407 O.3       1 ATP        -0.5701
     21 C1'         1.3733    1.5427    0.6747 C.3       1 ATP         0.3967
     22 N9          0.4520    2.5240    0.1767 N.pl3     1 ATP        -0.5600
     23 C8         -0.5899    2.3466   -0.6224 C.ar      1 ATP         0.3009
     24 N7         -1.2514    3.4689   -0.8989 N.pl3     1 ATP        -0.5113
     25 C5         -0.5826    4.4323   -0.2272 C.ar      1 ATP        -0.2824
     26 C6         -0.7636    5.7789   -0.1086 C.ar      1 ATP         0.7670
     27 N6         -1.8382    6.3927   -0.7843 N.pl3     1 ATP        -0.9491
     28 N1          0.0741    6.5233    0.6461 N.ar      1 ATP        -0.7474
     29 C2          1.0845    5.8486    1.2626 C.ar      1 ATP         0.7118
     30 N3          1.3516    4.5236    1.2116 N.ar      1 ATP        -0.6661
     31 C4          0.4827    3.8546    0.4481 C.ar      1 ATP         0.6308
     32 HOG2        4.3229    1.4409  -10.2714 H         1 ATP         0.4930
     33 HOG3        1.6051    0.7316  -10.5885 H         1 ATP         0.4930
     34 HOB2        2.3799   -2.8407   -7.5423 H         1 ATP         0.4808
     35 H5'1        1.2153   -0.0781   -2.0454 H         1 ATP         0.0350
     36 H5'2        2.4645   -1.3454   -2.1547 H         1 ATP         0.0350
     37 H4'         3.8050   -0.1388   -0.4008 H         1 ATP         0.1244
     38 H3'         1.6784   -1.7629    0.2714 H         1 ATP         0.0924
     39 HO3'        3.5554   -1.2733    1.4914 H         1 ATP         0.4379
     40 H2'        -0.0011    0.0027    0.0003 H         1 ATP         0.0849
     41 HO2'       -0.6141    0.5574    2.1082 H         1 ATP         0.4417
     42 H1'         1.7826    1.9024    1.6451 H         1 ATP         0.1307
     43 H8         -0.8833    1.3888   -1.0158 H         1 ATP         0.2875
     44 HN61       -2.4225    5.8385   -1.3773 H         1 ATP         0.4559
     45 HN62       -1.9421    7.3862   -0.7348 H         1 ATP         0.4559
     46 H2          1.7546    6.4491    1.8670 H         1 ATP         0.0858
     47 H47        -2.0705    3.5612   -1.4834 H         1 ATP         0.5042
@<TRIPOS>BOND
     1    1    2 2
     2    1    3 1
     3    1    4 1
     4    1    8 1
     5    3   32 1
     6    4   33 1
     7    5    6 2
     8    5    7 1
     9    5    8 1
    10    5   12 1
    11    7   34 1
    12    9   10 2
    13    9   11 1
    14    9   12 1
    15    9   13 1
    16   13   14 1
    17   14   15 1
    18   14   35 1
    19   14   36 1
    20   15   16 1
    21   15   17 1
    22   15   37 1
    23   16   21 1
    24   17   18 1
    25   17   19 1
    26   17   38 1
    27   18   39 1
    28   19   20 1
    29   19   21 1
    30   19   40 1
    31   20   41 1
    32   21   22 1
    33   21   42 1
    34   22   23 ar
    35   22   31 ar
    36   23   24 ar
    37   23   43 1
    38   24   25 ar
    39   24   47 1
    40   25   26 ar
    41   25   31 ar
    42   26   27 1
    43   26   28 ar
    44   27   44 1
    45   27   45 1
    46   28   29 ar
    47   29   30 ar
    48   29   46 1
    49   30   31 ar
@<TRIPOS>SUBSTRUCTURE
     1 ATP         1 GROUP 0 A     ****
@<TRIPOS>MOLECULE
[5-(6-amino-7,8-dihydropurin-8-ylium-9-yl)-3,4-dihydroxy-tetrahydrofuran-2-yl]methyl [hydroxy(phosphonooxy)phosphoryl] phosphate
   47    49     1     0     0
SMALL
USER_CHARGES

@<TRIPOS>ATOM
      1 PG          0.3259   -6.0524   -5.7866 P.3       1 ATP         1.8237
      2 O1G        -0.9096   -6.7247   -5.2653 O.2       1 ATP        -0.8455
      3 O2G         1.6377   -6.9962   -5.8390 O.3       1 ATP        -0.7970
      4 O3G         0.2106   -5.5069   -7.3047 O.3       1 ATP        -0.7970
      5 PB          0.0873   -3.3627   -4.6295 P.3       1 ATP         1.9358
      6 O1B        -0.3039   -2.5514   -5.8291 O.2       1 ATP        -0.8836
      7 O2B        -1.1377   -3.7990   -3.6692 O.3       1 ATP        -0.8065
      8 O3B         0.8242   -4.7627   -4.9531 O.3       1 ATP        -0.8233
      9 PA          2.6176   -2.0495   -3.8562 P.3       1 ATP         1.5686
     10 O1A         2.5475   -0.8911   -4.8275 O.co2     1 ATP        -0.8169
     11 O2A         3.5417   -3.2199   -4.1138 O.co2     1 ATP        -0.8169
     12 O3A         1.1108   -2.6284   -3.6180 O.3       1 ATP        -0.7987
     13 O5'         2.9201   -1.4821   -2.3524 O.3       1 ATP        -0.5693
     14 C5'         2.2816   -0.2918   -1.9206 C.3       1 ATP         0.1841
     15 C4'         2.7248    0.0226   -0.4980 C.3       1 ATP         0.0904
     16 O4'         2.4697    1.4219   -0.2462 O.3       1 ATP        -0.4083
     17 C3'         1.9404   -0.7419    0.5596 C.3       1 ATP         0.0826
     18 O3'         2.7418   -0.8086    1.7389 O.3       1 ATP        -0.6106
     19 C2'         0.7477    0.1630    0.7858 C.3       1 ATP         0.1294
     20 O2'         0.1373   -0.0577    2.0407 O.3       1 ATP        -0.5701
     21 C1'         1.3733    1.5427    0.6747 C.3       1 ATP         0.3967
     22 N9          0.4520    2.5240    0.1767 N.pl3     1 ATP        -0.5600
     23 C8         -0.3477    3.3274    0.8626 C.ar      1 ATP         0.3009
     24 N7         -1.0836    4.1323    0.0983 N.pl3     1 ATP        -0.5113
     25 C5         -0.7273    3.8194   -1.1674 C.ar      1 ATP        -0.2824
     26 C6         -1.1208    4.2877   -2.3863 C.ar      1 ATP         0.7670
     27 N6         -2.0932    5.3066   -2.4528 N.pl3     1 ATP        -0.9491
     28 N1         -0.5892    3.7853   -3.5223 N.ar      1 ATP        -0.7474
     29 C2          0.3427    2.8040   -3.3648 C.ar      1 ATP         0.7118
     30 N3          0.8012    2.2709   -2.2093 N.ar      1 ATP        -0.6661
     31 C4          0.2307    2.8167   -1.1312 C.ar      1 ATP         0.6308
     32 HOG2        1.6159   -7.8091   -6.3875 H         1 ATP         0.4930
     33 HOG3        0.0219   -6.1456   -8.0251 H         1 ATP         0.4930
     34 HOB2       -1.8597   -4.3495   -4.0408 H         1 ATP         0.4808
     35 H5'1        2.5581    0.5235   -2.5966 H         1 ATP         0.0350
     36 H5'2        1.1974   -0.4370   -1.9607 H         1 ATP         0.0350
     37 H4'         3.8050   -0.1388   -0.4008 H         1 ATP         0.1244
     38 H3'         1.6784   -1.7629    0.2714 H         1 ATP         0.0924
     39 HO3'        2.2232   -1.2979    2.3953 H         1 ATP         0.4379
     40 H2'        -0.0011    0.0027    0.0003 H         1 ATP         0.0849
     41 HO2'       -0.6141    0.5574    2.1082 H         1 ATP         0.4417
     42 H1'         1.7826    1.9024    1.6451 H         1 ATP         0.1307
     43 H8         -0.4040    3.3373    1.9373 H         1 ATP         0.2875
     44 HN61       -2.5133    5.6366   -1.6073 H         1 ATP         0.4559
     45 HN62       -2.4153    5.6161   -3.3477 H         1 ATP         0.4559
     46 H2          0.7668    2.4032   -4.2782 H         1 ATP         0.0858
     47 H47        -1.7549    4.8194    0.4122 H         1 ATP         0.5042
@<TRIPOS>BOND
     1    1    2 2
     2    1    3 1
     3    1    4 1
     4    1    8 1
     5    3   32 1
     6    4   33 1
     7    5    6 2
     8    5    7 1
     9    5    8 1
    10    5   12 1
    11    7   34 1
    12    9   10 2
    13    9   11 1
    14    9   12 1
    15    9   13 1
    16   13   14 1
    17   14   15 1
    18   14   35 1
    19   14   36 1
    20   15   16 1
    21   15   17 1
    22   15   37 1
    23   16   21 1
    24   17   18 1
    25   17   19 1
    26   17   38 1
    27   18   39 1
    28   19   20 1
    29   19   21 1
    30   19   40 1
    31   20   41 1
    32   21   22 1
    33   21   42 1
    34   22   23 ar
    35   22   31 ar
    36   23   24 ar
    37   23   43 1
    38   24   25 ar
    39   24   47 1
    40   25   26 ar
    41   25   31 ar
    42   26   27 1
    43   26   28 ar
    44   27   44 1
    45   27   45 1
    46   28   29 ar
    47   29   30 ar
    48   29   46 1
    49   30   31 ar
@<TRIPOS>SUBSTRUCTURE
     1 ATP         1 GROUP 0 A     ****
@<TRIPOS>MOLECULE
[5-(6-amino-7,8-dihydropurin-8-ylium-9-yl)-3,4-dihydroxy-tetrahydrofuran-2-yl]methyl [hydroxy(phosphonooxy)phosphoryl] phosphate
   47    49     1     0     0
SMALL
USER_CHARGES

@<TRIPOS>ATOM
      1 PG          1.8491   -5.9623    6.3404 P.3       1 ATP         1.8237
      2 O1G         0.6878   -5.0895    6.7146 O.2       1 ATP        -0.8455
      3 O2G         3.0978   -5.1776    5.6774 O.3       1 ATP        -0.7970
      4 O3G         2.5309   -6.7493    7.5777 O.3       1 ATP        -0.7970
      5 PB          0.9785   -7.0563    3.7568 P.3       1 ATP         1.9358
      6 O1B         1.8392   -6.2879    2.7980 O.2       1 ATP        -0.8836
      7 O2B         0.7400   -8.6077    3.3702 O.3       1 ATP        -0.8065
      8 O3B         1.5299   -7.1303    5.2727 O.3       1 ATP        -0.8233
      9 PA         -1.7212   -6.2752    2.8479 P.3       1 ATP         1.5686
     10 O1A        -2.8747   -5.5667    3.5244 O.co2     1 ATP        -0.8169
     11 O2A        -1.9369   -7.5858    2.1227 O.co2     1 ATP        -0.8169
     12 O3A        -0.5207   -6.4812    3.9336 O.3       1 ATP        -0.7987
     13 O5'        -0.9729   -5.2427    1.8237 O.3       1 ATP        -0.5693
     14 C5'        -0.7840   -3.8935    2.2172 C.3       1 ATP         0.1841
     15 C4'        -0.0724   -3.1466    1.1027 C.3       1 ATP         0.0904
     16 O4'        -0.8674   -3.1929   -0.0945 O.3       1 ATP        -0.4083
     17 C3'         0.1338   -1.6715    1.4027 C.3       1 ATP         0.0826
     18 O3'         1.2893   -1.4445    2.1808 O.3       1 ATP        -0.6106
     19 C2'         0.2158   -1.0724    0.0128 C.3       1 ATP         0.1294
     20 O2'         1.5141   -1.2448   -0.5513 O.3       1 ATP        -0.5701
     21 C1'        -0.7897   -1.9176   -0.7583 C.3       1 ATP         0.3967
     22 N9         -2.1040   -1.3333   -0.7704 N.pl3     1 ATP        -0.5600
     23 C8         -2.6611   -0.5376    0.1306 C.ar      1 ATP         0.3009
     24 N7         -3.9008   -0.1619   -0.1787 N.pl3     1 ATP        -0.5113
     25 C5         -4.1527   -0.7619   -1.3633 C.ar      1 ATP        -0.2824
     26 C6         -5.2376   -0.7682   -2.1896 C.ar      1 ATP         0.7670
     27 N6         -6.3842   -0.0312   -1.8286 N.pl3     1 ATP        -0.9491
     28 N1         -5.2214   -1.4713   -3.3433 N.ar      1 ATP        -0.7474
     29 C2         -4.0737   -2.1541   -3.6127 C.ar      1 ATP         0.7118
     30 N3         -2.9476   -2.2143   -2.8660 N.ar      1 ATP        -0.6661
     31 C4         -3.0383   -1.4958   -1.7429 C.ar      1 ATP         0.6308
     32 HOG2        2.9567   -4.6789    4.8446 H         1 ATP         0.4930
     33 HOG3        1.9844   -7.3726    8.1023 H         1 ATP         0.4930
     34 HOB2        0.3083   -8.8234    2.5162 H         1 ATP         0.4808
     35 H5'1       -1.7613   -3.4427    2.4167 H         1 ATP         0.0350
     36 H5'2       -0.1870   -3.8723    3.1344 H         1 ATP         0.0350
     37 H4'         0.8886   -3.6447    0.8779 H         1 ATP         0.1244
     38 H3'        -0.7373   -1.2359    1.9870 H         1 ATP         0.0924
     39 HO3'        1.1626   -1.9325    3.0084 H         1 ATP         0.4379
     40 H2'        -0.0384   -0.0310    0.0096 H         1 ATP         0.0849
     41 HO2'        2.1463   -0.7958    0.0370 H         1 ATP         0.4417
     42 H1'        -0.4769   -2.1002   -1.8093 H         1 ATP         0.1307
     43 H8         -2.1661   -0.2178    1.0311 H         1 ATP         0.2875
     44 HN61       -6.4010    0.4463   -0.9500 H         1 ATP         0.4559
     45 HN62       -7.1957   -0.0744   -2.4116 H         1 ATP         0.4559
     46 H2         -4.0645   -2.7171   -4.5389 H         1 ATP         0.0858
     47 H47        -4.5050    0.4395    0.3640 H         1 ATP         0.5042
@<TRIPOS>BOND
     1    1    2 2
     2    1    3 1
     3    1    4 1
     4    1    8 1
     5    3   32 1
     6    4   33 1
     7    5    6 2
     8    5    7 1
     9    5    8 1
    10    5   12 1
    11    7   34 1
    12    9   10 2
    13    9   11 1
    14    9   12 1
    15    9   13 1
    16   13   14 1
    17   14   15 1
    18   14   35 1
    19   14   36 1
    20   15   16 1
    21   15   17 1
    22   15   37 1
    23   16   21 1
    24   17   18 1
    25   17   19 1
    26   17   38 1
    27   18   39 1
    28   19   20 1
    29   19   21 1
    30   19   40 1
    31   20   41 1
    32   21   22 1
    33   21   42 1
    34   22   23 ar
    35   22   31 ar
    36   23   24 ar
    37   23   43 1
    38   24   25 ar
    39   24   47 1
    40   25   26 ar
    41   25   31 ar
    42   26   27 1
    43   26   28 ar
    44   27   44 1
    45   27   45 1
    46   28   29 ar
    47   29   30 ar
    48   29   46 1
    49   30   31 ar
@<TRIPOS>SUBSTRUCTURE
     1 ATP         1 GROUP 0 A     ****
@<TRIPOS>MOLECULE
[5-(6-amino-7,8-dihydropurin-8-ylium-9-yl)-3,4-dihydroxy-tetrahydrofuran-2-yl]methyl [hydroxy(phosphonooxy)phosphoryl] phosphate
   47    49     1     0     0
SMALL
USER_CHARGES

@<TRIPOS>ATOM
      1 PG         -2.2284   -2.9038   -2.9458 P.3       1 ATP         1.8237
      2 O1G        -2.0672   -1.6158   -3.6978 O.2       1 ATP        -0.8455
      3 O2G        -2.4522   -2.7330   -1.3536 O.3       1 ATP        -0.7970
      4 O3G        -3.4990   -3.7967   -3.3970 O.3       1 ATP        -0.7970
      5 PB          0.5605   -3.7625   -2.6078 P.3       1 ATP         1.9358
      6 O1B         0.7905   -3.4761   -1.1533 O.2       1 ATP        -0.8836
      7 O2B         1.2509   -5.1175   -3.1560 O.3       1 ATP        -0.8065
      8 O3B        -0.9857   -3.9297   -3.0424 O.3       1 ATP        -0.8233
      9 PA          2.6176   -2.0495   -3.8562 P.3       1 ATP         1.5686
     10 O1A         2.5475   -0.8911   -4.8275 O.co2     1 ATP        -0.8169
     11 O2A         3.5417   -3.2199   -4.1138 O.co2     1 ATP        -0.8169
     12 O3A         1.1108   -2.6284   -3.6180 O.3       1 ATP        -0.7987
     13 O5'         2.9201   -1.4821   -2.3524 O.3       1 ATP        -0.5693
     14 C5'         2.2816   -0.2918   -1.9206 C.3       1 ATP         0.1841
     15 C4'         2.7248    0.0226   -0.4980 C.3       1 ATP         0.0904
     16 O4'         2.4697    1.4219   -0.2462 O.3       1 ATP        -0.4083
     17 C3'         1.9404   -0.7419    0.5596 C.3       1 ATP         0.0826
     18 O3'         2.7418   -0.8086    1.7389 O.3       1 ATP        -0.6106
     19 C2'         0.7477    0.1630    0.7858 C.3       1 ATP         0.1294
     20 O2'         0.1373   -0.0577    2.0407 O.3       1 ATP        -0.5701
     21 C1'         1.3733    1.5427    0.6747 C.3       1 ATP         0.3967
     22 N9          0.4520    2.5240    0.1767 N.pl3     1 ATP        -0.5600
     23 C8          0.0623    3.6542    0.7479 C.ar      1 ATP         0.3009
     24 N7         -0.8074    4.3516    0.0193 N.pl3     1 ATP        -0.5113
     25 C5         -0.9855    3.6123   -1.0979 C.ar      1 ATP        -0.2824
     26 C6         -1.7474    3.7860   -2.2156 C.ar      1 ATP         0.7670
     27 N6         -2.5511    4.9389   -2.3303 N.pl3     1 ATP        -0.9491
     28 N1         -1.7375    2.8675   -3.2064 N.ar      1 ATP        -0.7474
     29 C2         -0.9330    1.7853   -3.0121 C.ar      1 ATP         0.7118
     30 N3         -0.1423    1.5179   -1.9478 N.ar      1 ATP        -0.6661
     31 C4         -0.2044    2.4690   -1.0113 C.ar      1 ATP         0.6308
     32 HOG2       -1.7593   -2.2863   -0.8222 H         1 ATP         0.4930
     33 HOG3       -4.3992   -3.4149   -3.3177 H         1 ATP         0.4930
     34 HOB2        2.2257   -5.2109   -3.0982 H         1 ATP         0.4808
     35 H5'1        2.5581    0.5235   -2.5966 H         1 ATP         0.0350
     36 H5'2        1.1974   -0.4370   -1.9607 H         1 ATP         0.0350
     37 H4'         3.8050   -0.1388   -0.4008 H         1 ATP         0.1244
     38 H3'         1.6784   -1.7629    0.2714 H         1 ATP         0.0924
     39 HO3'        2.2232   -1.2979    2.3953 H         1 ATP         0.4379
     40 H2'        -0.0011    0.0027    0.0003 H         1 ATP         0.0849
     41 HO2'       -0.1563   -0.9855    2.0596 H         1 ATP         0.4417
     42 H1'         1.7826    1.9024    1.6451 H         1 ATP         0.1307
     43 H8          0.4111    3.9873    1.7100 H         1 ATP         0.2875
     44 HN61       -2.5859    5.5874   -1.5698 H         1 ATP         0.4559
     45 HN62       -3.1449    5.0423   -3.1284 H         1 ATP         0.4559
     46 H2         -0.9279    1.0504   -3.8088 H         1 ATP         0.0858
     47 H47        -1.2303    5.2364    0.2633 H         1 ATP         0.5042
@<TRIPOS>BOND
     1    1    2 2
     2    1    3 1
     3    1    4 1
     4    1    8 1
     5    3   32 1
     6    4   33 1
     7    5    6 2
     8    5    7 1
     9    5    8 1
    10    5   12 1
    11    7   34 1
    12    9   10 2
    13    9   11 1
    14    9   12 1
    15    9   13 1
    16   13   14 1
    17   14   15 1
    18   14   35 1
    19   14   36 1
    20   15   16 1
    21   15   17 1
    22   15   37 1
    23   16   21 1
    24   17   18 1
    25   17   19 1
    26   17   38 1
    27   18   39 1
    28   19   20 1
    29   19   21 1
    30   19   40 1
    31   20   41 1
    32   21   22 1
    33   21   42 1
    34   22   23 ar
    35   22   31 ar
    36   23   24 ar
    37   23   43 1
    38   24   25 ar
    39   24   47 1
    40   25   26 ar
    41   25   31 ar
    42   26   27 1
    43   26   28 ar
    44   27   44 1
    45   27   45 1
    46   28   29 ar
    47   29   30 ar
    48   29   46 1
    49   30   31 ar
@<TRIPOS>SUBSTRUCTURE
     1 ATP         1 GROUP 0 A     ****
@<TRIPOS>MOLECULE
[5-(6-amino-7,8-dihydropurin-8-ylium-9-yl)-3,4-dihydroxy-tetrahydrofuran-2-yl]methyl [hydroxy(phosphonooxy)phosphoryl] phosphate
   47    49     1     0     0
SMALL
USER_CHARGES

@<TRIPOS>ATOM
      1 PG          0.2132   -3.7814   -7.6282 P.3       1 ATP         1.8237
      2 O1G        -1.1565   -3.3342   -8.0456 O.2       1 ATP        -0.8455
      3 O2G         0.3297   -5.3529   -7.2660 O.3       1 ATP        -0.7970
      4 O3G         1.3617   -3.5814   -8.7491 O.3       1 ATP        -0.7970
      5 PB          1.1400   -1.4929   -6.0364 P.3       1 ATP         1.9358
      6 O1B         2.1322   -0.8599   -6.9666 O.2       1 ATP        -0.8836
      7 O2B        -0.3236   -0.8065   -6.0266 O.3       1 ATP        -0.8065
      8 O3B         0.8199   -3.0494   -6.3235 O.3       1 ATP        -0.8233
      9 PA          2.8591   -2.1295   -3.7203 P.3       1 ATP         1.5686
     10 O1A         4.1100   -1.4252   -4.1992 O.co2     1 ATP        -0.8169
     11 O2A         2.7453   -3.6368   -3.7902 O.co2     1 ATP        -0.8169
     12 O3A         1.5676   -1.4818   -4.4786 O.3       1 ATP        -0.7987
     13 O5'         2.5237   -1.6631   -2.1889 O.3       1 ATP        -0.5693
     14 C5'         2.2816   -0.2918   -1.9206 C.3       1 ATP         0.1841
     15 C4'         2.7248    0.0226   -0.4980 C.3       1 ATP         0.0904
     16 O4'         2.4697    1.4219   -0.2462 O.3       1 ATP        -0.4083
     17 C3'         1.9404   -0.7419    0.5596 C.3       1 ATP         0.0826
     18 O3'         2.7418   -0.8086    1.7389 O.3       1 ATP        -0.6106
     19 C2'         0.7477    0.1630    0.7858 C.3       1 ATP         0.1294
     20 O2'         0.1373   -0.0577    2.0407 O.3       1 ATP        -0.5701
     21 C1'         1.3733    1.5427    0.6747 C.3       1 ATP         0.3967
     22 N9          0.4520    2.5240    0.1767 N.pl3     1 ATP        -0.5600
     23 C8         -0.5899    2.3466   -0.6224 C.ar      1 ATP         0.3009
     24 N7         -1.2514    3.4689   -0.8989 N.pl3     1 ATP        -0.5113
     25 C5         -0.5826    4.4323   -0.2272 C.ar      1 ATP        -0.2824
     26 C6         -0.7636    5.7789   -0.1086 C.ar      1 ATP         0.7670
     27 N6         -1.8382    6.3927   -0.7843 N.pl3     1 ATP        -0.9491
     28 N1          0.0741    6.5233    0.6461 N.ar      1 ATP        -0.7474
     29 C2          1.0845    5.8486    1.2626 C.ar      1 ATP         0.7118
     30 N3          1.3516    4.5236    1.2116 N.ar      1 ATP        -0.6661
     31 C4          0.4827    3.8546    0.4481 C.ar      1 ATP         0.6308
     32 HOG2       -0.2199   -5.7142   -6.5383 H         1 ATP         0.4930
     33 HOG3        1.5484   -2.6772   -9.0807 H         1 ATP         0.4930
     34 HOB2       -0.8400   -0.7772   -6.8601 H         1 ATP         0.4808
     35 H5'1        2.8429    0.3140   -2.6391 H         1 ATP         0.0350
     36 H5'2        1.2125   -0.0906   -2.0420 H         1 ATP         0.0350
     37 H4'         3.8050   -0.1388   -0.4008 H         1 ATP         0.1244
     38 H3'         1.6784   -1.7629    0.2714 H         1 ATP         0.0924
     39 HO3'        2.2232   -1.2979    2.3953 H         1 ATP         0.4379
     40 H2'        -0.0011    0.0027    0.0003 H         1 ATP         0.0849
     41 HO2'       -0.1563   -0.9855    2.0596 H         1 ATP         0.4417
     42 H1'         1.7826    1.9024    1.6451 H         1 ATP         0.1307
     43 H8         -0.8833    1.3888   -1.0158 H         1 ATP         0.2875
     44 HN61       -1.9982    7.3720   -0.6591 H         1 ATP         0.4559
     45 HN62       -2.4782    5.8240   -1.3014 H         1 ATP         0.4559
     46 H2          1.7546    6.4491    1.8670 H         1 ATP         0.0858
     47 H47        -2.0705    3.5612   -1.4834 H         1 ATP         0.5042
@<TRIPOS>BOND
     1    1    2 2
     2    1    3 1
     3    1    4 1
     4    1    8 1
     5    3   32 1
     6    4   33 1
     7    5    6 2
     8    5    7 1
     9    5    8 1
    10    5   12 1
    11    7   34 1
    12    9   10 2
    13    9   11 1
    14    9   12 1
    15    9   13 1
    16   13   14 1
    17   14   15 1
    18   14   35 1
    19   14   36 1
    20   15   16 1
    21   15   17 1
    22   15   37 1
    23   16   21 1
    24   17   18 1
    25   17   19 1
    26   17   38 1
    27   18   39 1
    28   19   20 1
    29   19   21 1
    30   19   40 1
    31   20   41 1
    32   21   22 1
    33   21   42 1
    34   22   23 ar
    35   22   31 ar
    36   23   24 ar
    37   23   43 1
    38   24   25 ar
    39   24   47 1
    40   25   26 ar
    41   25   31 ar
    42   26   27 1
    43   26   28 ar
    44   27   44 1
    45   27   45 1
    46   28   29 ar
    47   29   30 ar
    48   29   46 1
    49   30   31 ar
@<TRIPOS>SUBSTRUCTURE
     1 ATP         1 GROUP 0 A     ****
@<TRIPOS>MOLECULE
[5-(6-amino-7,8-dihydropurin-8-ylium-9-yl)-3,4-dihydroxy-tetrahydrofuran-2-yl]methyl [hydroxy(phosphonooxy)phosphoryl] phosphate
   47    49     1     0     0
SMALL
USER_CHARGES

@<TRIPOS>ATOM
      1 PG          1.7408   -0.4514   -8.2988 P.3       1 ATP         1.8237
      2 O1G         1.7832   -1.5727   -9.2944 O.2       1 ATP        -0.8455
      3 O2G         2.7330    0.7822   -8.6279 O.3       1 ATP        -0.7970
      4 O3G         0.3010    0.2702   -8.1526 O.3       1 ATP        -0.7970
      5 PB          3.4815   -1.4701   -6.1628 P.3       1 ATP         1.9358
      6 O1B         3.8842   -2.8064   -6.7129 O.2       1 ATP        -0.8836
      7 O2B         4.5643   -0.2885   -6.3740 O.3       1 ATP        -0.8065
      8 O3B         2.1258   -0.8486   -6.7821 O.3       1 ATP        -0.8233
      9 PA          2.1361   -2.2694   -3.6576 P.3       1 ATP         1.5686
     10 O1A         2.4847   -3.7413   -3.7034 O.co2     1 ATP        -0.8169
     11 O2A         0.7444   -1.7928   -4.0127 O.co2     1 ATP        -0.8169
     12 O3A         3.2088   -1.4460   -4.5707 O.3       1 ATP        -0.7987
     13 O5'         2.5237   -1.6631   -2.1889 O.3       1 ATP        -0.5693
     14 C5'         2.2816   -0.2918   -1.9206 C.3       1 ATP         0.1841
     15 C4'         2.7248    0.0226   -0.4980 C.3       1 ATP         0.0904
     16 O4'         2.4697    1.4219   -0.2462 O.3       1 ATP        -0.4083
     17 C3'         1.9404   -0.7419    0.5596 C.3       1 ATP         0.0826
     18 O3'         2.7418   -0.8086    1.7389 O.3       1 ATP        -0.6106
     19 C2'         0.7477    0.1630    0.7858 C.3       1 ATP         0.1294
     20 O2'         0.1373   -0.0577    2.0407 O.3       1 ATP        -0.5701
     21 C1'         1.3733    1.5427    0.6747 C.3       1 ATP         0.3967
     22 N9          0.4520    2.5240    0.1767 N.pl3     1 ATP        -0.5600
     23 C8         -0.3477    3.3274    0.8626 C.ar      1 ATP         0.3009
     24 N7         -1.0836    4.1323    0.0983 N.pl3     1 ATP        -0.5113
     25 C5         -0.7273    3.8194   -1.1674 C.ar      1 ATP        -0.2824
     26 C6         -1.1208    4.2877   -2.3863 C.ar      1 ATP         0.7670
     27 N6         -2.0932    5.3066   -2.4528 N.pl3     1 ATP        -0.9491
     28 N1         -0.5892    3.7853   -3.5223 N.ar      1 ATP        -0.7474
     29 C2          0.3427    2.8040   -3.3648 C.ar      1 ATP         0.7118
     30 N3          0.8012    2.2709   -2.2093 N.ar      1 ATP        -0.6661
     31 C4          0.2307    2.8167   -1.1312 C.ar      1 ATP         0.6308
     32 HOG2        2.7552    1.5493   -8.0170 H         1 ATP         0.4930
     33 HOG3       -0.4714   -0.2650   -7.8710 H         1 ATP         0.4930
     34 HOB2        4.8285   -0.0440   -7.2865 H         1 ATP         0.4808
     35 H5'1        2.8429    0.3140   -2.6391 H         1 ATP         0.0350
     36 H5'2        1.2125   -0.0906   -2.0420 H         1 ATP         0.0350
     37 H4'         3.8050   -0.1388   -0.4008 H         1 ATP         0.1244
     38 H3'         1.6784   -1.7629    0.2714 H         1 ATP         0.0924
     39 HO3'        2.2232   -1.2979    2.3953 H         1 ATP         0.4379
     40 H2'        -0.0011    0.0027    0.0003 H         1 ATP         0.0849
     41 HO2'       -0.6141    0.5574    2.1082 H         1 ATP         0.4417
     42 H1'         1.7826    1.9024    1.6451 H         1 ATP         0.1307
     43 H8         -0.4040    3.3373    1.9373 H         1 ATP         0.2875
     44 HN61       -2.5133    5.6366   -1.6073 H         1 ATP         0.4559
     45 HN62       -2.4153    5.6161   -3.3477 H         1 ATP         0.4559
     46 H2          0.7668    2.4032   -4.2782 H         1 ATP         0.0858
     47 H47        -1.7549    4.8194    0.4122 H         1 ATP         0.5042
@<TRIPOS>BOND
     1    1    2 2
     2    1    3 1
     3    1    4 1
     4    1    8 1
     5    3   32 1
     6    4   33 1
     7    5    6 2
     8    5    7 1
     9    5    8 1
    10    5   12 1
    11    7   34 1
    12    9   10 2
    13    9   11 1
    14    9   12 1
    15    9   13 1
    16   13   14 1
    17   14   15 1
    18   14   35 1
    19   14   36 1
    20   15   16 1
    21   15   17 1
    22   15   37 1
    23   16   21 1
    24   17   18 1
    25   17   19 1
    26   17   38 1
    27   18   39 1
    28   19   20 1
    29   19   21 1
    30   19   40 1
    31   20   41 1
    32   21   22 1
    33   21   42 1
    34   22   23 ar
    35   22   31 ar
    36   23   24 ar
    37   23   43 1
    38   24   25 ar
    39   24   47 1
    40   25   26 ar
    41   25   31 ar
    42   26   27 1
    43   26   28 ar
    44   27   44 1
    45   27   45 1
    46   28   29 ar
    47   29   30 ar
    48   29   46 1
    49   30   31 ar
@<TRIPOS>SUBSTRUCTURE
     1 ATP         1 GROUP 0 A     ****
@<TRIPOS>MOLECULE
[5-(6-amino-7,8-dihydropurin-8-ylium-9-yl)-3,4-dihydroxy-tetrahydrofuran-2-yl]methyl [hydroxy(phosphonooxy)phosphoryl] phosphate
   47    49     1     0     0
SMALL
USER_CHARGES

@<TRIPOS>ATOM
      1 PG         -1.6187   -0.7712   -5.4944 P.3       1 ATP         1.8237
      2 O1G        -2.4228   -0.1217   -4.4071 O.2       1 ATP        -0.8455
      3 O2G        -2.4198   -1.0049   -6.8793 O.3       1 ATP        -0.7970
      4 O3G        -0.3167    0.0646   -5.9651 O.3       1 ATP        -0.7970
      5 PB         -0.0224   -2.7222   -3.9858 P.3       1 ATP         1.9358
      6 O1B        -0.4970   -2.4808   -2.5833 O.2       1 ATP        -0.8836
      7 O2B         0.2552   -4.2707   -4.3575 O.3       1 ATP        -0.8065
      8 O3B        -1.0304   -2.2344   -5.1494 O.3       1 ATP        -0.8233
      9 PA          2.8591   -2.1295   -3.7203 P.3       1 ATP         1.5686
     10 O1A         3.7685   -1.1094   -4.3702 O.co2     1 ATP        -0.8169
     11 O2A         3.2339   -3.5954   -3.6958 O.co2     1 ATP        -0.8169
     12 O3A         1.3673   -1.9921   -4.3670 O.3       1 ATP        -0.7987
     13 O5'         2.5237   -1.6631   -2.1889 O.3       1 ATP        -0.5693
     14 C5'         2.2816   -0.2918   -1.9206 C.3       1 ATP         0.1841
     15 C4'         2.7248    0.0226   -0.4980 C.3       1 ATP         0.0904
     16 O4'         2.4697    1.4219   -0.2462 O.3       1 ATP        -0.4083
     17 C3'         1.9404   -0.7419    0.5596 C.3       1 ATP         0.0826
     18 O3'         2.7418   -0.8086    1.7389 O.3       1 ATP        -0.6106
     19 C2'         0.7477    0.1630    0.7858 C.3       1 ATP         0.1294
     20 O2'         0.1373   -0.0577    2.0407 O.3       1 ATP        -0.5701
     21 C1'         1.3733    1.5427    0.6747 C.3       1 ATP         0.3967
     22 N9          0.4520    2.5240    0.1767 N.pl3     1 ATP        -0.5600
     23 C8         -0.8252    2.3702   -0.1405 C.ar      1 ATP         0.3009
     24 N7         -1.4086    3.4861   -0.5739 N.pl3     1 ATP        -0.5113
     25 C5         -0.4324    4.4197   -0.5299 C.ar      1 ATP        -0.2824
     26 C6         -0.4006    5.7465   -0.8439 C.ar      1 ATP         0.7670
     27 N6         -1.5714    6.3708   -1.3211 N.pl3     1 ATP        -0.9491
     28 N1          0.7370    6.4615   -0.7020 N.ar      1 ATP        -0.7474
     29 C2          1.8196    5.7785   -0.2355 C.ar      1 ATP         0.7118
     30 N3          1.8948    4.4713    0.1036 N.ar      1 ATP        -0.6661
     31 C4          0.7337    3.8311   -0.0629 C.ar      1 ATP         0.6308
     32 HOG2       -3.2237   -1.5670   -6.8735 H         1 ATP         0.4930
     33 HOG3        0.3810    0.2666   -5.3057 H         1 ATP         0.4930
     34 HOB2        0.9258   -4.7695   -3.8440 H         1 ATP         0.4808
     35 H5'1        2.8429    0.3140   -2.6391 H         1 ATP         0.0350
     36 H5'2        1.2125   -0.0906   -2.0420 H         1 ATP         0.0350
     37 H4'         3.8050   -0.1388   -0.4008 H         1 ATP         0.1244
     38 H3'         1.6784   -1.7629    0.2714 H         1 ATP         0.0924
     39 HO3'        2.2232   -1.2979    2.3953 H         1 ATP         0.4379
     40 H2'        -0.0011    0.0027    0.0003 H         1 ATP         0.0849
     41 HO2'       -0.1563   -0.9855    2.0596 H         1 ATP         0.4417
     42 H1'         1.7826    1.9024    1.6451 H         1 ATP         0.1307
     43 H8         -1.3516    1.4351   -0.0582 H         1 ATP         0.2875
     44 HN61       -2.3936    5.8204   -1.4664 H         1 ATP         0.4559
     45 HN62       -1.5348    7.3319   -1.5955 H         1 ATP         0.4559
     46 H2          2.7305    6.3553   -0.1232 H         1 ATP         0.0858
     47 H47        -2.3700    3.5931   -0.8665 H         1 ATP         0.5042
@<TRIPOS>BOND
     1    1    2 2
     2    1    3 1
     3    1    4 1
     4    1    8 1
     5    3   32 1
     6    4   33 1
     7    5    6 2
     8    5    7 1
     9    5    8 1
    10    5   12 1
    11    7   34 1
    12    9   10 2
    13    9   11 1
    14    9   12 1
    15    9   13 1
    16   13   14 1
    17   14   15 1
    18   14   35 1
    19   14   36 1
    20   15   16 1
    21   15   17 1
    22   15   37 1
    23   16   21 1
    24   17   18 1
    25   17   19 1
    26   17   38 1
    27   18   39 1
    28   19   20 1
    29   19   21 1
    30   19   40 1
    31   20   41 1
    32   21   22 1
    33   21   42 1
    34   22   23 ar
    35   22   31 ar
    36   23   24 ar
    37   23   43 1
    38   24   25 ar
    39   24   47 1
    40   25   26 ar
    41   25   31 ar
    42   26   27 1
    43   26   28 ar
    44   27   44 1
    45   27   45 1
    46   28   29 ar
    47   29   30 ar
    48   29   46 1
    49   30   31 ar
@<TRIPOS>SUBSTRUCTURE
     1 ATP         1 GROUP 0 A     ****
@<TRIPOS>MOLECULE
[5-(6-amino-7,8-dihydropurin-8-ylium-9-yl)-3,4-dihydroxy-tetrahydrofuran-2-yl]methyl [hydroxy(phosphonooxy)phosphoryl] phosphate
   47    49     1     0     0
SMALL
USER_CHARGES

@<TRIPOS>ATOM
      1 PG          1.1176    1.5280   -6.2420 P.3       1 ATP         1.8237
      2 O1G        -0.3013    2.0149   -6.2408 O.2       1 ATP        -0.8455
      3 O2G         2.0900    2.2827   -7.2905 O.3       1 ATP        -0.7970
      4 O3G         1.8951    1.7039   -4.8349 O.3       1 ATP        -0.7970
      5 PB          0.7667   -1.3652   -5.8728 P.3       1 ATP         1.9358
      6 O1B        -0.7271   -1.4811   -5.7978 O.2       1 ATP        -0.8836
      7 O2B         1.5068   -2.5605   -6.6708 O.3       1 ATP        -0.8065
      8 O3B         1.3203   -0.0334   -6.5989 O.3       1 ATP        -0.8233
      9 PA          1.5535   -2.4535   -3.2419 P.3       1 ATP         1.5686
     10 O1A         2.2581   -3.6962   -3.7414 O.co2     1 ATP        -0.8169
     11 O2A         0.1699   -2.5402   -2.6352 O.co2     1 ATP        -0.8169
     12 O3A         1.5187   -1.3497   -4.4431 O.3       1 ATP        -0.7987
     13 O5'         2.5237   -1.6631   -2.1889 O.3       1 ATP        -0.5693
     14 C5'         2.2816   -0.2918   -1.9206 C.3       1 ATP         0.1841
     15 C4'         2.7248    0.0226   -0.4980 C.3       1 ATP         0.0904
     16 O4'         2.4697    1.4219   -0.2462 O.3       1 ATP        -0.4083
     17 C3'         1.9404   -0.7419    0.5596 C.3       1 ATP         0.0826
     18 O3'         2.7418   -0.8086    1.7389 O.3       1 ATP        -0.6106
     19 C2'         0.7477    0.1630    0.7858 C.3       1 ATP         0.1294
     20 O2'         0.1373   -0.0577    2.0407 O.3       1 ATP        -0.5701
     21 C1'         1.3733    1.5427    0.6747 C.3       1 ATP         0.3967
     22 N9          0.4520    2.5240    0.1767 N.pl3     1 ATP        -0.5600
     23 C8         -0.5899    2.3466   -0.6224 C.ar      1 ATP         0.3009
     24 N7         -1.2514    3.4689   -0.8989 N.pl3     1 ATP        -0.5113
     25 C5         -0.5826    4.4323   -0.2272 C.ar      1 ATP        -0.2824
     26 C6         -0.7636    5.7789   -0.1086 C.ar      1 ATP         0.7670
     27 N6         -1.8382    6.3927   -0.7843 N.pl3     1 ATP        -0.9491
     28 N1          0.0741    6.5233    0.6461 N.ar      1 ATP        -0.7474
     29 C2          1.0845    5.8486    1.2626 C.ar      1 ATP         0.7118
     30 N3          1.3516    4.5236    1.2116 N.ar      1 ATP        -0.6661
     31 C4          0.4827    3.8546    0.4481 C.ar      1 ATP         0.6308
     32 HOG2        1.8747    2.2482   -8.2468 H         1 ATP         0.4930
     33 HOG3        1.5398    1.2562   -4.0376 H         1 ATP         0.4930
     34 HOB2        1.4059   -3.4811   -6.3475 H         1 ATP         0.4808
     35 H5'1        2.8429    0.3140   -2.6391 H         1 ATP         0.0350
     36 H5'2        1.2125   -0.0906   -2.0420 H         1 ATP         0.0350
     37 H4'         3.8050   -0.1388   -0.4008 H         1 ATP         0.1244
     38 H3'         1.6784   -1.7629    0.2714 H         1 ATP         0.0924
     39 HO3'        2.2232   -1.2979    2.3953 H         1 ATP         0.4379
     40 H2'        -0.0011    0.0027    0.0003 H         1 ATP         0.0849
     41 HO2'       -0.1563   -0.9855    2.0596 H         1 ATP         0.4417
     42 H1'         1.7826    1.9024    1.6451 H         1 ATP         0.1307
     43 H8         -0.8833    1.3888   -1.0158 H         1 ATP         0.2875
     44 HN61       -1.9982    7.3720   -0.6591 H         1 ATP         0.4559
     45 HN62       -2.4782    5.8240   -1.3014 H         1 ATP         0.4559
     46 H2          1.7546    6.4491    1.8670 H         1 ATP         0.0858
     47 H47        -2.0705    3.5612   -1.4834 H         1 ATP         0.5042
@<TRIPOS>BOND
     1    1    2 2
     2    1    3 1
     3    1    4 1
     4    1    8 1
     5    3   32 1
     6    4   33 1
     7    5    6 2
     8    5    7 1
     9    5    8 1
    10    5   12 1
    11    7   34 1
    12    9   10 2
    13    9   11 1
    14    9   12 1
    15    9   13 1
    16   13   14 1
    17   14   15 1
    18   14   35 1
    19   14   36 1
    20   15   16 1
    21   15   17 1
    22   15   37 1
    23   16   21 1
    24   17   18 1
    25   17   19 1
    26   17   38 1
    27   18   39 1
    28   19   20 1
    29   19   21 1
    30   19   40 1
    31   20   41 1
    32   21   22 1
    33   21   42 1
    34   22   23 ar
    35   22   31 ar
    36   23   24 ar
    37   23   43 1
    38   24   25 ar
    39   24   47 1
    40   25   26 ar
    41   25   31 ar
    42   26   27 1
    43   26   28 ar
    44   27   44 1
    45   27   45 1
    46   28   29 ar
    47   29   30 ar
    48   29   46 1
    49   30   31 ar
@<TRIPOS>SUBSTRUCTURE
     1 ATP         1 GROUP 0 A     ****
@<TRIPOS>MOLECULE
[5-(6-amino-7,8-dihydropurin-8-ylium-9-yl)-3,4-dihydroxy-tetrahydrofuran-2-yl]methyl [hydroxy(phosphonooxy)phosphoryl] phosphate
   47    49     1     0     0
SMALL
USER_CHARGES

@<TRIPOS>ATOM
      1 PG          6.6905   -3.5488   -5.2768 P.3       1 ATP         1.8237
      2 O1G         7.6667   -3.5199   -4.1382 O.2       1 ATP        -0.8455
      3 O2G         7.1791   -2.7678   -6.6057 O.3       1 ATP        -0.7970
      4 O3G         6.3417   -5.0270   -5.8324 O.3       1 ATP        -0.7970
      5 PB          4.8233   -1.4074   -4.5299 P.3       1 ATP         1.9358
      6 O1B         5.4096   -0.9343   -3.2326 O.2       1 ATP        -0.8836
      7 O2B         5.2081   -0.5141   -5.8210 O.3       1 ATP        -0.8065
      8 O3B         5.2427   -2.9027   -4.9725 O.3       1 ATP        -0.8233
      9 PA          2.1361   -2.2694   -3.6576 P.3       1 ATP         1.5686
     10 O1A         2.4847   -3.7413   -3.7034 O.co2     1 ATP        -0.8169
     11 O2A         0.7444   -1.7928   -4.0127 O.co2     1 ATP        -0.8169
     12 O3A         3.2088   -1.4460   -4.5707 O.3       1 ATP        -0.7987
     13 O5'         2.5237   -1.6631   -2.1889 O.3       1 ATP        -0.5693
     14 C5'         2.2816   -0.2918   -1.9206 C.3       1 ATP         0.1841
     15 C4'         2.7248    0.0226   -0.4980 C.3       1 ATP         0.0904
     16 O4'         2.4697    1.4219   -0.2462 O.3       1 ATP        -0.4083
     17 C3'         1.9404   -0.7419    0.5596 C.3       1 ATP         0.0826
     18 O3'         2.7418   -0.8086    1.7389 O.3       1 ATP        -0.6106
     19 C2'         0.7477    0.1630    0.7858 C.3       1 ATP         0.1294
     20 O2'         0.1373   -0.0577    2.0407 O.3       1 ATP        -0.5701
     21 C1'         1.3733    1.5427    0.6747 C.3       1 ATP         0.3967
     22 N9          0.4520    2.5240    0.1767 N.pl3     1 ATP        -0.5600
     23 C8         -0.3477    3.3274    0.8626 C.ar      1 ATP         0.3009
     24 N7         -1.0836    4.1323    0.0983 N.pl3     1 ATP        -0.5113
     25 C5         -0.7273    3.8194   -1.1674 C.ar      1 ATP        -0.2824
     26 C6         -1.1208    4.2877   -2.3863 C.ar      1 ATP         0.7670
     27 N6         -2.0932    5.3066   -2.4528 N.pl3     1 ATP        -0.9491
     28 N1         -0.5892    3.7853   -3.5223 N.ar      1 ATP        -0.7474
     29 C2          0.3427    2.8040   -3.3648 C.ar      1 ATP         0.7118
     30 N3          0.8012    2.2709   -2.2093 N.ar      1 ATP        -0.6661
     31 C4          0.2307    2.8167   -1.1312 C.ar      1 ATP         0.6308
     32 HOG2        6.5883   -2.7475   -7.3884 H         1 ATP         0.4930
     33 HOG3        5.9417   -5.6814   -5.2208 H         1 ATP         0.4930
     34 HOB2        6.1527   -0.4165   -6.0666 H         1 ATP         0.4808
     35 H5'1        2.8429    0.3140   -2.6391 H         1 ATP         0.0350
     36 H5'2        1.2125   -0.0906   -2.0420 H         1 ATP         0.0350
     37 H4'         3.8050   -0.1388   -0.4008 H         1 ATP         0.1244
     38 H3'         1.6784   -1.7629    0.2714 H         1 ATP         0.0924
     39 HO3'        2.2232   -1.2979    2.3953 H         1 ATP         0.4379
     40 H2'        -0.0011    0.0027    0.0003 H         1 ATP         0.0849
     41 HO2'       -0.1563   -0.9855    2.0596 H         1 ATP         0.4417
     42 H1'         1.7826    1.9024    1.6451 H         1 ATP         0.1307
     43 H8         -0.4040    3.3373    1.9373 H         1 ATP         0.2875
     44 HN61       -2.5133    5.6366   -1.6073 H         1 ATP         0.4559
     45 HN62       -2.4153    5.6161   -3.3477 H         1 ATP         0.4559
     46 H2          0.7668    2.4032   -4.2782 H         1 ATP         0.0858
     47 H47        -1.7549    4.8194    0.4122 H         1 ATP         0.5042
@<TRIPOS>BOND
     1    1    2 2
     2    1    3 1
     3    1    4 1
     4    1    8 1
     5    3   32 1
     6    4   33 1
     7    5    6 2
     8    5    7 1
     9    5    8 1
    10    5   12 1
    11    7   34 1
    12    9   10 2
    13    9   11 1
    14    9   12 1
    15    9   13 1
    16   13   14 1
    17   14   15 1
    18   14   35 1
    19   14   36 1
    20   15   16 1
    21   15   17 1
    22   15   37 1
    23   16   21 1
    24   17   18 1
    25   17   19 1
    26   17   38 1
    27   18   39 1
    28   19   20 1
    29   19   21 1
    30   19   40 1
    31   20   41 1
    32   21   22 1
    33   21   42 1
    34   22   23 ar
    35   22   31 ar
    36   23   24 ar
    37   23   43 1
    38   24   25 ar
    39   24   47 1
    40   25   26 ar
    41   25   31 ar
    42   26   27 1
    43   26   28 ar
    44   27   44 1
    45   27   45 1
    46   28   29 ar
    47   29   30 ar
    48   29   46 1
    49   30   31 ar
@<TRIPOS>SUBSTRUCTURE
     1 ATP         1 GROUP 0 A     ****
@<TRIPOS>MOLECULE
[5-(6-amino-7,8-dihydropurin-8-ylium-9-yl)-3,4-dihydroxy-tetrahydrofuran-2-yl]methyl [hydroxy(phosphonooxy)phosphoryl] phosphate
   47    49     1     0     0
SMALL
USER_CHARGES

@<TRIPOS>ATOM
      1 PG          2.4759   -7.1935    5.4137 P.3       1 ATP         1.8237
      2 O1G         2.8106   -6.5868    4.0832 O.2       1 ATP        -0.8455
      3 O2G         2.6490   -8.7995    5.4866 O.3       1 ATP        -0.7970
      4 O3G         3.3886   -6.6742    6.6436 O.3       1 ATP        -0.7970
      5 PB         -0.4534   -7.3705    5.2805 P.3       1 ATP         1.9358
      6 O1B        -0.6580   -8.8423    5.0747 O.2       1 ATP        -0.8836
      7 O2B        -1.5318   -6.6588    6.2520 O.3       1 ATP        -0.8065
      8 O3B         0.9652   -6.9549    5.9305 O.3       1 ATP        -0.8233
      9 PA         -1.7212   -6.2752    2.8479 P.3       1 ATP         1.5686
     10 O1A        -2.8747   -5.5667    3.5244 O.co2     1 ATP        -0.8169
     11 O2A        -1.9369   -7.5858    2.1227 O.co2     1 ATP        -0.8169
     12 O3A        -0.5207   -6.4812    3.9336 O.3       1 ATP        -0.7987
     13 O5'        -0.9729   -5.2427    1.8237 O.3       1 ATP        -0.5693
     14 C5'        -0.7840   -3.8935    2.2172 C.3       1 ATP         0.1841
     15 C4'        -0.0724   -3.1466    1.1027 C.3       1 ATP         0.0904
     16 O4'        -0.8674   -3.1929   -0.0945 O.3       1 ATP        -0.4083
     17 C3'         0.1338   -1.6715    1.4027 C.3       1 ATP         0.0826
     18 O3'         1.2893   -1.4445    2.1808 O.3       1 ATP        -0.6106
     19 C2'         0.2158   -1.0724    0.0128 C.3       1 ATP         0.1294
     20 O2'         1.5141   -1.2448   -0.5513 O.3       1 ATP        -0.5701
     21 C1'        -0.7897   -1.9176   -0.7583 C.3       1 ATP         0.3967
     22 N9         -2.1040   -1.3333   -0.7704 N.pl3     1 ATP        -0.5600
     23 C8         -2.6611   -0.5376    0.1306 C.ar      1 ATP         0.3009
     24 N7         -3.9008   -0.1619   -0.1787 N.pl3     1 ATP        -0.5113
     25 C5         -4.1527   -0.7619   -1.3633 C.ar      1 ATP        -0.2824
     26 C6         -5.2376   -0.7682   -2.1896 C.ar      1 ATP         0.7670
     27 N6         -6.3842   -0.0312   -1.8286 N.pl3     1 ATP        -0.9491
     28 N1         -5.2214   -1.4713   -3.3433 N.ar      1 ATP        -0.7474
     29 C2         -4.0737   -2.1541   -3.6127 C.ar      1 ATP         0.7118
     30 N3         -2.9476   -2.2143   -2.8660 N.ar      1 ATP        -0.6661
     31 C4         -3.0383   -1.4958   -1.7429 C.ar      1 ATP         0.6308
     32 HOG2        2.1204   -9.3617    4.8811 H         1 ATP         0.4930
     33 HOG3        3.3883   -5.7182    6.8637 H         1 ATP         0.4930
     34 HOB2       -2.4813   -6.6838    6.0066 H         1 ATP         0.4808
     35 H5'1       -1.7613   -3.4427    2.4167 H         1 ATP         0.0350
     36 H5'2       -0.1870   -3.8723    3.1344 H         1 ATP         0.0350
     37 H4'         0.8886   -3.6447    0.8779 H         1 ATP         0.1244
     38 H3'        -0.7373   -1.2359    1.9870 H         1 ATP         0.0924
     39 HO3'        1.3408   -0.4870    2.3219 H         1 ATP         0.4379
     40 H2'        -0.0384   -0.0310    0.0096 H         1 ATP         0.0849
     41 HO2'        2.1463   -0.7958    0.0370 H         1 ATP         0.4417
     42 H1'        -0.4769   -2.1002   -1.8093 H         1 ATP         0.1307
     43 H8         -2.1661   -0.2178    1.0311 H         1 ATP         0.2875
     44 HN61       -6.4010    0.4463   -0.9500 H         1 ATP         0.4559
     45 HN62       -7.1957   -0.0744   -2.4116 H         1 ATP         0.4559
     46 H2         -4.0645   -2.7171   -4.5389 H         1 ATP         0.0858
     47 H47        -4.5050    0.4395    0.3640 H         1 ATP         0.5042
@<TRIPOS>BOND
     1    1    2 2
     2    1    3 1
     3    1    4 1
     4    1    8 1
     5    3   32 1
     6    4   33 1
     7    5    6 2
     8    5    7 1
     9    5    8 1
    10    5   12 1
    11    7   34 1
    12    9   10 2
    13    9   11 1
    14    9   12 1
    15    9   13 1
    16   13   14 1
    17   14   15 1
    18   14   35 1
    19   14   36 1
    20   15   16 1
    21   15   17 1
    22   15   37 1
    23   16   21 1
    24   17   18 1
    25   17   19 1
    26   17   38 1
    27   18   39 1
    28   19   20 1
    29   19   21 1
    30   19   40 1
    31   20   41 1
    32   21   22 1
    33   21   42 1
    34   22   23 ar
    35   22   31 ar
    36   23   24 ar
    37   23   43 1
    38   24   25 ar
    39   24   47 1
    40   25   26 ar
    41   25   31 ar
    42   26   27 1
    43   26   28 ar
    44   27   44 1
    45   27   45 1
    46   28   29 ar
    47   29   30 ar
    48   29   46 1
    49   30   31 ar
@<TRIPOS>SUBSTRUCTURE
     1 ATP         1 GROUP 0 A     ****
@<TRIPOS>MOLECULE
[5-(6-amino-7,8-dihydropurin-8-ylium-9-yl)-3,4-dihydroxy-tetrahydrofuran-2-yl]methyl [hydroxy(phosphonooxy)phosphoryl] phosphate
   47    49     1     0     0
SMALL
USER_CHARGES

@<TRIPOS>ATOM
      1 PG          6.1401   -3.8598   -2.6928 P.3       1 ATP         1.8237
      2 O1G         6.1406   -3.8864   -1.1929 O.2       1 ATP        -0.8455
      3 O2G         7.1324   -4.9306   -3.3879 O.3       1 ATP        -0.7970
      4 O3G         4.7122   -4.1920   -3.3754 O.3       1 ATP        -0.7970
      5 PB          5.9201   -0.9835   -3.2485 P.3       1 ATP         1.9358
      6 O1B         5.8780   -0.4105   -1.8628 O.2       1 ATP        -0.8836
      7 O2B         6.7624   -0.1170   -4.3222 O.3       1 ATP        -0.8065
      8 O3B         6.5697   -2.4572   -3.3669 O.3       1 ATP        -0.8233
      9 PA          3.3322   -0.0533   -4.3265 P.3       1 ATP         1.5686
     10 O1A         2.1130   -0.7769   -4.8559 O.co2     1 ATP        -0.8169
     11 O2A         3.9798    1.0571   -5.1250 O.co2     1 ATP        -0.8169
     12 O3A         4.4780   -1.1544   -3.9562 O.3       1 ATP        -0.7987
     13 O5'         3.0197    0.5137   -2.8245 O.3       1 ATP        -0.5693
     14 C5'         2.2816   -0.2918   -1.9206 C.3       1 ATP         0.1841
     15 C4'         2.7248    0.0226   -0.4980 C.3       1 ATP         0.0904
     16 O4'         2.4697    1.4219   -0.2462 O.3       1 ATP        -0.4083
     17 C3'         1.9404   -0.7419    0.5596 C.3       1 ATP         0.0826
     18 O3'         2.7418   -0.8086    1.7389 O.3       1 ATP        -0.6106
     19 C2'         0.7477    0.1630    0.7858 C.3       1 ATP         0.1294
     20 O2'         0.1373   -0.0577    2.0407 O.3       1 ATP        -0.5701
     21 C1'         1.3733    1.5427    0.6747 C.3       1 ATP         0.3967
     22 N9          0.4520    2.5240    0.1767 N.pl3     1 ATP        -0.5600
     23 C8         -0.3477    3.3274    0.8626 C.ar      1 ATP         0.3009
     24 N7         -1.0836    4.1323    0.0983 N.pl3     1 ATP        -0.5113
     25 C5         -0.7273    3.8194   -1.1674 C.ar      1 ATP        -0.2824
     26 C6         -1.1208    4.2877   -2.3863 C.ar      1 ATP         0.7670
     27 N6         -2.0932    5.3066   -2.4528 N.pl3     1 ATP        -0.9491
     28 N1         -0.5892    3.7853   -3.5223 N.ar      1 ATP        -0.7474
     29 C2          0.3427    2.8040   -3.3648 C.ar      1 ATP         0.7118
     30 N3          0.8012    2.2709   -2.2093 N.ar      1 ATP        -0.6661
     31 C4          0.2307    2.8167   -1.1312 C.ar      1 ATP         0.6308
     32 HOG2        8.0930   -4.8818   -3.1957 H         1 ATP         0.4930
     33 HOG3        4.6427   -4.1913   -4.3540 H         1 ATP         0.4930
     34 HOB2        6.4867    0.8057   -4.5089 H         1 ATP         0.4808
     35 H5'1        1.2153   -0.0781   -2.0454 H         1 ATP         0.0350
     36 H5'2        2.4645   -1.3454   -2.1547 H         1 ATP         0.0350
     37 H4'         3.8050   -0.1388   -0.4008 H         1 ATP         0.1244
     38 H3'         1.6784   -1.7629    0.2714 H         1 ATP         0.0924
     39 HO3'        3.5554   -1.2733    1.4914 H         1 ATP         0.4379
     40 H2'        -0.0011    0.0027    0.0003 H         1 ATP         0.0849
     41 HO2'       -0.6141    0.5574    2.1082 H         1 ATP         0.4417
     42 H1'         1.7826    1.9024    1.6451 H         1 ATP         0.1307
     43 H8         -0.4040    3.3373    1.9373 H         1 ATP         0.2875
     44 HN61       -2.5133    5.6366   -1.6073 H         1 ATP         0.4559
     45 HN62       -2.4153    5.6161   -3.3477 H         1 ATP         0.4559
     46 H2          0.7668    2.4032   -4.2782 H         1 ATP         0.0858
     47 H47        -1.7549    4.8194    0.4122 H         1 ATP         0.5042
@<TRIPOS>BOND
     1    1    2 2
     2    1    3 1
     3    1    4 1
     4    1    8 1
     5    3   32 1
     6    4   33 1
     7    5    6 2
     8    5    7 1
     9    5    8 1
    10    5   12 1
    11    7   34 1
    12    9   10 2
    13    9   11 1
    14    9   12 1
    15    9   13 1
    16   13   14 1
    17   14   15 1
    18   14   35 1
    19   14   36 1
    20   15   16 1
    21   15   17 1
    22   15   37 1
    23   16   21 1
    24   17   18 1
    25   17   19 1
    26   17   38 1
    27   18   39 1
    28   19   20 1
    29   19   21 1
    30   19   40 1
    31   20   41 1
    32   21   22 1
    33   21   42 1
    34   22   23 ar
    35   22   31 ar
    36   23   24 ar
    37   23   43 1
    38   24   25 ar
    39   24   47 1
    40   25   26 ar
    41   25   31 ar
    42   26   27 1
    43   26   28 ar
    44   27   44 1
    45   27   45 1
    46   28   29 ar
    47   29   30 ar
    48   29   46 1
    49   30   31 ar
@<TRIPOS>SUBSTRUCTURE
     1 ATP         1 GROUP 0 A     ****
@<TRIPOS>MOLECULE
[5-(6-amino-7,8-dihydropurin-8-ylium-9-yl)-3,4-dihydroxy-tetrahydrofuran-2-yl]methyl [hydroxy(phosphonooxy)phosphoryl] phosphate
   47    49     1     0     0
SMALL
USER_CHARGES

@<TRIPOS>ATOM
      1 PG         -2.1199   -1.1796   -6.3859 P.3       1 ATP         1.8237
      2 O1G        -2.2078    0.0681   -7.2142 O.2       1 ATP        -0.8455
      3 O2G        -3.3290   -1.3764   -5.3305 O.3       1 ATP        -0.7970
      4 O3G        -2.1489   -2.5575   -7.2320 O.3       1 ATP        -0.7970
      5 PB          0.7667   -1.3652   -5.8728 P.3       1 ATP         1.9358
      6 O1B         1.1631   -2.4914   -6.7810 O.2       1 ATP        -0.8836
      7 O2B         1.0455    0.1160   -6.4572 O.3       1 ATP        -0.8065
      8 O3B        -0.7968   -1.3195   -5.4715 O.3       1 ATP        -0.8233
      9 PA          1.5535   -2.4535   -3.2419 P.3       1 ATP         1.5686
     10 O1A         2.2581   -3.6962   -3.7414 O.co2     1 ATP        -0.8169
     11 O2A         0.1699   -2.5402   -2.6352 O.co2     1 ATP        -0.8169
     12 O3A         1.5187   -1.3497   -4.4431 O.3       1 ATP        -0.7987
     13 O5'         2.5237   -1.6631   -2.1889 O.3       1 ATP        -0.5693
     14 C5'         2.2816   -0.2918   -1.9206 C.3       1 ATP         0.1841
     15 C4'         2.7248    0.0226   -0.4980 C.3       1 ATP         0.0904
     16 O4'         2.4697    1.4219   -0.2462 O.3       1 ATP        -0.4083
     17 C3'         1.9404   -0.7419    0.5596 C.3       1 ATP         0.0826
     18 O3'         2.7418   -0.8086    1.7389 O.3       1 ATP        -0.6106
     19 C2'         0.7477    0.1630    0.7858 C.3       1 ATP         0.1294
     20 O2'         0.1373   -0.0577    2.0407 O.3       1 ATP        -0.5701
     21 C1'         1.3733    1.5427    0.6747 C.3       1 ATP         0.3967
     22 N9          0.4520    2.5240    0.1767 N.pl3     1 ATP        -0.5600
     23 C8         -0.8252    2.3702   -0.1405 C.ar      1 ATP         0.3009
     24 N7         -1.4086    3.4861   -0.5739 N.pl3     1 ATP        -0.5113
     25 C5         -0.4324    4.4197   -0.5299 C.ar      1 ATP        -0.2824
     26 C6         -0.4006    5.7465   -0.8439 C.ar      1 ATP         0.7670
     27 N6         -1.5714    6.3708   -1.3211 N.pl3     1 ATP        -0.9491
     28 N1          0.7370    6.4615   -0.7020 N.ar      1 ATP        -0.7474
     29 C2          1.8196    5.7785   -0.2355 C.ar      1 ATP         0.7118
     30 N3          1.8948    4.4713    0.1036 N.ar      1 ATP        -0.6661
     31 C4          0.7337    3.8311   -0.0629 C.ar      1 ATP         0.6308
     32 HOG2       -3.4699   -0.6962   -4.6381 H         1 ATP         0.4930
     33 HOG3       -1.4471   -2.7200   -7.8979 H         1 ATP         0.4930
     34 HOB2        0.6094    0.3866   -7.2931 H         1 ATP         0.4808
     35 H5'1        2.8429    0.3140   -2.6391 H         1 ATP         0.0350
     36 H5'2        1.2125   -0.0906   -2.0420 H         1 ATP         0.0350
     37 H4'         3.8050   -0.1388   -0.4008 H         1 ATP         0.1244
     38 H3'         1.6784   -1.7629    0.2714 H         1 ATP         0.0924
     39 HO3'        2.2232   -1.2979    2.3953 H         1 ATP         0.4379
     40 H2'        -0.0011    0.0027    0.0003 H         1 ATP         0.0849
     41 HO2'       -0.1563   -0.9855    2.0596 H         1 ATP         0.4417
     42 H1'         1.7826    1.9024    1.6451 H         1 ATP         0.1307
     43 H8         -1.3516    1.4351   -0.0582 H         1 ATP         0.2875
     44 HN61       -1.5599    7.3536   -1.5061 H         1 ATP         0.4559
     45 HN62       -2.4184    5.8418   -1.3770 H         1 ATP         0.4559
     46 H2          2.7305    6.3553   -0.1232 H         1 ATP         0.0858
     47 H47        -2.3700    3.5931   -0.8665 H         1 ATP         0.5042
@<TRIPOS>BOND
     1    1    2 2
     2    1    3 1
     3    1    4 1
     4    1    8 1
     5    3   32 1
     6    4   33 1
     7    5    6 2
     8    5    7 1
     9    5    8 1
    10    5   12 1
    11    7   34 1
    12    9   10 2
    13    9   11 1
    14    9   12 1
    15    9   13 1
    16   13   14 1
    17   14   15 1
    18   14   35 1
    19   14   36 1
    20   15   16 1
    21   15   17 1
    22   15   37 1
    23   16   21 1
    24   17   18 1
    25   17   19 1
    26   17   38 1
    27   18   39 1
    28   19   20 1
    29   19   21 1
    30   19   40 1
    31   20   41 1
    32   21   22 1
    33   21   42 1
    34   22   23 ar
    35   22   31 ar
    36   23   24 ar
    37   23   43 1
    38   24   25 ar
    39   24   47 1
    40   25   26 ar
    41   25   31 ar
    42   26   27 1
    43   26   28 ar
    44   27   44 1
    45   27   45 1
    46   28   29 ar
    47   29   30 ar
    48   29   46 1
    49   30   31 ar
@<TRIPOS>SUBSTRUCTURE
     1 ATP         1 GROUP 0 A     ****
@<TRIPOS>MOLECULE
[5-(6-amino-7,8-dihydropurin-8-ylium-9-yl)-3,4-dihydroxy-tetrahydrofuran-2-yl]methyl [hydroxy(phosphonooxy)phosphoryl] phosphate
   47    49     1     0     0
SMALL
USER_CHARGES

@<TRIPOS>ATOM
      1 PG          7.5182   -3.8308   -3.0885 P.3       1 ATP         1.8237
      2 O1G         8.7823   -3.2197   -3.6166 O.2       1 ATP        -0.8455
      3 O2G         7.2267   -5.3344   -3.6070 O.3       1 ATP        -0.7970
      4 O3G         7.4610   -3.9844   -1.4796 O.3       1 ATP        -0.7970
      5 PB          5.6847   -1.5355   -3.0975 P.3       1 ATP         1.9358
      6 O1B         5.5962   -1.2139   -1.6349 O.2       1 ATP        -0.8836
      7 O2B         6.7140   -0.6164   -3.9393 O.3       1 ATP        -0.8065
      8 O3B         6.1571   -3.0398   -3.4463 O.3       1 ATP        -0.8233
      9 PA          2.8591   -2.1295   -3.7203 P.3       1 ATP         1.5686
     10 O1A         3.0780   -3.6265   -3.7548 O.co2     1 ATP        -0.8169
     11 O2A         1.8561   -1.4730   -4.6439 O.co2     1 ATP        -0.8169
     12 O3A         4.2973   -1.3829   -3.9109 O.3       1 ATP        -0.7987
     13 O5'         2.5237   -1.6631   -2.1889 O.3       1 ATP        -0.5693
     14 C5'         2.2816   -0.2918   -1.9206 C.3       1 ATP         0.1841
     15 C4'         2.7248    0.0226   -0.4980 C.3       1 ATP         0.0904
     16 O4'         2.4697    1.4219   -0.2462 O.3       1 ATP        -0.4083
     17 C3'         1.9404   -0.7419    0.5596 C.3       1 ATP         0.0826
     18 O3'         2.7418   -0.8086    1.7389 O.3       1 ATP        -0.6106
     19 C2'         0.7477    0.1630    0.7858 C.3       1 ATP         0.1294
     20 O2'         0.1373   -0.0577    2.0407 O.3       1 ATP        -0.5701
     21 C1'         1.3733    1.5427    0.6747 C.3       1 ATP         0.3967
     22 N9          0.4520    2.5240    0.1767 N.pl3     1 ATP        -0.5600
     23 C8         -0.3477    3.3274    0.8626 C.ar      1 ATP         0.3009
     24 N7         -1.0836    4.1323    0.0983 N.pl3     1 ATP        -0.5113
     25 C5         -0.7273    3.8194   -1.1674 C.ar      1 ATP        -0.2824
     26 C6         -1.1208    4.2877   -2.3863 C.ar      1 ATP         0.7670
     27 N6         -2.0932    5.3066   -2.4528 N.pl3     1 ATP        -0.9491
     28 N1         -0.5892    3.7853   -3.5223 N.ar      1 ATP        -0.7474
     29 C2          0.3427    2.8040   -3.3648 C.ar      1 ATP         0.7118
     30 N3          0.8012    2.2709   -2.2093 N.ar      1 ATP        -0.6661
     31 C4          0.2307    2.8167   -1.1312 C.ar      1 ATP         0.6308
     32 HOG2        7.1290   -5.4937   -4.5699 H         1 ATP         0.4930
     33 HOG3        7.5312   -3.1793   -0.9235 H         1 ATP         0.4930
     34 HOB2        7.6627   -0.6149   -3.6898 H         1 ATP         0.4808
     35 H5'1        2.8429    0.3140   -2.6391 H         1 ATP         0.0350
     36 H5'2        1.2125   -0.0906   -2.0420 H         1 ATP         0.0350
     37 H4'         3.8050   -0.1388   -0.4008 H         1 ATP         0.1244
     38 H3'         1.6784   -1.7629    0.2714 H         1 ATP         0.0924
     39 HO3'        2.2232   -1.2979    2.3953 H         1 ATP         0.4379
     40 H2'        -0.0011    0.0027    0.0003 H         1 ATP         0.0849
     41 HO2'       -0.6141    0.5574    2.1082 H         1 ATP         0.4417
     42 H1'         1.7826    1.9024    1.6451 H         1 ATP         0.1307
     43 H8         -0.4040    3.3373    1.9373 H         1 ATP         0.2875
     44 HN61       -2.5133    5.6366   -1.6073 H         1 ATP         0.4559
     45 HN62       -2.4153    5.6161   -3.3477 H         1 ATP         0.4559
     46 H2          0.7668    2.4032   -4.2782 H         1 ATP         0.0858
     47 H47        -1.7549    4.8194    0.4122 H         1 ATP         0.5042
@<TRIPOS>BOND
     1    1    2 2
     2    1    3 1
     3    1    4 1
     4    1    8 1
     5    3   32 1
     6    4   33 1
     7    5    6 2
     8    5    7 1
     9    5    8 1
    10    5   12 1
    11    7   34 1
    12    9   10 2
    13    9   11 1
    14    9   12 1
    15    9   13 1
    16   13   14 1
    17   14   15 1
    18   14   35 1
    19   14   36 1
    20   15   16 1
    21   15   17 1
    22   15   37 1
    23   16   21 1
    24   17   18 1
    25   17   19 1
    26   17   38 1
    27   18   39 1
    28   19   20 1
    29   19   21 1
    30   19   40 1
    31   20   41 1
    32   21   22 1
    33   21   42 1
    34   22   23 ar
    35   22   31 ar
    36   23   24 ar
    37   23   43 1
    38   24   25 ar
    39   24   47 1
    40   25   26 ar
    41   25   31 ar
    42   26   27 1
    43   26   28 ar
    44   27   44 1
    45   27   45 1
    46   28   29 ar
    47   29   30 ar
    48   29   46 1
    49   30   31 ar
@<TRIPOS>SUBSTRUCTURE
     1 ATP         1 GROUP 0 A     ****
@<TRIPOS>MOLECULE
[5-(6-amino-7,8-dihydropurin-8-ylium-9-yl)-3,4-dihydroxy-tetrahydrofuran-2-yl]methyl [hydroxy(phosphonooxy)phosphoryl] phosphate
   47    49     1     0     0
SMALL
USER_CHARGES

@<TRIPOS>ATOM
      1 PG          5.1641   -2.8998   -7.9906 P.3       1 ATP         1.8237
      2 O1G         4.2470   -2.9984   -9.1737 O.2       1 ATP        -0.8455
      3 O2G         5.7550   -4.3135   -7.4742 O.3       1 ATP        -0.7970
      4 O3G         6.4971   -2.0184   -8.2387 O.3       1 ATP        -0.7970
      5 PB          3.2604   -2.7164   -5.7608 P.3       1 ATP         1.9358
      6 O1B         1.9455   -2.7737   -6.4807 O.2       1 ATP        -0.8836
      7 O2B         3.7526   -4.1176   -5.1222 O.3       1 ATP        -0.8065
      8 O3B         4.5198   -2.2532   -6.6591 O.3       1 ATP        -0.8233
      9 PA          3.0648   -0.0870   -4.4293 P.3       1 ATP         1.5686
     10 O1A         1.6239    0.2105   -4.7833 O.co2     1 ATP        -0.8169
     11 O2A         4.1983    0.5973   -5.1621 O.co2     1 ATP        -0.8169
     12 O3A         3.3035   -1.6993   -4.5064 O.3       1 ATP        -0.7987
     13 O5'         3.2883    0.1336   -2.8242 O.3       1 ATP        -0.5693
     14 C5'         2.2816   -0.2918   -1.9206 C.3       1 ATP         0.1841
     15 C4'         2.7248    0.0226   -0.4980 C.3       1 ATP         0.0904
     16 O4'         2.4697    1.4219   -0.2462 O.3       1 ATP        -0.4083
     17 C3'         1.9404   -0.7419    0.5596 C.3       1 ATP         0.0826
     18 O3'         2.7418   -0.8086    1.7389 O.3       1 ATP        -0.6106
     19 C2'         0.7477    0.1630    0.7858 C.3       1 ATP         0.1294
     20 O2'         0.1373   -0.0577    2.0407 O.3       1 ATP        -0.5701
     21 C1'         1.3733    1.5427    0.6747 C.3       1 ATP         0.3967
     22 N9          0.4520    2.5240    0.1767 N.pl3     1 ATP        -0.5600
     23 C8         -0.5899    2.3466   -0.6224 C.ar      1 ATP         0.3009
     24 N7         -1.2514    3.4689   -0.8989 N.pl3     1 ATP        -0.5113
     25 C5         -0.5826    4.4323   -0.2272 C.ar      1 ATP        -0.2824
     26 C6         -0.7636    5.7789   -0.1086 C.ar      1 ATP         0.7670
     27 N6         -1.8382    6.3927   -0.7843 N.pl3     1 ATP        -0.9491
     28 N1          0.0741    6.5233    0.6461 N.ar      1 ATP        -0.7474
     29 C2          1.0845    5.8486    1.2626 C.ar      1 ATP         0.7118
     30 N3          1.3516    4.5236    1.2116 N.ar      1 ATP        -0.6661
     31 C4          0.4827    3.8546    0.4481 C.ar      1 ATP         0.6308
     32 HOG2        6.3617   -4.3211   -6.7035 H         1 ATP         0.4930
     33 HOG3        7.1224   -2.2923   -8.9432 H         1 ATP         0.4930
     34 HOB2        3.8968   -4.8853   -5.7155 H         1 ATP         0.4808
     35 H5'1        1.3500    0.2325   -2.1560 H         1 ATP         0.0350
     36 H5'2        2.1266   -1.3683   -2.0443 H         1 ATP         0.0350
     37 H4'         3.8050   -0.1388   -0.4008 H         1 ATP         0.1244
     38 H3'         1.6784   -1.7629    0.2714 H         1 ATP         0.0924
     39 HO3'        3.5554   -1.2733    1.4914 H         1 ATP         0.4379
     40 H2'        -0.0011    0.0027    0.0003 H         1 ATP         0.0849
     41 HO2'        0.8082    0.1199    2.7232 H         1 ATP         0.4417
     42 H1'         1.7826    1.9024    1.6451 H         1 ATP         0.1307
     43 H8         -0.8833    1.3888   -1.0158 H         1 ATP         0.2875
     44 HN61       -2.4225    5.8385   -1.3773 H         1 ATP         0.4559
     45 HN62       -1.9421    7.3862   -0.7348 H         1 ATP         0.4559
     46 H2          1.7546    6.4491    1.8670 H         1 ATP         0.0858
     47 H47        -2.0705    3.5612   -1.4834 H         1 ATP         0.5042
@<TRIPOS>BOND
     1    1    2 2
     2    1    3 1
     3    1    4 1
     4    1    8 1
     5    3   32 1
     6    4   33 1
     7    5    6 2
     8    5    7 1
     9    5    8 1
    10    5   12 1
    11    7   34 1
    12    9   10 2
    13    9   11 1
    14    9   12 1
    15    9   13 1
    16   13   14 1
    17   14   15 1
    18   14   35 1
    19   14   36 1
    20   15   16 1
    21   15   17 1
    22   15   37 1
    23   16   21 1
    24   17   18 1
    25   17   19 1
    26   17   38 1
    27   18   39 1
    28   19   20 1
    29   19   21 1
    30   19   40 1
    31   20   41 1
    32   21   22 1
    33   21   42 1
    34   22   23 ar
    35   22   31 ar
    36   23   24 ar
    37   23   43 1
    38   24   25 ar
    39   24   47 1
    40   25   26 ar
    41   25   31 ar
    42   26   27 1
    43   26   28 ar
    44   27   44 1
    45   27   45 1
    46   28   29 ar
    47   29   30 ar
    48   29   46 1
    49   30   31 ar
@<TRIPOS>SUBSTRUCTURE
     1 ATP         1 GROUP 0 A     ****
@<TRIPOS>MOLECULE
[5-(6-amino-7,8-dihydropurin-8-ylium-9-yl)-3,4-dihydroxy-tetrahydrofuran-2-yl]methyl [hydroxy(phosphonooxy)phosphoryl] phosphate
   47    49     1     0     0
SMALL
USER_CHARGES

@<TRIPOS>ATOM
      1 PG         -2.2284   -2.9038   -2.9458 P.3       1 ATP         1.8237
      2 O1G        -2.5783   -2.4359   -1.5642 O.2       1 ATP        -0.8455
      3 O2G        -3.4182   -3.6806   -3.7176 O.3       1 ATP        -0.7970
      4 O3G        -1.8341   -1.7250   -3.9804 O.3       1 ATP        -0.7970
      5 PB          0.5605   -3.7625   -2.6078 P.3       1 ATP         1.9358
      6 O1B         0.7905   -3.4761   -1.1533 O.2       1 ATP        -0.8836
      7 O2B         1.2509   -5.1175   -3.1560 O.3       1 ATP        -0.8065
      8 O3B        -0.9857   -3.9297   -3.0424 O.3       1 ATP        -0.8233
      9 PA          2.6176   -2.0495   -3.8562 P.3       1 ATP         1.5686
     10 O1A         2.5475   -0.8911   -4.8275 O.co2     1 ATP        -0.8169
     11 O2A         3.5417   -3.2199   -4.1138 O.co2     1 ATP        -0.8169
     12 O3A         1.1108   -2.6284   -3.6180 O.3       1 ATP        -0.7987
     13 O5'         2.9201   -1.4821   -2.3524 O.3       1 ATP        -0.5693
     14 C5'         2.2816   -0.2918   -1.9206 C.3       1 ATP         0.1841
     15 C4'         2.7248    0.0226   -0.4980 C.3       1 ATP         0.0904
     16 O4'         2.4697    1.4219   -0.2462 O.3       1 ATP        -0.4083
     17 C3'         1.9404   -0.7419    0.5596 C.3       1 ATP         0.0826
     18 O3'         2.7418   -0.8086    1.7389 O.3       1 ATP        -0.6106
     19 C2'         0.7477    0.1630    0.7858 C.3       1 ATP         0.1294
     20 O2'         0.1373   -0.0577    2.0407 O.3       1 ATP        -0.5701
     21 C1'         1.3733    1.5427    0.6747 C.3       1 ATP         0.3967
     22 N9          0.4520    2.5240    0.1767 N.pl3     1 ATP        -0.5600
     23 C8         -0.8602    2.5861    0.3496 C.ar      1 ATP         0.3009
     24 N7         -1.4308    3.6326   -0.2443 N.pl3     1 ATP        -0.5113
     25 C5         -0.4080    4.2856   -0.8394 C.ar      1 ATP        -0.2824
     26 C6         -0.3432    5.4196   -1.5943 C.ar      1 ATP         0.7670
     27 N6         -1.5276    6.1333   -1.8702 N.pl3     1 ATP        -0.9491
     28 N1          0.8395    5.8603   -2.0764 N.ar      1 ATP        -0.7474
     29 C2          1.9319    5.1095   -1.7617 C.ar      1 ATP         0.7118
     30 N3          1.9773    3.9761   -1.0249 N.ar      1 ATP        -0.6661
     31 C4          0.7724    3.6031   -0.5836 C.ar      1 ATP         0.6308
     32 HOG2       -3.7826   -4.5017   -3.3236 H         1 ATP         0.4930
     33 HOG3       -1.0672   -1.1493   -3.7734 H         1 ATP         0.4930
     34 HOB2        2.2257   -5.2109   -3.0982 H         1 ATP         0.4808
     35 H5'1        2.5581    0.5235   -2.5966 H         1 ATP         0.0350
     36 H5'2        1.1974   -0.4370   -1.9607 H         1 ATP         0.0350
     37 H4'         3.8050   -0.1388   -0.4008 H         1 ATP         0.1244
     38 H3'         1.6784   -1.7629    0.2714 H         1 ATP         0.0924
     39 HO3'        2.2232   -1.2979    2.3953 H         1 ATP         0.4379
     40 H2'        -0.0011    0.0027    0.0003 H         1 ATP         0.0849
     41 HO2'       -0.6141    0.5574    2.1082 H         1 ATP         0.4417
     42 H1'         1.7826    1.9024    1.6451 H         1 ATP         0.1307
     43 H8         -1.4217    1.8638    0.9164 H         1 ATP         0.2875
     44 HN61       -2.4023    5.7711   -1.5477 H         1 ATP         0.4559
     45 HN62       -1.4857    6.9379   -2.4627 H         1 ATP         0.4559
     46 H2          2.8789    5.4660   -2.1503 H         1 ATP         0.0858
     47 H47        -2.4129    3.8706   -0.2402 H         1 ATP         0.5042
@<TRIPOS>BOND
     1    1    2 2
     2    1    3 1
     3    1    4 1
     4    1    8 1
     5    3   32 1
     6    4   33 1
     7    5    6 2
     8    5    7 1
     9    5    8 1
    10    5   12 1
    11    7   34 1
    12    9   10 2
    13    9   11 1
    14    9   12 1
    15    9   13 1
    16   13   14 1
    17   14   15 1
    18   14   35 1
    19   14   36 1
    20   15   16 1
    21   15   17 1
    22   15   37 1
    23   16   21 1
    24   17   18 1
    25   17   19 1
    26   17   38 1
    27   18   39 1
    28   19   20 1
    29   19   21 1
    30   19   40 1
    31   20   41 1
    32   21   22 1
    33   21   42 1
    34   22   23 ar
    35   22   31 ar
    36   23   24 ar
    37   23   43 1
    38   24   25 ar
    39   24   47 1
    40   25   26 ar
    41   25   31 ar
    42   26   27 1
    43   26   28 ar
    44   27   44 1
    45   27   45 1
    46   28   29 ar
    47   29   30 ar
    48   29   46 1
    49   30   31 ar
@<TRIPOS>SUBSTRUCTURE
     1 ATP         1 GROUP 0 A     ****
@<TRIPOS>MOLECULE
[5-(6-amino-7,8-dihydropurin-8-ylium-9-yl)-3,4-dihydroxy-tetrahydrofuran-2-yl]methyl [hydroxy(phosphonooxy)phosphoryl] phosphate
   47    49     1     0     0
SMALL
USER_CHARGES

@<TRIPOS>ATOM
      1 PG         -2.6612   -2.9503   -2.4065 P.3       1 ATP         1.8237
      2 O1G        -2.9815   -4.4158   -2.3914 O.2       1 ATP        -0.8455
      3 O2G        -3.9326   -1.9784   -2.1753 O.3       1 ATP        -0.7970
      4 O3G        -1.6256   -2.4717   -1.2603 O.3       1 ATP        -0.7970
      5 PB         -0.6370   -2.7934   -4.5297 P.3       1 ATP         1.9358
      6 O1B        -0.5381   -4.2273   -4.9593 O.2       1 ATP        -0.8836
      7 O2B        -0.5427   -1.7120   -5.7275 O.3       1 ATP        -0.8065
      8 O3B        -2.0055   -2.3924   -3.7722 O.3       1 ATP        -0.8233
      9 PA          2.1361   -2.2694   -3.6576 P.3       1 ATP         1.5686
     10 O1A         2.4968   -1.2636   -4.7294 O.co2     1 ATP        -0.8169
     11 O2A         2.6449   -3.6926   -3.7300 O.co2     1 ATP        -0.8169
     12 O3A         0.5124   -2.3123   -3.5015 O.3       1 ATP        -0.7987
     13 O5'         2.5237   -1.6631   -2.1889 O.3       1 ATP        -0.5693
     14 C5'         2.2816   -0.2918   -1.9206 C.3       1 ATP         0.1841
     15 C4'         2.7248    0.0226   -0.4980 C.3       1 ATP         0.0904
     16 O4'         2.4697    1.4219   -0.2462 O.3       1 ATP        -0.4083
     17 C3'         1.9404   -0.7419    0.5596 C.3       1 ATP         0.0826
     18 O3'         2.7418   -0.8086    1.7389 O.3       1 ATP        -0.6106
     19 C2'         0.7477    0.1630    0.7858 C.3       1 ATP         0.1294
     20 O2'         0.1373   -0.0577    2.0407 O.3       1 ATP        -0.5701
     21 C1'         1.3733    1.5427    0.6747 C.3       1 ATP         0.3967
     22 N9          0.4520    2.5240    0.1767 N.pl3     1 ATP        -0.5600
     23 C8          0.0623    3.6542    0.7479 C.ar      1 ATP         0.3009
     24 N7         -0.8074    4.3516    0.0193 N.pl3     1 ATP        -0.5113
     25 C5         -0.9855    3.6123   -1.0979 C.ar      1 ATP        -0.2824
     26 C6         -1.7474    3.7860   -2.2156 C.ar      1 ATP         0.7670
     27 N6         -2.5511    4.9389   -2.3303 N.pl3     1 ATP        -0.9491
     28 N1         -1.7375    2.8675   -3.2064 N.ar      1 ATP        -0.7474
     29 C2         -0.9330    1.7853   -3.0121 C.ar      1 ATP         0.7118
     30 N3         -0.1423    1.5179   -1.9478 N.ar      1 ATP        -0.6661
     31 C4         -0.2044    2.4690   -1.0113 C.ar      1 ATP         0.6308
     32 HOG2       -4.4426   -2.0546   -1.3409 H         1 ATP         0.4930
     33 HOG3       -0.7266   -2.8639   -1.2396 H         1 ATP         0.4930
     34 HOB2        0.2662   -1.6865   -6.2818 H         1 ATP         0.4808
     35 H5'1        2.8429    0.3140   -2.6391 H         1 ATP         0.0350
     36 H5'2        1.2125   -0.0906   -2.0420 H         1 ATP         0.0350
     37 H4'         3.8050   -0.1388   -0.4008 H         1 ATP         0.1244
     38 H3'         1.6784   -1.7629    0.2714 H         1 ATP         0.0924
     39 HO3'        2.2232   -1.2979    2.3953 H         1 ATP         0.4379
     40 H2'        -0.0011    0.0027    0.0003 H         1 ATP         0.0849
     41 HO2'       -0.6141    0.5574    2.1082 H         1 ATP         0.4417
     42 H1'         1.7826    1.9024    1.6451 H         1 ATP         0.1307
     43 H8          0.4111    3.9873    1.7100 H         1 ATP         0.2875
     44 HN61       -2.5859    5.5874   -1.5698 H         1 ATP         0.4559
     45 HN62       -3.1449    5.0423   -3.1284 H         1 ATP         0.4559
     46 H2         -0.9279    1.0504   -3.8088 H         1 ATP         0.0858
     47 H47        -1.2303    5.2364    0.2633 H         1 ATP         0.5042
@<TRIPOS>BOND
     1    1    2 2
     2    1    3 1
     3    1    4 1
     4    1    8 1
     5    3   32 1
     6    4   33 1
     7    5    6 2
     8    5    7 1
     9    5    8 1
    10    5   12 1
    11    7   34 1
    12    9   10 2
    13    9   11 1
    14    9   12 1
    15    9   13 1
    16   13   14 1
    17   14   15 1
    18   14   35 1
    19   14   36 1
    20   15   16 1
    21   15   17 1
    22   15   37 1
    23   16   21 1
    24   17   18 1
    25   17   19 1
    26   17   38 1
    27   18   39 1
    28   19   20 1
    29   19   21 1
    30   19   40 1
    31   20   41 1
    32   21   22 1
    33   21   42 1
    34   22   23 ar
    35   22   31 ar
    36   23   24 ar
    37   23   43 1
    38   24   25 ar
    39   24   47 1
    40   25   26 ar
    41   25   31 ar
    42   26   27 1
    43   26   28 ar
    44   27   44 1
    45   27   45 1
    46   28   29 ar
    47   29   30 ar
    48   29   46 1
    49   30   31 ar
@<TRIPOS>SUBSTRUCTURE
     1 ATP         1 GROUP 0 A     ****
@<TRIPOS>MOLECULE
[5-(6-amino-7,8-dihydropurin-8-ylium-9-yl)-3,4-dihydroxy-tetrahydrofuran-2-yl]methyl [hydroxy(phosphonooxy)phosphoryl] phosphate
   47    49     1     0     0
SMALL
USER_CHARGES

@<TRIPOS>ATOM
      1 PG          4.2997   -4.3745   -4.6544 P.3       1 ATP         1.8237
      2 O1G         2.8008   -4.3287   -4.6146 O.2       1 ATP        -0.8455
      3 O2G         5.0031   -4.7131   -3.2383 O.3       1 ATP        -0.7970
      4 O3G         4.9169   -5.4955   -5.6432 O.3       1 ATP        -0.7970
      5 PB          4.9987   -1.5262   -4.4846 P.3       1 ATP         1.9358
      6 O1B         5.4981   -1.4214   -3.0739 O.2       1 ATP        -0.8836
      7 O2B         5.8120   -0.6419   -5.5661 O.3       1 ATP        -0.8065
      8 O3B         5.0284   -3.0109   -5.1190 O.3       1 ATP        -0.8233
      9 PA          2.7386    0.3748   -4.4298 P.3       1 ATP         1.5686
     10 O1A         1.2524    0.2205   -4.6698 O.co2     1 ATP        -0.8169
     11 O2A         3.5296    1.4502   -5.1423 O.co2     1 ATP        -0.8169
     12 O3A         3.4667   -1.0606   -4.6985 O.3       1 ATP        -0.7987
     13 O5'         3.0197    0.5137   -2.8245 O.3       1 ATP        -0.5693
     14 C5'         2.2816   -0.2918   -1.9206 C.3       1 ATP         0.1841
     15 C4'         2.7248    0.0226   -0.4980 C.3       1 ATP         0.0904
     16 O4'         2.4697    1.4219   -0.2462 O.3       1 ATP        -0.4083
     17 C3'         1.9404   -0.7419    0.5596 C.3       1 ATP         0.0826
     18 O3'         2.7418   -0.8086    1.7389 O.3       1 ATP        -0.6106
     19 C2'         0.7477    0.1630    0.7858 C.3       1 ATP         0.1294
     20 O2'         0.1373   -0.0577    2.0407 O.3       1 ATP        -0.5701
     21 C1'         1.3733    1.5427    0.6747 C.3       1 ATP         0.3967
     22 N9          0.4520    2.5240    0.1767 N.pl3     1 ATP        -0.5600
     23 C8         -0.3477    3.3274    0.8626 C.ar      1 ATP         0.3009
     24 N7         -1.0836    4.1323    0.0983 N.pl3     1 ATP        -0.5113
     25 C5         -0.7273    3.8194   -1.1674 C.ar      1 ATP        -0.2824
     26 C6         -1.1208    4.2877   -2.3863 C.ar      1 ATP         0.7670
     27 N6         -2.0932    5.3066   -2.4528 N.pl3     1 ATP        -0.9491
     28 N1         -0.5892    3.7853   -3.5223 N.ar      1 ATP        -0.7474
     29 C2          0.3427    2.8040   -3.3648 C.ar      1 ATP         0.7118
     30 N3          0.8012    2.2709   -2.2093 N.ar      1 ATP        -0.6661
     31 C4          0.2307    2.8167   -1.1312 C.ar      1 ATP         0.6308
     32 HOG2        4.8497   -4.1139   -2.4770 H         1 ATP         0.4930
     33 HOG3        4.7008   -6.4391   -5.4840 H         1 ATP         0.4930
     34 HOB2        5.8491    0.3316   -5.4521 H         1 ATP         0.4808
     35 H5'1        1.2153   -0.0781   -2.0454 H         1 ATP         0.0350
     36 H5'2        2.4645   -1.3454   -2.1547 H         1 ATP         0.0350
     37 H4'         3.8050   -0.1388   -0.4008 H         1 ATP         0.1244
     38 H3'         1.6784   -1.7629    0.2714 H         1 ATP         0.0924
     39 HO3'        3.5554   -1.2733    1.4914 H         1 ATP         0.4379
     40 H2'        -0.0011    0.0027    0.0003 H         1 ATP         0.0849
     41 HO2'       -0.6141    0.5574    2.1082 H         1 ATP         0.4417
     42 H1'         1.7826    1.9024    1.6451 H         1 ATP         0.1307
     43 H8         -0.4040    3.3373    1.9373 H         1 ATP         0.2875
     44 HN61       -2.5133    5.6366   -1.6073 H         1 ATP         0.4559
     45 HN62       -2.4153    5.6161   -3.3477 H         1 ATP         0.4559
     46 H2          0.7668    2.4032   -4.2782 H         1 ATP         0.0858
     47 H47        -1.7549    4.8194    0.4122 H         1 ATP         0.5042
@<TRIPOS>BOND
     1    1    2 2
     2    1    3 1
     3    1    4 1
     4    1    8 1
     5    3   32 1
     6    4   33 1
     7    5    6 2
     8    5    7 1
     9    5    8 1
    10    5   12 1
    11    7   34 1
    12    9   10 2
    13    9   11 1
    14    9   12 1
    15    9   13 1
    16   13   14 1
    17   14   15 1
    18   14   35 1
    19   14   36 1
    20   15   16 1
    21   15   17 1
    22   15   37 1
    23   16   21 1
    24   17   18 1
    25   17   19 1
    26   17   38 1
    27   18   39 1
    28   19   20 1
    29   19   21 1
    30   19   40 1
    31   20   41 1
    32   21   22 1
    33   21   42 1
    34   22   23 ar
    35   22   31 ar
    36   23   24 ar
    37   23   43 1
    38   24   25 ar
    39   24   47 1
    40   25   26 ar
    41   25   31 ar
    42   26   27 1
    43   26   28 ar
    44   27   44 1
    45   27   45 1
    46   28   29 ar
    47   29   30 ar
    48   29   46 1
    49   30   31 ar
@<TRIPOS>SUBSTRUCTURE
     1 ATP         1 GROUP 0 A     ****
@<TRIPOS>MOLECULE
[5-(6-amino-7,8-dihydropurin-8-ylium-9-yl)-3,4-dihydroxy-tetrahydrofuran-2-yl]methyl [hydroxy(phosphonooxy)phosphoryl] phosphate
   47    49     1     0     0
SMALL
USER_CHARGES

@<TRIPOS>ATOM
      1 PG          5.3005   -1.2843   -8.3902 P.3       1 ATP         1.8237
      2 O1G         6.2358   -2.4563   -8.4347 O.2       1 ATP        -0.8455
      3 O2G         5.9775    0.1350   -8.7671 O.3       1 ATP        -0.7970
      4 O3G         4.0528   -1.3744   -9.4150 O.3       1 ATP        -0.7970
      5 PB          3.6381   -1.9227   -6.0539 P.3       1 ATP         1.9358
      6 O1B         2.3512   -2.3382   -6.7033 O.2       1 ATP        -0.8836
      7 O2B         4.6013   -3.1399   -5.6027 O.3       1 ATP        -0.8065
      8 O3B         4.6035   -1.0003   -6.9621 O.3       1 ATP        -0.8233
      9 PA          2.7386    0.3748   -4.4298 P.3       1 ATP         1.5686
     10 O1A         1.2524    0.2205   -4.6698 O.co2     1 ATP        -0.8169
     11 O2A         3.5296    1.4502   -5.1423 O.co2     1 ATP        -0.8169
     12 O3A         3.4667   -1.0606   -4.6985 O.3       1 ATP        -0.7987
     13 O5'         3.0197    0.5137   -2.8245 O.3       1 ATP        -0.5693
     14 C5'         2.2816   -0.2918   -1.9206 C.3       1 ATP         0.1841
     15 C4'         2.7248    0.0226   -0.4980 C.3       1 ATP         0.0904
     16 O4'         2.4697    1.4219   -0.2462 O.3       1 ATP        -0.4083
     17 C3'         1.9404   -0.7419    0.5596 C.3       1 ATP         0.0826
     18 O3'         2.7418   -0.8086    1.7389 O.3       1 ATP        -0.6106
     19 C2'         0.7477    0.1630    0.7858 C.3       1 ATP         0.1294
     20 O2'         0.1373   -0.0577    2.0407 O.3       1 ATP        -0.5701
     21 C1'         1.3733    1.5427    0.6747 C.3       1 ATP         0.3967
     22 N9          0.4520    2.5240    0.1767 N.pl3     1 ATP        -0.5600
     23 C8         -0.3477    3.3274    0.8626 C.ar      1 ATP         0.3009
     24 N7         -1.0836    4.1323    0.0983 N.pl3     1 ATP        -0.5113
     25 C5         -0.7273    3.8194   -1.1674 C.ar      1 ATP        -0.2824
     26 C6         -1.1208    4.2877   -2.3863 C.ar      1 ATP         0.7670
     27 N6         -2.0932    5.3066   -2.4528 N.pl3     1 ATP        -0.9491
     28 N1         -0.5892    3.7853   -3.5223 N.ar      1 ATP        -0.7474
     29 C2          0.3427    2.8040   -3.3648 C.ar      1 ATP         0.7118
     30 N3          0.8012    2.2709   -2.2093 N.ar      1 ATP        -0.6661
     31 C4          0.2307    2.8167   -1.1312 C.ar      1 ATP         0.6308
     32 HOG2        6.7237    0.4644   -8.2223 H         1 ATP         0.4930
     33 HOG3        3.4247   -2.1236   -9.3328 H         1 ATP         0.4930
     34 HOB2        4.9284   -3.7646   -6.2846 H         1 ATP         0.4808
     35 H5'1        1.2153   -0.0781   -2.0454 H         1 ATP         0.0350
     36 H5'2        2.4645   -1.3454   -2.1547 H         1 ATP         0.0350
     37 H4'         3.8050   -0.1388   -0.4008 H         1 ATP         0.1244
     38 H3'         1.6784   -1.7629    0.2714 H         1 ATP         0.0924
     39 HO3'        2.2232   -1.2979    2.3953 H         1 ATP         0.4379
     40 H2'        -0.0011    0.0027    0.0003 H         1 ATP         0.0849
     41 HO2'       -0.6141    0.5574    2.1082 H         1 ATP         0.4417
     42 H1'         1.7826    1.9024    1.6451 H         1 ATP         0.1307
     43 H8         -0.4040    3.3373    1.9373 H         1 ATP         0.2875
     44 HN61       -2.5133    5.6366   -1.6073 H         1 ATP         0.4559
     45 HN62       -2.4153    5.6161   -3.3477 H         1 ATP         0.4559
     46 H2          0.7668    2.4032   -4.2782 H         1 ATP         0.0858
     47 H47        -1.7549    4.8194    0.4122 H         1 ATP         0.5042
@<TRIPOS>BOND
     1    1    2 2
     2    1    3 1
     3    1    4 1
     4    1    8 1
     5    3   32 1
     6    4   33 1
     7    5    6 2
     8    5    7 1
     9    5    8 1
    10    5   12 1
    11    7   34 1
    12    9   10 2
    13    9   11 1
    14    9   12 1
    15    9   13 1
    16   13   14 1
    17   14   15 1
    18   14   35 1
    19   14   36 1
    20   15   16 1
    21   15   17 1
    22   15   37 1
    23   16   21 1
    24   17   18 1
    25   17   19 1
    26   17   38 1
    27   18   39 1
    28   19   20 1
    29   19   21 1
    30   19   40 1
    31   20   41 1
    32   21   22 1
    33   21   42 1
    34   22   23 ar
    35   22   31 ar
    36   23   24 ar
    37   23   43 1
    38   24   25 ar
    39   24   47 1
    40   25   26 ar
    41   25   31 ar
    42   26   27 1
    43   26   28 ar
    44   27   44 1
    45   27   45 1
    46   28   29 ar
    47   29   30 ar
    48   29   46 1
    49   30   31 ar
@<TRIPOS>SUBSTRUCTURE
     1 ATP         1 GROUP 0 A     ****
@<TRIPOS>MOLECULE
[5-(6-amino-7,8-dihydropurin-8-ylium-9-yl)-3,4-dihydroxy-tetrahydrofuran-2-yl]methyl [hydroxy(phosphonooxy)phosphoryl] phosphate
   47    49     1     0     0
SMALL
USER_CHARGES

@<TRIPOS>ATOM
      1 PG          1.0099    4.9673   -5.3896 P.3       1 ATP         1.8237
      2 O1G         1.2930    5.8750   -4.2293 O.2       1 ATP        -0.8455
      3 O2G        -0.5133    5.0165   -5.9300 O.3       1 ATP        -0.7970
      4 O3G         1.8767    5.2776   -6.7192 O.3       1 ATP        -0.7970
      5 PB          0.6051    2.3826   -4.0535 P.3       1 ATP         1.9358
      6 O1B         0.8072    2.7519   -2.6137 O.2       1 ATP        -0.8836
      7 O2B        -0.9380    2.2909   -4.5264 O.3       1 ATP        -0.8065
      8 O3B         1.2639    3.3951   -5.1251 O.3       1 ATP        -0.8233
      9 PA          2.7386    0.3748   -4.4298 P.3       1 ATP         1.5686
     10 O1A         3.6399    1.3283   -5.1839 O.co2     1 ATP        -0.8169
     11 O2A         2.7068   -1.0976   -4.7776 O.co2     1 ATP        -0.8169
     12 O3A         1.2110    0.9462   -4.4771 O.3       1 ATP        -0.7987
     13 O5'         3.0197    0.5137   -2.8245 O.3       1 ATP        -0.5693
     14 C5'         2.2816   -0.2918   -1.9206 C.3       1 ATP         0.1841
     15 C4'         2.7248    0.0226   -0.4980 C.3       1 ATP         0.0904
     16 O4'         2.4697    1.4219   -0.2462 O.3       1 ATP        -0.4083
     17 C3'         1.9404   -0.7419    0.5596 C.3       1 ATP         0.0826
     18 O3'         2.7418   -0.8086    1.7389 O.3       1 ATP        -0.6106
     19 C2'         0.7477    0.1630    0.7858 C.3       1 ATP         0.1294
     20 O2'         0.1373   -0.0577    2.0407 O.3       1 ATP        -0.5701
     21 C1'         1.3733    1.5427    0.6747 C.3       1 ATP         0.3967
     22 N9          0.4520    2.5240    0.1767 N.pl3     1 ATP        -0.5600
     23 C8         -0.8252    2.3702   -0.1405 C.ar      1 ATP         0.3009
     24 N7         -1.4086    3.4861   -0.5739 N.pl3     1 ATP        -0.5113
     25 C5         -0.4324    4.4197   -0.5299 C.ar      1 ATP        -0.2824
     26 C6         -0.4006    5.7465   -0.8439 C.ar      1 ATP         0.7670
     27 N6         -1.5714    6.3708   -1.3211 N.pl3     1 ATP        -0.9491
     28 N1          0.7370    6.4615   -0.7020 N.ar      1 ATP        -0.7474
     29 C2          1.8196    5.7785   -0.2355 C.ar      1 ATP         0.7118
     30 N3          1.8948    4.4713    0.1036 N.ar      1 ATP        -0.6661
     31 C4          0.7337    3.8311   -0.0629 C.ar      1 ATP         0.6308
     32 HOG2       -1.2418    4.7782   -5.3180 H         1 ATP         0.4930
     33 HOG3        1.7973    6.1592   -7.1421 H         1 ATP         0.4930
     34 HOB2       -1.1362    2.0534   -5.4573 H         1 ATP         0.4808
     35 H5'1        1.2153   -0.0781   -2.0454 H         1 ATP         0.0350
     36 H5'2        2.4645   -1.3454   -2.1547 H         1 ATP         0.0350
     37 H4'         3.8050   -0.1388   -0.4008 H         1 ATP         0.1244
     38 H3'         1.6784   -1.7629    0.2714 H         1 ATP         0.0924
     39 HO3'        2.2232   -1.2979    2.3953 H         1 ATP         0.4379
     40 H2'        -0.0011    0.0027    0.0003 H         1 ATP         0.0849
     41 HO2'       -0.6141    0.5574    2.1082 H         1 ATP         0.4417
     42 H1'         1.7826    1.9024    1.6451 H         1 ATP         0.1307
     43 H8         -1.3516    1.4351   -0.0582 H         1 ATP         0.2875
     44 HN61       -2.3936    5.8204   -1.4664 H         1 ATP         0.4559
     45 HN62       -1.5348    7.3319   -1.5955 H         1 ATP         0.4559
     46 H2          2.7305    6.3553   -0.1232 H         1 ATP         0.0858
     47 H47        -2.3700    3.5931   -0.8665 H         1 ATP         0.5042
@<TRIPOS>BOND
     1    1    2 2
     2    1    3 1
     3    1    4 1
     4    1    8 1
     5    3   32 1
     6    4   33 1
     7    5    6 2
     8    5    7 1
     9    5    8 1
    10    5   12 1
    11    7   34 1
    12    9   10 2
    13    9   11 1
    14    9   12 1
    15    9   13 1
    16   13   14 1
    17   14   15 1
    18   14   35 1
    19   14   36 1
    20   15   16 1
    21   15   17 1
    22   15   37 1
    23   16   21 1
    24   17   18 1
    25   17   19 1
    26   17   38 1
    27   18   39 1
    28   19   20 1
    29   19   21 1
    30   19   40 1
    31   20   41 1
    32   21   22 1
    33   21   42 1
    34   22   23 ar
    35   22   31 ar
    36   23   24 ar
    37   23   43 1
    38   24   25 ar
    39   24   47 1
    40   25   26 ar
    41   25   31 ar
    42   26   27 1
    43   26   28 ar
    44   27   44 1
    45   27   45 1
    46   28   29 ar
    47   29   30 ar
    48   29   46 1
    49   30   31 ar
@<TRIPOS>SUBSTRUCTURE
     1 ATP         1 GROUP 0 A     ****
@<TRIPOS>MOLECULE
[5-(6-amino-7,8-dihydropurin-8-ylium-9-yl)-3,4-dihydroxy-tetrahydrofuran-2-yl]methyl [hydroxy(phosphonooxy)phosphoryl] phosphate
   47    49     1     0     0
SMALL
USER_CHARGES

@<TRIPOS>ATOM
      1 PG         -1.8284   -6.1243   -2.9426 P.3       1 ATP         1.8237
      2 O1G        -2.7036   -6.1162   -4.1610 O.2       1 ATP        -0.8455
      3 O2G        -2.6263   -6.1948   -1.5380 O.3       1 ATP        -0.7970
      4 O3G        -0.8132   -7.3794   -2.8465 O.3       1 ATP        -0.7970
      5 PB         -1.2156   -3.2698   -2.6167 P.3       1 ATP         1.9358
      6 O1B        -1.9614   -2.6671   -3.7703 O.2       1 ATP        -0.8836
      7 O2B        -1.9762   -3.1886   -1.1925 O.3       1 ATP        -0.8065
      8 O3B        -0.8671   -4.8396   -2.7643 O.3       1 ATP        -0.8233
      9 PA          1.5535   -2.4535   -3.2419 P.3       1 ATP         1.5686
     10 O1A         1.2363   -1.5482   -4.4124 O.co2     1 ATP        -0.8169
     11 O2A         2.1275   -3.8355   -3.4665 O.co2     1 ATP        -0.8169
     12 O3A         0.2209   -2.5966   -2.3113 O.3       1 ATP        -0.7987
     13 O5'         2.5237   -1.6631   -2.1889 O.3       1 ATP        -0.5693
     14 C5'         2.2816   -0.2918   -1.9206 C.3       1 ATP         0.1841
     15 C4'         2.7248    0.0226   -0.4980 C.3       1 ATP         0.0904
     16 O4'         2.4697    1.4219   -0.2462 O.3       1 ATP        -0.4083
     17 C3'         1.9404   -0.7419    0.5596 C.3       1 ATP         0.0826
     18 O3'         2.7418   -0.8086    1.7389 O.3       1 ATP        -0.6106
     19 C2'         0.7477    0.1630    0.7858 C.3       1 ATP         0.1294
     20 O2'         0.1373   -0.0577    2.0407 O.3       1 ATP        -0.5701
     21 C1'         1.3733    1.5427    0.6747 C.3       1 ATP         0.3967
     22 N9          0.4520    2.5240    0.1767 N.pl3     1 ATP        -0.5600
     23 C8          0.0623    3.6542    0.7479 C.ar      1 ATP         0.3009
     24 N7         -0.8074    4.3516    0.0193 N.pl3     1 ATP        -0.5113
     25 C5         -0.9855    3.6123   -1.0979 C.ar      1 ATP        -0.2824
     26 C6         -1.7474    3.7860   -2.2156 C.ar      1 ATP         0.7670
     27 N6         -2.5511    4.9389   -2.3303 N.pl3     1 ATP        -0.9491
     28 N1         -1.7375    2.8675   -3.2064 N.ar      1 ATP        -0.7474
     29 C2         -0.9330    1.7853   -3.0121 C.ar      1 ATP         0.7118
     30 N3         -0.1423    1.5179   -1.9478 N.ar      1 ATP        -0.6661
     31 C4         -0.2044    2.4690   -1.0113 C.ar      1 ATP         0.6308
     32 HOG2       -3.2587   -5.4789   -1.3150 H         1 ATP         0.4930
     33 HOG3       -0.1511   -7.5095   -3.5586 H         1 ATP         0.4930
     34 HOB2       -1.5399   -3.5655   -0.3989 H         1 ATP         0.4808
     35 H5'1        2.8429    0.3140   -2.6391 H         1 ATP         0.0350
     36 H5'2        1.2125   -0.0906   -2.0420 H         1 ATP         0.0350
     37 H4'         3.8050   -0.1388   -0.4008 H         1 ATP         0.1244
     38 H3'         1.6784   -1.7629    0.2714 H         1 ATP         0.0924
     39 HO3'        2.2232   -1.2979    2.3953 H         1 ATP         0.4379
     40 H2'        -0.0011    0.0027    0.0003 H         1 ATP         0.0849
     41 HO2'       -0.6141    0.5574    2.1082 H         1 ATP         0.4417
     42 H1'         1.7826    1.9024    1.6451 H         1 ATP         0.1307
     43 H8          0.4111    3.9873    1.7100 H         1 ATP         0.2875
     44 HN61       -2.5859    5.5874   -1.5698 H         1 ATP         0.4559
     45 HN62       -3.1449    5.0423   -3.1284 H         1 ATP         0.4559
     46 H2         -0.9279    1.0504   -3.8088 H         1 ATP         0.0858
     47 H47        -1.2303    5.2364    0.2633 H         1 ATP         0.5042
@<TRIPOS>BOND
     1    1    2 2
     2    1    3 1
     3    1    4 1
     4    1    8 1
     5    3   32 1
     6    4   33 1
     7    5    6 2
     8    5    7 1
     9    5    8 1
    10    5   12 1
    11    7   34 1
    12    9   10 2
    13    9   11 1
    14    9   12 1
    15    9   13 1
    16   13   14 1
    17   14   15 1
    18   14   35 1
    19   14   36 1
    20   15   16 1
    21   15   17 1
    22   15   37 1
    23   16   21 1
    24   17   18 1
    25   17   19 1
    26   17   38 1
    27   18   39 1
    28   19   20 1
    29   19   21 1
    30   19   40 1
    31   20   41 1
    32   21   22 1
    33   21   42 1
    34   22   23 ar
    35   22   31 ar
    36   23   24 ar
    37   23   43 1
    38   24   25 ar
    39   24   47 1
    40   25   26 ar
    41   25   31 ar
    42   26   27 1
    43   26   28 ar
    44   27   44 1
    45   27   45 1
    46   28   29 ar
    47   29   30 ar
    48   29   46 1
    49   30   31 ar
@<TRIPOS>SUBSTRUCTURE
     1 ATP         1 GROUP 0 A     ****
@<TRIPOS>MOLECULE
[5-(6-amino-7,8-dihydropurin-8-ylium-9-yl)-3,4-dihydroxy-tetrahydrofuran-2-yl]methyl [hydroxy(phosphonooxy)phosphoryl] phosphate
   47    49     1     0     0
SMALL
USER_CHARGES

@<TRIPOS>ATOM
      1 PG          6.3065   -4.2270   -2.1436 P.3       1 ATP         1.8237
      2 O1G         6.2476   -3.0257   -1.2470 O.2       1 ATP        -0.8455
      3 O2G         7.6563   -4.3459   -3.0260 O.3       1 ATP        -0.7970
      4 O3G         6.2491   -5.6488   -1.3752 O.3       1 ATP        -0.7970
      5 PB          4.7074   -3.3458   -4.4449 P.3       1 ATP         1.9358
      6 O1B         5.7702   -3.0980   -5.4742 O.2       1 ATP        -0.8836
      7 O2B         3.3453   -4.0057   -5.0128 O.3       1 ATP        -0.8065
      8 O3B         5.1288   -4.3375   -3.2422 O.3       1 ATP        -0.8233
      9 PA          3.4817   -0.6663   -4.2376 P.3       1 ATP         1.5686
     10 O1A         2.1248   -1.0219   -4.8054 O.co2     1 ATP        -0.8169
     11 O2A         4.4957    0.0866   -5.0712 O.co2     1 ATP        -0.8169
     12 O3A         4.1884   -2.0246   -3.6737 O.3       1 ATP        -0.7987
     13 O5'         3.2883    0.1336   -2.8242 O.3       1 ATP        -0.5693
     14 C5'         2.2816   -0.2918   -1.9206 C.3       1 ATP         0.1841
     15 C4'         2.7248    0.0226   -0.4980 C.3       1 ATP         0.0904
     16 O4'         2.4697    1.4219   -0.2462 O.3       1 ATP        -0.4083
     17 C3'         1.9404   -0.7419    0.5596 C.3       1 ATP         0.0826
     18 O3'         2.7418   -0.8086    1.7389 O.3       1 ATP        -0.6106
     19 C2'         0.7477    0.1630    0.7858 C.3       1 ATP         0.1294
     20 O2'         0.1373   -0.0577    2.0407 O.3       1 ATP        -0.5701
     21 C1'         1.3733    1.5427    0.6747 C.3       1 ATP         0.3967
     22 N9          0.4520    2.5240    0.1767 N.pl3     1 ATP        -0.5600
     23 C8         -0.3477    3.3274    0.8626 C.ar      1 ATP         0.3009
     24 N7         -1.0836    4.1323    0.0983 N.pl3     1 ATP        -0.5113
     25 C5         -0.7273    3.8194   -1.1674 C.ar      1 ATP        -0.2824
     26 C6         -1.1208    4.2877   -2.3863 C.ar      1 ATP         0.7670
     27 N6         -2.0932    5.3066   -2.4528 N.pl3     1 ATP        -0.9491
     28 N1         -0.5892    3.7853   -3.5223 N.ar      1 ATP        -0.7474
     29 C2          0.3427    2.8040   -3.3648 C.ar      1 ATP         0.7118
     30 N3          0.8012    2.2709   -2.2093 N.ar      1 ATP        -0.6661
     31 C4          0.2307    2.8167   -1.1312 C.ar      1 ATP         0.6308
     32 HOG2        8.5202   -4.4077   -2.5657 H         1 ATP         0.4930
     33 HOG3        6.9485   -5.8634   -0.7217 H         1 ATP         0.4930
     34 HOB2        2.8343   -3.5246   -5.6982 H         1 ATP         0.4808
     35 H5'1        1.3500    0.2325   -2.1560 H         1 ATP         0.0350
     36 H5'2        2.1266   -1.3683   -2.0443 H         1 ATP         0.0350
     37 H4'         3.8050   -0.1388   -0.4008 H         1 ATP         0.1244
     38 H3'         1.6784   -1.7629    0.2714 H         1 ATP         0.0924
     39 HO3'        3.5554   -1.2733    1.4914 H         1 ATP         0.4379
     40 H2'        -0.0011    0.0027    0.0003 H         1 ATP         0.0849
     41 HO2'       -0.6141    0.5574    2.1082 H         1 ATP         0.4417
     42 H1'         1.7826    1.9024    1.6451 H         1 ATP         0.1307
     43 H8         -0.4040    3.3373    1.9373 H         1 ATP         0.2875
     44 HN61       -2.5133    5.6366   -1.6073 H         1 ATP         0.4559
     45 HN62       -2.4153    5.6161   -3.3477 H         1 ATP         0.4559
     46 H2          0.7668    2.4032   -4.2782 H         1 ATP         0.0858
     47 H47        -1.7549    4.8194    0.4122 H         1 ATP         0.5042
@<TRIPOS>BOND
     1    1    2 2
     2    1    3 1
     3    1    4 1
     4    1    8 1
     5    3   32 1
     6    4   33 1
     7    5    6 2
     8    5    7 1
     9    5    8 1
    10    5   12 1
    11    7   34 1
    12    9   10 2
    13    9   11 1
    14    9   12 1
    15    9   13 1
    16   13   14 1
    17   14   15 1
    18   14   35 1
    19   14   36 1
    20   15   16 1
    21   15   17 1
    22   15   37 1
    23   16   21 1
    24   17   18 1
    25   17   19 1
    26   17   38 1
    27   18   39 1
    28   19   20 1
    29   19   21 1
    30   19   40 1
    31   20   41 1
    32   21   22 1
    33   21   42 1
    34   22   23 ar
    35   22   31 ar
    36   23   24 ar
    37   23   43 1
    38   24   25 ar
    39   24   47 1
    40   25   26 ar
    41   25   31 ar
    42   26   27 1
    43   26   28 ar
    44   27   44 1
    45   27   45 1
    46   28   29 ar
    47   29   30 ar
    48   29   46 1
    49   30   31 ar
@<TRIPOS>SUBSTRUCTURE
     1 ATP         1 GROUP 0 A     ****
@<TRIPOS>MOLECULE
[5-(6-amino-7,8-dihydropurin-8-ylium-9-yl)-3,4-dihydroxy-tetrahydrofuran-2-yl]methyl [hydroxy(phosphonooxy)phosphoryl] phosphate
   47    49     1     0     0
SMALL
USER_CHARGES

@<TRIPOS>ATOM
      1 PG          6.4165   -1.9251   -1.9428 P.3       1 ATP         1.8237
      2 O1G         6.7898   -3.3760   -2.0205 O.2       1 ATP        -0.8455
      3 O2G         5.9756   -1.4188   -0.4718 O.3       1 ATP        -0.7970
      4 O3G         7.6015   -0.8988   -2.3396 O.3       1 ATP        -0.7970
      5 PB          4.9987   -1.5262   -4.4846 P.3       1 ATP         1.9358
      6 O1B         6.0095   -0.7498   -5.2757 O.2       1 ATP        -0.8836
      7 O2B         4.9544   -3.1113   -4.7991 O.3       1 ATP        -0.8065
      8 O3B         5.1847   -1.4692   -2.8816 O.3       1 ATP        -0.8233
      9 PA          2.7386    0.3748   -4.4298 P.3       1 ATP         1.5686
     10 O1A         1.2524    0.2205   -4.6698 O.co2     1 ATP        -0.8169
     11 O2A         3.5296    1.4502   -5.1423 O.co2     1 ATP        -0.8169
     12 O3A         3.4667   -1.0606   -4.6985 O.3       1 ATP        -0.7987
     13 O5'         3.0197    0.5137   -2.8245 O.3       1 ATP        -0.5693
     14 C5'         2.2816   -0.2918   -1.9206 C.3       1 ATP         0.1841
     15 C4'         2.7248    0.0226   -0.4980 C.3       1 ATP         0.0904
     16 O4'         2.4697    1.4219   -0.2462 O.3       1 ATP        -0.4083
     17 C3'         1.9404   -0.7419    0.5596 C.3       1 ATP         0.0826
     18 O3'         2.7418   -0.8086    1.7389 O.3       1 ATP        -0.6106
     19 C2'         0.7477    0.1630    0.7858 C.3       1 ATP         0.1294
     20 O2'         0.1373   -0.0577    2.0407 O.3       1 ATP        -0.5701
     21 C1'         1.3733    1.5427    0.6747 C.3       1 ATP         0.3967
     22 N9          0.4520    2.5240    0.1767 N.pl3     1 ATP        -0.5600
     23 C8          0.0623    3.6542    0.7479 C.ar      1 ATP         0.3009
     24 N7         -0.8074    4.3516    0.0193 N.pl3     1 ATP        -0.5113
     25 C5         -0.9855    3.6123   -1.0979 C.ar      1 ATP        -0.2824
     26 C6         -1.7474    3.7860   -2.2156 C.ar      1 ATP         0.7670
     27 N6         -2.5511    4.9389   -2.3303 N.pl3     1 ATP        -0.9491
     28 N1         -1.7375    2.8675   -3.2064 N.ar      1 ATP        -0.7474
     29 C2         -0.9330    1.7853   -3.0121 C.ar      1 ATP         0.7118
     30 N3         -0.1423    1.5179   -1.9478 N.ar      1 ATP        -0.6661
     31 C4         -0.2044    2.4690   -1.0113 C.ar      1 ATP         0.6308
     32 HOG2        5.2033   -1.8391   -0.0370 H         1 ATP         0.4930
     33 HOG3        7.9906   -0.9483   -3.2388 H         1 ATP         0.4930
     34 HOB2        5.7618   -3.6478   -4.6499 H         1 ATP         0.4808
     35 H5'1        1.2153   -0.0781   -2.0454 H         1 ATP         0.0350
     36 H5'2        2.4645   -1.3454   -2.1547 H         1 ATP         0.0350
     37 H4'         3.8050   -0.1388   -0.4008 H         1 ATP         0.1244
     38 H3'         1.6784   -1.7629    0.2714 H         1 ATP         0.0924
     39 HO3'        2.2232   -1.2979    2.3953 H         1 ATP         0.4379
     40 H2'        -0.0011    0.0027    0.0003 H         1 ATP         0.0849
     41 HO2'       -0.6141    0.5574    2.1082 H         1 ATP         0.4417
     42 H1'         1.7826    1.9024    1.6451 H         1 ATP         0.1307
     43 H8          0.4111    3.9873    1.7100 H         1 ATP         0.2875
     44 HN61       -2.5859    5.5874   -1.5698 H         1 ATP         0.4559
     45 HN62       -3.1449    5.0423   -3.1284 H         1 ATP         0.4559
     46 H2         -0.9279    1.0504   -3.8088 H         1 ATP         0.0858
     47 H47        -1.2303    5.2364    0.2633 H         1 ATP         0.5042
@<TRIPOS>BOND
     1    1    2 2
     2    1    3 1
     3    1    4 1
     4    1    8 1
     5    3   32 1
     6    4   33 1
     7    5    6 2
     8    5    7 1
     9    5    8 1
    10    5   12 1
    11    7   34 1
    12    9   10 2
    13    9   11 1
    14    9   12 1
    15    9   13 1
    16   13   14 1
    17   14   15 1
    18   14   35 1
    19   14   36 1
    20   15   16 1
    21   15   17 1
    22   15   37 1
    23   16   21 1
    24   17   18 1
    25   17   19 1
    26   17   38 1
    27   18   39 1
    28   19   20 1
    29   19   21 1
    30   19   40 1
    31   20   41 1
    32   21   22 1
    33   21   42 1
    34   22   23 ar
    35   22   31 ar
    36   23   24 ar
    37   23   43 1
    38   24   25 ar
    39   24   47 1
    40   25   26 ar
    41   25   31 ar
    42   26   27 1
    43   26   28 ar
    44   27   44 1
    45   27   45 1
    46   28   29 ar
    47   29   30 ar
    48   29   46 1
    49   30   31 ar
@<TRIPOS>SUBSTRUCTURE
     1 ATP         1 GROUP 0 A     ****
@<TRIPOS>MOLECULE
[5-(6-amino-7,8-dihydropurin-8-ylium-9-yl)-3,4-dihydroxy-tetrahydrofuran-2-yl]methyl [hydroxy(phosphonooxy)phosphoryl] phosphate
   47    49     1     0     0
SMALL
USER_CHARGES

@<TRIPOS>ATOM
      1 PG          5.0085    1.0380   -6.0770 P.3       1 ATP         1.8237
      2 O1G         4.1510    1.9513   -6.9021 O.2       1 ATP        -0.8455
      3 O2G         6.6000    1.2371   -6.2824 O.3       1 ATP        -0.7970
      4 O3G         4.8262    1.1989   -4.4782 O.3       1 ATP        -0.7970
      5 PB          3.4815   -1.4701   -6.1628 P.3       1 ATP         1.9358
      6 O1B         2.3063   -1.0794   -7.0094 O.2       1 ATP        -0.8836
      7 O2B         4.0458   -2.9626   -6.4222 O.3       1 ATP        -0.8065
      8 O3B         4.7920   -0.5417   -6.3301 O.3       1 ATP        -0.8233
      9 PA          2.1361   -2.2694   -3.6576 P.3       1 ATP         1.5686
     10 O1A         2.4847   -3.7413   -3.7034 O.co2     1 ATP        -0.8169
     11 O2A         0.7444   -1.7928   -4.0127 O.co2     1 ATP        -0.8169
     12 O3A         3.2088   -1.4460   -4.5707 O.3       1 ATP        -0.7987
     13 O5'         2.5237   -1.6631   -2.1889 O.3       1 ATP        -0.5693
     14 C5'         2.2816   -0.2918   -1.9206 C.3       1 ATP         0.1841
     15 C4'         2.7248    0.0226   -0.4980 C.3       1 ATP         0.0904
     16 O4'         2.4697    1.4219   -0.2462 O.3       1 ATP        -0.4083
     17 C3'         1.9404   -0.7419    0.5596 C.3       1 ATP         0.0826
     18 O3'         2.7418   -0.8086    1.7389 O.3       1 ATP        -0.6106
     19 C2'         0.7477    0.1630    0.7858 C.3       1 ATP         0.1294
     20 O2'         0.1373   -0.0577    2.0407 O.3       1 ATP        -0.5701
     21 C1'         1.3733    1.5427    0.6747 C.3       1 ATP         0.3967
     22 N9          0.4520    2.5240    0.1767 N.pl3     1 ATP        -0.5600
     23 C8          0.0623    3.6542    0.7479 C.ar      1 ATP         0.3009
     24 N7         -0.8074    4.3516    0.0193 N.pl3     1 ATP        -0.5113
     25 C5         -0.9855    3.6123   -1.0979 C.ar      1 ATP        -0.2824
     26 C6         -1.7474    3.7860   -2.2156 C.ar      1 ATP         0.7670
     27 N6         -2.5511    4.9389   -2.3303 N.pl3     1 ATP        -0.9491
     28 N1         -1.7375    2.8675   -3.2064 N.ar      1 ATP        -0.7474
     29 C2         -0.9330    1.7853   -3.0121 C.ar      1 ATP         0.7118
     30 N3         -0.1423    1.5179   -1.9478 N.ar      1 ATP        -0.6661
     31 C4         -0.2044    2.4690   -1.0113 C.ar      1 ATP         0.6308
     32 HOG2        6.9834    1.1051   -7.1755 H         1 ATP         0.4930
     33 HOG3        5.3579    0.6309   -3.8807 H         1 ATP         0.4930
     34 HOB2        3.4488   -3.7276   -6.2792 H         1 ATP         0.4808
     35 H5'1        2.8429    0.3140   -2.6391 H         1 ATP         0.0350
     36 H5'2        1.2125   -0.0906   -2.0420 H         1 ATP         0.0350
     37 H4'         3.8050   -0.1388   -0.4008 H         1 ATP         0.1244
     38 H3'         1.6784   -1.7629    0.2714 H         1 ATP         0.0924
     39 HO3'        2.2232   -1.2979    2.3953 H         1 ATP         0.4379
     40 H2'        -0.0011    0.0027    0.0003 H         1 ATP         0.0849
     41 HO2'       -0.6141    0.5574    2.1082 H         1 ATP         0.4417
     42 H1'         1.7826    1.9024    1.6451 H         1 ATP         0.1307
     43 H8          0.4111    3.9873    1.7100 H         1 ATP         0.2875
     44 HN61       -2.5859    5.5874   -1.5698 H         1 ATP         0.4559
     45 HN62       -3.1449    5.0423   -3.1284 H         1 ATP         0.4559
     46 H2         -0.9279    1.0504   -3.8088 H         1 ATP         0.0858
     47 H47        -1.2303    5.2364    0.2633 H         1 ATP         0.5042
@<TRIPOS>BOND
     1    1    2 2
     2    1    3 1
     3    1    4 1
     4    1    8 1
     5    3   32 1
     6    4   33 1
     7    5    6 2
     8    5    7 1
     9    5    8 1
    10    5   12 1
    11    7   34 1
    12    9   10 2
    13    9   11 1
    14    9   12 1
    15    9   13 1
    16   13   14 1
    17   14   15 1
    18   14   35 1
    19   14   36 1
    20   15   16 1
    21   15   17 1
    22   15   37 1
    23   16   21 1
    24   17   18 1
    25   17   19 1
    26   17   38 1
    27   18   39 1
    28   19   20 1
    29   19   21 1
    30   19   40 1
    31   20   41 1
    32   21   22 1
    33   21   42 1
    34   22   23 ar
    35   22   31 ar
    36   23   24 ar
    37   23   43 1
    38   24   25 ar
    39   24   47 1
    40   25   26 ar
    41   25   31 ar
    42   26   27 1
    43   26   28 ar
    44   27   44 1
    45   27   45 1
    46   28   29 ar
    47   29   30 ar
    48   29   46 1
    49   30   31 ar
@<TRIPOS>SUBSTRUCTURE
     1 ATP         1 GROUP 0 A     ****
@<TRIPOS>MOLECULE
[5-(6-amino-7,8-dihydropurin-8-ylium-9-yl)-3,4-dihydroxy-tetrahydrofuran-2-yl]methyl [hydroxy(phosphonooxy)phosphoryl] phosphate
   47    49     1     0     0
SMALL
USER_CHARGES

@<TRIPOS>ATOM
      1 PG          1.9421   -4.0290   -7.0215 P.3       1 ATP         1.8237
      2 O1G         0.5921   -4.6830   -7.0363 O.2       1 ATP        -0.8455
      3 O2G         3.1537   -4.9909   -6.5510 O.3       1 ATP        -0.7970
      4 O3G         2.4472   -3.4859   -8.4585 O.3       1 ATP        -0.7970
      5 PB          1.3000   -1.3334   -6.0459 P.3       1 ATP         1.9358
      6 O1B         1.4290   -0.5198   -7.2997 O.2       1 ATP        -0.8836
      7 O2B        -0.2116   -1.7504   -5.6531 O.3       1 ATP        -0.8065
      8 O3B         2.0856   -2.7442   -6.0545 O.3       1 ATP        -0.8233
      9 PA          3.3322   -0.0533   -4.3265 P.3       1 ATP         1.5686
     10 O1A         3.6696    1.1035   -5.2420 O.co2     1 ATP        -0.8169
     11 O2A         4.2664   -1.2369   -4.1994 O.co2     1 ATP        -0.8169
     12 O3A         1.8470   -0.6107   -4.7087 O.3       1 ATP        -0.7987
     13 O5'         3.0197    0.5137   -2.8245 O.3       1 ATP        -0.5693
     14 C5'         2.2816   -0.2918   -1.9206 C.3       1 ATP         0.1841
     15 C4'         2.7248    0.0226   -0.4980 C.3       1 ATP         0.0904
     16 O4'         2.4697    1.4219   -0.2462 O.3       1 ATP        -0.4083
     17 C3'         1.9404   -0.7419    0.5596 C.3       1 ATP         0.0826
     18 O3'         2.7418   -0.8086    1.7389 O.3       1 ATP        -0.6106
     19 C2'         0.7477    0.1630    0.7858 C.3       1 ATP         0.1294
     20 O2'         0.1373   -0.0577    2.0407 O.3       1 ATP        -0.5701
     21 C1'         1.3733    1.5427    0.6747 C.3       1 ATP         0.3967
     22 N9          0.4520    2.5240    0.1767 N.pl3     1 ATP        -0.5600
     23 C8          0.0623    3.6542    0.7479 C.ar      1 ATP         0.3009
     24 N7         -0.8074    4.3516    0.0193 N.pl3     1 ATP        -0.5113
     25 C5         -0.9855    3.6123   -1.0979 C.ar      1 ATP        -0.2824
     26 C6         -1.7474    3.7860   -2.2156 C.ar      1 ATP         0.7670
     27 N6         -2.5511    4.9389   -2.3303 N.pl3     1 ATP        -0.9491
     28 N1         -1.7375    2.8675   -3.2064 N.ar      1 ATP        -0.7474
     29 C2         -0.9330    1.7853   -3.0121 C.ar      1 ATP         0.7118
     30 N3         -0.1423    1.5179   -1.9478 N.ar      1 ATP        -0.6661
     31 C4         -0.2044    2.4690   -1.0113 C.ar      1 ATP         0.6308
     32 HOG2        3.1234   -5.3884   -5.6548 H         1 ATP         0.4930
     33 HOG3        1.9117   -2.8088   -8.9246 H         1 ATP         0.4930
     34 HOB2       -0.7338   -2.2918   -6.2827 H         1 ATP         0.4808
     35 H5'1        1.2153   -0.0781   -2.0454 H         1 ATP         0.0350
     36 H5'2        2.4645   -1.3454   -2.1547 H         1 ATP         0.0350
     37 H4'         3.8050   -0.1388   -0.4008 H         1 ATP         0.1244
     38 H3'         1.6784   -1.7629    0.2714 H         1 ATP         0.0924
     39 HO3'        2.2232   -1.2979    2.3953 H         1 ATP         0.4379
     40 H2'        -0.0011    0.0027    0.0003 H         1 ATP         0.0849
     41 HO2'       -0.1563   -0.9855    2.0596 H         1 ATP         0.4417
     42 H1'         1.7826    1.9024    1.6451 H         1 ATP         0.1307
     43 H8          0.4111    3.9873    1.7100 H         1 ATP         0.2875
     44 HN61       -3.0729    5.0887   -3.1702 H         1 ATP         0.4559
     45 HN62       -2.5136    5.6334   -1.6116 H         1 ATP         0.4559
     46 H2         -0.9279    1.0504   -3.8088 H         1 ATP         0.0858
     47 H47        -1.2303    5.2364    0.2633 H         1 ATP         0.5042
@<TRIPOS>BOND
     1    1    2 2
     2    1    3 1
     3    1    4 1
     4    1    8 1
     5    3   32 1
     6    4   33 1
     7    5    6 2
     8    5    7 1
     9    5    8 1
    10    5   12 1
    11    7   34 1
    12    9   10 2
    13    9   11 1
    14    9   12 1
    15    9   13 1
    16   13   14 1
    17   14   15 1
    18   14   35 1
    19   14   36 1
    20   15   16 1
    21   15   17 1
    22   15   37 1
    23   16   21 1
    24   17   18 1
    25   17   19 1
    26   17   38 1
    27   18   39 1
    28   19   20 1
    29   19   21 1
    30   19   40 1
    31   20   41 1
    32   21   22 1
    33   21   42 1
    34   22   23 ar
    35   22   31 ar
    36   23   24 ar
    37   23   43 1
    38   24   25 ar
    39   24   47 1
    40   25   26 ar
    41   25   31 ar
    42   26   27 1
    43   26   28 ar
    44   27   44 1
    45   27   45 1
    46   28   29 ar
    47   29   30 ar
    48   29   46 1
    49   30   31 ar
@<TRIPOS>SUBSTRUCTURE
     1 ATP         1 GROUP 0 A     ****
@<TRIPOS>MOLECULE
[5-(6-amino-7,8-dihydropurin-8-ylium-9-yl)-3,4-dihydroxy-tetrahydrofuran-2-yl]methyl [hydroxy(phosphonooxy)phosphoryl] phosphate
   47    49     1     0     0
SMALL
USER_CHARGES

@<TRIPOS>ATOM
      1 PG          7.4079   -1.4823   -6.8459 P.3       1 ATP         1.8237
      2 O1G         7.0139   -2.3182   -8.0276 O.2       1 ATP        -0.8455
      3 O2G         8.5802   -2.1166   -5.9304 O.3       1 ATP        -0.7970
      4 O3G         7.9880   -0.0186   -7.2152 O.3       1 ATP        -0.7970
      5 PB          5.3185   -2.1638   -4.8966 P.3       1 ATP         1.9358
      6 O1B         4.4867   -3.1403   -5.6744 O.2       1 ATP        -0.8836
      7 O2B         6.3792   -2.8299   -3.8746 O.3       1 ATP        -0.8065
      8 O3B         6.2305   -1.1715   -5.7861 O.3       1 ATP        -0.8233
      9 PA          3.3322   -0.0533   -4.3265 P.3       1 ATP         1.5686
     10 O1A         2.1130   -0.7769   -4.8559 O.co2     1 ATP        -0.8169
     11 O2A         3.9798    1.0571   -5.1250 O.co2     1 ATP        -0.8169
     12 O3A         4.4780   -1.1544   -3.9562 O.3       1 ATP        -0.7987
     13 O5'         3.0197    0.5137   -2.8245 O.3       1 ATP        -0.5693
     14 C5'         2.2816   -0.2918   -1.9206 C.3       1 ATP         0.1841
     15 C4'         2.7248    0.0226   -0.4980 C.3       1 ATP         0.0904
     16 O4'         2.4697    1.4219   -0.2462 O.3       1 ATP        -0.4083
     17 C3'         1.9404   -0.7419    0.5596 C.3       1 ATP         0.0826
     18 O3'         2.7418   -0.8086    1.7389 O.3       1 ATP        -0.6106
     19 C2'         0.7477    0.1630    0.7858 C.3       1 ATP         0.1294
     20 O2'         0.1373   -0.0577    2.0407 O.3       1 ATP        -0.5701
     21 C1'         1.3733    1.5427    0.6747 C.3       1 ATP         0.3967
     22 N9          0.4520    2.5240    0.1767 N.pl3     1 ATP        -0.5600
     23 C8          0.0623    3.6542    0.7479 C.ar      1 ATP         0.3009
     24 N7         -0.8074    4.3516    0.0193 N.pl3     1 ATP        -0.5113
     25 C5         -0.9855    3.6123   -1.0979 C.ar      1 ATP        -0.2824
     26 C6         -1.7474    3.7860   -2.2156 C.ar      1 ATP         0.7670
     27 N6         -2.5511    4.9389   -2.3303 N.pl3     1 ATP        -0.9491
     28 N1         -1.7375    2.8675   -3.2064 N.ar      1 ATP        -0.7474
     29 C2         -0.9330    1.7853   -3.0121 C.ar      1 ATP         0.7118
     30 N3         -0.1423    1.5179   -1.9478 N.ar      1 ATP        -0.6661
     31 C4         -0.2044    2.4690   -1.0113 C.ar      1 ATP         0.6308
     32 HOG2        8.8862   -1.6213   -5.1410 H         1 ATP         0.4930
     33 HOG3        7.4168    0.6069   -7.7101 H         1 ATP         0.4930
     34 HOB2        7.0727   -3.4251   -4.2310 H         1 ATP         0.4808
     35 H5'1        1.2153   -0.0781   -2.0454 H         1 ATP         0.0350
     36 H5'2        2.4645   -1.3454   -2.1547 H         1 ATP         0.0350
     37 H4'         3.8050   -0.1388   -0.4008 H         1 ATP         0.1244
     38 H3'         1.6784   -1.7629    0.2714 H         1 ATP         0.0924
     39 HO3'        2.2232   -1.2979    2.3953 H         1 ATP         0.4379
     40 H2'        -0.0011    0.0027    0.0003 H         1 ATP         0.0849
     41 HO2'       -0.6141    0.5574    2.1082 H         1 ATP         0.4417
     42 H1'         1.7826    1.9024    1.6451 H         1 ATP         0.1307
     43 H8          0.4111    3.9873    1.7100 H         1 ATP         0.2875
     44 HN61       -2.5859    5.5874   -1.5698 H         1 ATP         0.4559
     45 HN62       -3.1449    5.0423   -3.1284 H         1 ATP         0.4559
     46 H2         -0.9279    1.0504   -3.8088 H         1 ATP         0.0858
     47 H47        -1.2303    5.2364    0.2633 H         1 ATP         0.5042
@<TRIPOS>BOND
     1    1    2 2
     2    1    3 1
     3    1    4 1
     4    1    8 1
     5    3   32 1
     6    4   33 1
     7    5    6 2
     8    5    7 1
     9    5    8 1
    10    5   12 1
    11    7   34 1
    12    9   10 2
    13    9   11 1
    14    9   12 1
    15    9   13 1
    16   13   14 1
    17   14   15 1
    18   14   35 1
    19   14   36 1
    20   15   16 1
    21   15   17 1
    22   15   37 1
    23   16   21 1
    24   17   18 1
    25   17   19 1
    26   17   38 1
    27   18   39 1
    28   19   20 1
    29   19   21 1
    30   19   40 1
    31   20   41 1
    32   21   22 1
    33   21   42 1
    34   22   23 ar
    35   22   31 ar
    36   23   24 ar
    37   23   43 1
    38   24   25 ar
    39   24   47 1
    40   25   26 ar
    41   25   31 ar
    42   26   27 1
    43   26   28 ar
    44   27   44 1
    45   27   45 1
    46   28   29 ar
    47   29   30 ar
    48   29   46 1
    49   30   31 ar
@<TRIPOS>SUBSTRUCTURE
     1 ATP         1 GROUP 0 A     ****
@<TRIPOS>MOLECULE
[5-(6-amino-7,8-dihydropurin-8-ylium-9-yl)-3,4-dihydroxy-tetrahydrofuran-2-yl]methyl [hydroxy(phosphonooxy)phosphoryl] phosphate
   47    49     1     0     0
SMALL
USER_CHARGES

@<TRIPOS>ATOM
      1 PG          4.2475   -4.3951   -4.5520 P.3       1 ATP         1.8237
      2 O1G         5.4946   -4.5148   -5.3770 O.2       1 ATP        -0.8455
      3 O2G         3.6314   -5.8034   -4.0505 O.3       1 ATP        -0.7970
      4 O3G         4.4236   -3.5654   -3.1750 O.3       1 ATP        -0.7970
      5 PB          2.8429   -2.1899   -5.8915 P.3       1 ATP         1.9358
      6 O1B         3.7972   -1.8523   -6.9986 O.2       1 ATP        -0.8836
      7 O2B         1.2780   -2.1114   -6.2890 O.3       1 ATP        -0.8065
      8 O3B         2.9972   -3.6748   -5.2758 O.3       1 ATP        -0.8233
      9 PA          2.7386    0.3748   -4.4298 P.3       1 ATP         1.5686
     10 O1A         1.2920    0.7120   -4.7193 O.co2     1 ATP        -0.8169
     11 O2A         3.8587    1.0755   -5.1675 O.co2     1 ATP        -0.8169
     12 O3A         2.9461   -1.2355   -4.5921 O.3       1 ATP        -0.7987
     13 O5'         3.0197    0.5137   -2.8245 O.3       1 ATP        -0.5693
     14 C5'         2.2816   -0.2918   -1.9206 C.3       1 ATP         0.1841
     15 C4'         2.7248    0.0226   -0.4980 C.3       1 ATP         0.0904
     16 O4'         2.4697    1.4219   -0.2462 O.3       1 ATP        -0.4083
     17 C3'         1.9404   -0.7419    0.5596 C.3       1 ATP         0.0826
     18 O3'         2.7418   -0.8086    1.7389 O.3       1 ATP        -0.6106
     19 C2'         0.7477    0.1630    0.7858 C.3       1 ATP         0.1294
     20 O2'         0.1373   -0.0577    2.0407 O.3       1 ATP        -0.5701
     21 C1'         1.3733    1.5427    0.6747 C.3       1 ATP         0.3967
     22 N9          0.4520    2.5240    0.1767 N.pl3     1 ATP        -0.5600
     23 C8          0.0623    3.6542    0.7479 C.ar      1 ATP         0.3009
     24 N7         -0.8074    4.3516    0.0193 N.pl3     1 ATP        -0.5113
     25 C5         -0.9855    3.6123   -1.0979 C.ar      1 ATP        -0.2824
     26 C6         -1.7474    3.7860   -2.2156 C.ar      1 ATP         0.7670
     27 N6         -2.5511    4.9389   -2.3303 N.pl3     1 ATP        -0.9491
     28 N1         -1.7375    2.8675   -3.2064 N.ar      1 ATP        -0.7474
     29 C2         -0.9330    1.7853   -3.0121 C.ar      1 ATP         0.7118
     30 N3         -0.1423    1.5179   -1.9478 N.ar      1 ATP        -0.6661
     31 C4         -0.2044    2.4690   -1.0113 C.ar      1 ATP         0.6308
     32 HOG2        3.3559   -6.4659   -4.7194 H         1 ATP         0.4930
     33 HOG3        4.7144   -2.6295   -3.2191 H         1 ATP         0.4930
     34 HOB2        0.9094   -1.2574   -6.6005 H         1 ATP         0.4808
     35 H5'1        1.2153   -0.0781   -2.0454 H         1 ATP         0.0350
     36 H5'2        2.4645   -1.3454   -2.1547 H         1 ATP         0.0350
     37 H4'         3.8050   -0.1388   -0.4008 H         1 ATP         0.1244
     38 H3'         1.6784   -1.7629    0.2714 H         1 ATP         0.0924
     39 HO3'        2.2232   -1.2979    2.3953 H         1 ATP         0.4379
     40 H2'        -0.0011    0.0027    0.0003 H         1 ATP         0.0849
     41 HO2'       -0.6141    0.5574    2.1082 H         1 ATP         0.4417
     42 H1'         1.7826    1.9024    1.6451 H         1 ATP         0.1307
     43 H8          0.4111    3.9873    1.7100 H         1 ATP         0.2875
     44 HN61       -2.5859    5.5874   -1.5698 H         1 ATP         0.4559
     45 HN62       -3.1449    5.0423   -3.1284 H         1 ATP         0.4559
     46 H2         -0.9279    1.0504   -3.8088 H         1 ATP         0.0858
     47 H47        -1.2303    5.2364    0.2633 H         1 ATP         0.5042
@<TRIPOS>BOND
     1    1    2 2
     2    1    3 1
     3    1    4 1
     4    1    8 1
     5    3   32 1
     6    4   33 1
     7    5    6 2
     8    5    7 1
     9    5    8 1
    10    5   12 1
    11    7   34 1
    12    9   10 2
    13    9   11 1
    14    9   12 1
    15    9   13 1
    16   13   14 1
    17   14   15 1
    18   14   35 1
    19   14   36 1
    20   15   16 1
    21   15   17 1
    22   15   37 1
    23   16   21 1
    24   17   18 1
    25   17   19 1
    26   17   38 1
    27   18   39 1
    28   19   20 1
    29   19   21 1
    30   19   40 1
    31   20   41 1
    32   21   22 1
    33   21   42 1
    34   22   23 ar
    35   22   31 ar
    36   23   24 ar
    37   23   43 1
    38   24   25 ar
    39   24   47 1
    40   25   26 ar
    41   25   31 ar
    42   26   27 1
    43   26   28 ar
    44   27   44 1
    45   27   45 1
    46   28   29 ar
    47   29   30 ar
    48   29   46 1
    49   30   31 ar
@<TRIPOS>SUBSTRUCTURE
     1 ATP         1 GROUP 0 A     ****
@<TRIPOS>MOLECULE
[5-(6-amino-7,8-dihydropurin-8-ylium-9-yl)-3,4-dihydroxy-tetrahydrofuran-2-yl]methyl [hydroxy(phosphonooxy)phosphoryl] phosphate
   47    49     1     0     0
SMALL
USER_CHARGES

@<TRIPOS>ATOM
      1 PG          3.0173   -5.0801   -4.0989 P.3       1 ATP         1.8237
      2 O1G         3.1162   -5.4974   -2.6614 O.2       1 ATP        -0.8455
      3 O2G         3.0732   -6.2979   -5.1612 O.3       1 ATP        -0.7970
      4 O3G         1.6447   -4.3200   -4.4905 O.3       1 ATP        -0.7970
      5 PB          4.5889   -2.5983   -4.1200 P.3       1 ATP         1.9358
      6 O1B         5.0181   -2.5004   -2.6859 O.2       1 ATP        -0.8836
      7 O2B         5.7017   -2.1421   -5.2002 O.3       1 ATP        -0.8065
      8 O3B         4.1716   -4.0772   -4.6164 O.3       1 ATP        -0.8233
      9 PA          3.0648   -0.0870   -4.4293 P.3       1 ATP         1.5686
     10 O1A         1.6239    0.2105   -4.7833 O.co2     1 ATP        -0.8169
     11 O2A         4.1983    0.5973   -5.1621 O.co2     1 ATP        -0.8169
     12 O3A         3.3035   -1.6993   -4.5064 O.3       1 ATP        -0.7987
     13 O5'         3.2883    0.1336   -2.8242 O.3       1 ATP        -0.5693
     14 C5'         2.2816   -0.2918   -1.9206 C.3       1 ATP         0.1841
     15 C4'         2.7248    0.0226   -0.4980 C.3       1 ATP         0.0904
     16 O4'         2.4697    1.4219   -0.2462 O.3       1 ATP        -0.4083
     17 C3'         1.9404   -0.7419    0.5596 C.3       1 ATP         0.0826
     18 O3'         2.7418   -0.8086    1.7389 O.3       1 ATP        -0.6106
     19 C2'         0.7477    0.1630    0.7858 C.3       1 ATP         0.1294
     20 O2'         0.1373   -0.0577    2.0407 O.3       1 ATP        -0.5701
     21 C1'         1.3733    1.5427    0.6747 C.3       1 ATP         0.3967
     22 N9          0.4520    2.5240    0.1767 N.pl3     1 ATP        -0.5600
     23 C8          0.0623    3.6542    0.7479 C.ar      1 ATP         0.3009
     24 N7         -0.8074    4.3516    0.0193 N.pl3     1 ATP        -0.5113
     25 C5         -0.9855    3.6123   -1.0979 C.ar      1 ATP        -0.2824
     26 C6         -1.7474    3.7860   -2.2156 C.ar      1 ATP         0.7670
     27 N6         -2.5511    4.9389   -2.3303 N.pl3     1 ATP        -0.9491
     28 N1         -1.7375    2.8675   -3.2064 N.ar      1 ATP        -0.7474
     29 C2         -0.9330    1.7853   -3.0121 C.ar      1 ATP         0.7118
     30 N3         -0.1423    1.5179   -1.9478 N.ar      1 ATP        -0.6661
     31 C4         -0.2044    2.4690   -1.0113 C.ar      1 ATP         0.6308
     32 HOG2        3.8677   -6.8728   -5.1827 H         1 ATP         0.4930
     33 HOG3        1.4190   -3.4824   -4.0322 H         1 ATP         0.4930
     34 HOB2        6.0452   -1.2238   -5.1693 H         1 ATP         0.4808
     35 H5'1        1.3500    0.2325   -2.1560 H         1 ATP         0.0350
     36 H5'2        2.1266   -1.3683   -2.0443 H         1 ATP         0.0350
     37 H4'         3.8050   -0.1388   -0.4008 H         1 ATP         0.1244
     38 H3'         1.6784   -1.7629    0.2714 H         1 ATP         0.0924
     39 HO3'        2.2232   -1.2979    2.3953 H         1 ATP         0.4379
     40 H2'        -0.0011    0.0027    0.0003 H         1 ATP         0.0849
     41 HO2'       -0.6141    0.5574    2.1082 H         1 ATP         0.4417
     42 H1'         1.7826    1.9024    1.6451 H         1 ATP         0.1307
     43 H8          0.4111    3.9873    1.7100 H         1 ATP         0.2875
     44 HN61       -2.5859    5.5874   -1.5698 H         1 ATP         0.4559
     45 HN62       -3.1449    5.0423   -3.1284 H         1 ATP         0.4559
     46 H2         -0.9279    1.0504   -3.8088 H         1 ATP         0.0858
     47 H47        -1.2303    5.2364    0.2633 H         1 ATP         0.5042
@<TRIPOS>BOND
     1    1    2 2
     2    1    3 1
     3    1    4 1
     4    1    8 1
     5    3   32 1
     6    4   33 1
     7    5    6 2
     8    5    7 1
     9    5    8 1
    10    5   12 1
    11    7   34 1
    12    9   10 2
    13    9   11 1
    14    9   12 1
    15    9   13 1
    16   13   14 1
    17   14   15 1
    18   14   35 1
    19   14   36 1
    20   15   16 1
    21   15   17 1
    22   15   37 1
    23   16   21 1
    24   17   18 1
    25   17   19 1
    26   17   38 1
    27   18   39 1
    28   19   20 1
    29   19   21 1
    30   19   40 1
    31   20   41 1
    32   21   22 1
    33   21   42 1
    34   22   23 ar
    35   22   31 ar
    36   23   24 ar
    37   23   43 1
    38   24   25 ar
    39   24   47 1
    40   25   26 ar
    41   25   31 ar
    42   26   27 1
    43   26   28 ar
    44   27   44 1
    45   27   45 1
    46   28   29 ar
    47   29   30 ar
    48   29   46 1
    49   30   31 ar
@<TRIPOS>SUBSTRUCTURE
     1 ATP         1 GROUP 0 A     ****
@<TRIPOS>MOLECULE
[5-(6-amino-7,8-dihydropurin-8-ylium-9-yl)-3,4-dihydroxy-tetrahydrofuran-2-yl]methyl [hydroxy(phosphonooxy)phosphoryl] phosphate
   47    49     1     0     0
SMALL
USER_CHARGES

@<TRIPOS>ATOM
      1 PG          4.6671   -2.2954   -8.1917 P.3       1 ATP         1.8237
      2 O1G         3.7092   -2.3219   -9.3459 O.2       1 ATP        -0.8455
      3 O2G         5.2500   -3.7418   -7.7642 O.3       1 ATP        -0.7970
      4 O3G         6.0063   -1.4245   -8.4431 O.3       1 ATP        -0.7970
      5 PB          2.8429   -2.1899   -5.8915 P.3       1 ATP         1.9358
      6 O1B         1.5038   -2.1912   -6.5676 O.2       1 ATP        -0.8836
      7 O2B         3.3316   -3.6280   -5.3380 O.3       1 ATP        -0.8065
      8 O3B         4.0794   -1.7039   -6.8094 O.3       1 ATP        -0.8233
      9 PA          2.7386    0.3748   -4.4298 P.3       1 ATP         1.5686
     10 O1A         1.2920    0.7120   -4.7193 O.co2     1 ATP        -0.8169
     11 O2A         3.8587    1.0755   -5.1675 O.co2     1 ATP        -0.8169
     12 O3A         2.9461   -1.2355   -4.5921 O.3       1 ATP        -0.7987
     13 O5'         3.0197    0.5137   -2.8245 O.3       1 ATP        -0.5693
     14 C5'         2.2816   -0.2918   -1.9206 C.3       1 ATP         0.1841
     15 C4'         2.7248    0.0226   -0.4980 C.3       1 ATP         0.0904
     16 O4'         2.4697    1.4219   -0.2462 O.3       1 ATP        -0.4083
     17 C3'         1.9404   -0.7419    0.5596 C.3       1 ATP         0.0826
     18 O3'         2.7418   -0.8086    1.7389 O.3       1 ATP        -0.6106
     19 C2'         0.7477    0.1630    0.7858 C.3       1 ATP         0.1294
     20 O2'         0.1373   -0.0577    2.0407 O.3       1 ATP        -0.5701
     21 C1'         1.3733    1.5427    0.6747 C.3       1 ATP         0.3967
     22 N9          0.4520    2.5240    0.1767 N.pl3     1 ATP        -0.5600
     23 C8          0.0623    3.6542    0.7479 C.ar      1 ATP         0.3009
     24 N7         -0.8074    4.3516    0.0193 N.pl3     1 ATP        -0.5113
     25 C5         -0.9855    3.6123   -1.0979 C.ar      1 ATP        -0.2824
     26 C6         -1.7474    3.7860   -2.2156 C.ar      1 ATP         0.7670
     27 N6         -2.5511    4.9389   -2.3303 N.pl3     1 ATP        -0.9491
     28 N1         -1.7375    2.8675   -3.2064 N.ar      1 ATP        -0.7474
     29 C2         -0.9330    1.7853   -3.0121 C.ar      1 ATP         0.7118
     30 N3         -0.1423    1.5179   -1.9478 N.ar      1 ATP        -0.6661
     31 C4         -0.2044    2.4690   -1.0113 C.ar      1 ATP         0.6308
     32 HOG2        4.6236   -4.4400   -7.4774 H         1 ATP         0.4930
     33 HOG3        6.6027   -1.6739   -9.1810 H         1 ATP         0.4930
     34 HOB2        4.1996   -3.6928   -4.8857 H         1 ATP         0.4808
     35 H5'1        1.2153   -0.0781   -2.0454 H         1 ATP         0.0350
     36 H5'2        2.4645   -1.3454   -2.1547 H         1 ATP         0.0350
     37 H4'         3.8050   -0.1388   -0.4008 H         1 ATP         0.1244
     38 H3'         1.6784   -1.7629    0.2714 H         1 ATP         0.0924
     39 HO3'        2.2232   -1.2979    2.3953 H         1 ATP         0.4379
     40 H2'        -0.0011    0.0027    0.0003 H         1 ATP         0.0849
     41 HO2'       -0.1563   -0.9855    2.0596 H         1 ATP         0.4417
     42 H1'         1.7826    1.9024    1.6451 H         1 ATP         0.1307
     43 H8          0.4111    3.9873    1.7100 H         1 ATP         0.2875
     44 HN61       -2.5859    5.5874   -1.5698 H         1 ATP         0.4559
     45 HN62       -3.1449    5.0423   -3.1284 H         1 ATP         0.4559
     46 H2         -0.9279    1.0504   -3.8088 H         1 ATP         0.0858
     47 H47        -1.2303    5.2364    0.2633 H         1 ATP         0.5042
@<TRIPOS>BOND
     1    1    2 2
     2    1    3 1
     3    1    4 1
     4    1    8 1
     5    3   32 1
     6    4   33 1
     7    5    6 2
     8    5    7 1
     9    5    8 1
    10    5   12 1
    11    7   34 1
    12    9   10 2
    13    9   11 1
    14    9   12 1
    15    9   13 1
    16   13   14 1
    17   14   15 1
    18   14   35 1
    19   14   36 1
    20   15   16 1
    21   15   17 1
    22   15   37 1
    23   16   21 1
    24   17   18 1
    25   17   19 1
    26   17   38 1
    27   18   39 1
    28   19   20 1
    29   19   21 1
    30   19   40 1
    31   20   41 1
    32   21   22 1
    33   21   42 1
    34   22   23 ar
    35   22   31 ar
    36   23   24 ar
    37   23   43 1
    38   24   25 ar
    39   24   47 1
    40   25   26 ar
    41   25   31 ar
    42   26   27 1
    43   26   28 ar
    44   27   44 1
    45   27   45 1
    46   28   29 ar
    47   29   30 ar
    48   29   46 1
    49   30   31 ar
@<TRIPOS>SUBSTRUCTURE
     1 ATP         1 GROUP 0 A     ****
@<TRIPOS>MOLECULE
[5-(6-amino-7,8-dihydropurin-8-ylium-9-yl)-3,4-dihydroxy-tetrahydrofuran-2-yl]methyl [hydroxy(phosphonooxy)phosphoryl] phosphate
   47    49     1     0     0
SMALL
USER_CHARGES

@<TRIPOS>ATOM
      1 PG          1.0659   -3.8931   -5.5508 P.3       1 ATP         1.8237
      2 O1G         1.9012   -4.4958   -6.6413 O.2       1 ATP        -0.8455
      3 O2G        -0.2507   -4.7459   -5.1586 O.3       1 ATP        -0.7970
      4 O3G         1.8240   -3.7235   -4.1324 O.3       1 ATP        -0.7970
      5 PB          1.2365   -1.0264   -6.1696 P.3       1 ATP         1.9358
      6 O1B         2.1057   -1.0326   -7.3922 O.2       1 ATP        -0.8836
      7 O2B         0.0340    0.0536   -6.1902 O.3       1 ATP        -0.8065
      8 O3B         0.4822   -2.4184   -5.8517 O.3       1 ATP        -0.8233
      9 PA          2.8596    0.6156   -4.3272 P.3       1 ATP         1.5686
     10 O1A         1.9183    1.7964   -4.2286 O.co2     1 ATP        -0.8169
     11 O2A         4.1119    0.6934   -5.1730 O.co2     1 ATP        -0.8169
     12 O3A         2.0092   -0.6980   -4.7894 O.3       1 ATP        -0.7987
     13 O5'         3.2883    0.1336   -2.8242 O.3       1 ATP        -0.5693
     14 C5'         2.2816   -0.2918   -1.9206 C.3       1 ATP         0.1841
     15 C4'         2.7248    0.0226   -0.4980 C.3       1 ATP         0.0904
     16 O4'         2.4697    1.4219   -0.2462 O.3       1 ATP        -0.4083
     17 C3'         1.9404   -0.7419    0.5596 C.3       1 ATP         0.0826
     18 O3'         2.7418   -0.8086    1.7389 O.3       1 ATP        -0.6106
     19 C2'         0.7477    0.1630    0.7858 C.3       1 ATP         0.1294
     20 O2'         0.1373   -0.0577    2.0407 O.3       1 ATP        -0.5701
     21 C1'         1.3733    1.5427    0.6747 C.3       1 ATP         0.3967
     22 N9          0.4520    2.5240    0.1767 N.pl3     1 ATP        -0.5600
     23 C8          0.0623    3.6542    0.7479 C.ar      1 ATP         0.3009
     24 N7         -0.8074    4.3516    0.0193 N.pl3     1 ATP        -0.5113
     25 C5         -0.9855    3.6123   -1.0979 C.ar      1 ATP        -0.2824
     26 C6         -1.7474    3.7860   -2.2156 C.ar      1 ATP         0.7670
     27 N6         -2.5511    4.9389   -2.3303 N.pl3     1 ATP        -0.9491
     28 N1         -1.7375    2.8675   -3.2064 N.ar      1 ATP        -0.7474
     29 C2         -0.9330    1.7853   -3.0121 C.ar      1 ATP         0.7118
     30 N3         -0.1423    1.5179   -1.9478 N.ar      1 ATP        -0.6661
     31 C4         -0.2044    2.4690   -1.0113 C.ar      1 ATP         0.6308
     32 HOG2       -0.9283   -4.9162   -5.8471 H         1 ATP         0.4930
     33 HOG3        2.6286   -3.1640   -4.0886 H         1 ATP         0.4930
     34 HOB2        0.2527    1.0065   -6.2697 H         1 ATP         0.4808
     35 H5'1        1.3500    0.2325   -2.1560 H         1 ATP         0.0350
     36 H5'2        2.1266   -1.3683   -2.0443 H         1 ATP         0.0350
     37 H4'         3.8050   -0.1388   -0.4008 H         1 ATP         0.1244
     38 H3'         1.6784   -1.7629    0.2714 H         1 ATP         0.0924
     39 HO3'        2.2232   -1.2979    2.3953 H         1 ATP         0.4379
     40 H2'        -0.0011    0.0027    0.0003 H         1 ATP         0.0849
     41 HO2'       -0.6141    0.5574    2.1082 H         1 ATP         0.4417
     42 H1'         1.7826    1.9024    1.6451 H         1 ATP         0.1307
     43 H8          0.4111    3.9873    1.7100 H         1 ATP         0.2875
     44 HN61       -2.5859    5.5874   -1.5698 H         1 ATP         0.4559
     45 HN62       -3.1449    5.0423   -3.1284 H         1 ATP         0.4559
     46 H2         -0.9279    1.0504   -3.8088 H         1 ATP         0.0858
     47 H47        -1.2303    5.2364    0.2633 H         1 ATP         0.5042
@<TRIPOS>BOND
     1    1    2 2
     2    1    3 1
     3    1    4 1
     4    1    8 1
     5    3   32 1
     6    4   33 1
     7    5    6 2
     8    5    7 1
     9    5    8 1
    10    5   12 1
    11    7   34 1
    12    9   10 2
    13    9   11 1
    14    9   12 1
    15    9   13 1
    16   13   14 1
    17   14   15 1
    18   14   35 1
    19   14   36 1
    20   15   16 1
    21   15   17 1
    22   15   37 1
    23   16   21 1
    24   17   18 1
    25   17   19 1
    26   17   38 1
    27   18   39 1
    28   19   20 1
    29   19   21 1
    30   19   40 1
    31   20   41 1
    32   21   22 1
    33   21   42 1
    34   22   23 ar
    35   22   31 ar
    36   23   24 ar
    37   23   43 1
    38   24   25 ar
    39   24   47 1
    40   25   26 ar
    41   25   31 ar
    42   26   27 1
    43   26   28 ar
    44   27   44 1
    45   27   45 1
    46   28   29 ar
    47   29   30 ar
    48   29   46 1
    49   30   31 ar
@<TRIPOS>SUBSTRUCTURE
     1 ATP         1 GROUP 0 A     ****
@<TRIPOS>MOLECULE
[5-(6-amino-7,8-dihydropurin-8-ylium-9-yl)-3,4-dihydroxy-tetrahydrofuran-2-yl]methyl [hydroxy(phosphonooxy)phosphoryl] phosphate
   47    49     1     0     0
SMALL
USER_CHARGES

@<TRIPOS>ATOM
      1 PG          2.9558   -5.0717   -4.0000 P.3       1 ATP         1.8237
      2 O1G         3.5710   -4.4646   -2.7739 O.2       1 ATP        -0.8455
      3 O2G         4.0175   -5.6657   -5.0651 O.3       1 ATP        -0.7970
      4 O3G         1.9828   -6.3318   -3.7164 O.3       1 ATP        -0.7970
      5 PB          2.4139   -2.6990   -5.6453 P.3       1 ATP         1.9358
      6 O1B         3.4847   -2.8054   -6.6906 O.2       1 ATP        -0.8836
      7 O2B         0.9823   -2.1749   -6.1828 O.3       1 ATP        -0.8065
      8 O3B         2.0465   -4.0784   -4.8905 O.3       1 ATP        -0.8233
      9 PA          3.0648   -0.0870   -4.4293 P.3       1 ATP         1.5686
     10 O1A         1.8228    0.6556   -4.8721 O.co2     1 ATP        -0.8169
     11 O2A         4.3895    0.1375   -5.1255 O.co2     1 ATP        -0.8169
     12 O3A         2.7493   -1.6879   -4.4309 O.3       1 ATP        -0.7987
     13 O5'         3.2883    0.1336   -2.8242 O.3       1 ATP        -0.5693
     14 C5'         2.2816   -0.2918   -1.9206 C.3       1 ATP         0.1841
     15 C4'         2.7248    0.0226   -0.4980 C.3       1 ATP         0.0904
     16 O4'         2.4697    1.4219   -0.2462 O.3       1 ATP        -0.4083
     17 C3'         1.9404   -0.7419    0.5596 C.3       1 ATP         0.0826
     18 O3'         2.7418   -0.8086    1.7389 O.3       1 ATP        -0.6106
     19 C2'         0.7477    0.1630    0.7858 C.3       1 ATP         0.1294
     20 O2'         0.1373   -0.0577    2.0407 O.3       1 ATP        -0.5701
     21 C1'         1.3733    1.5427    0.6747 C.3       1 ATP         0.3967
     22 N9          0.4520    2.5240    0.1767 N.pl3     1 ATP        -0.5600
     23 C8          0.0623    3.6542    0.7479 C.ar      1 ATP         0.3009
     24 N7         -0.8074    4.3516    0.0193 N.pl3     1 ATP        -0.5113
     25 C5         -0.9855    3.6123   -1.0979 C.ar      1 ATP        -0.2824
     26 C6         -1.7474    3.7860   -2.2156 C.ar      1 ATP         0.7670
     27 N6         -2.5511    4.9389   -2.3303 N.pl3     1 ATP        -0.9491
     28 N1         -1.7375    2.8675   -3.2064 N.ar      1 ATP        -0.7474
     29 C2         -0.9330    1.7853   -3.0121 C.ar      1 ATP         0.7118
     30 N3         -0.1423    1.5179   -1.9478 N.ar      1 ATP        -0.6661
     31 C4         -0.2044    2.4690   -1.0113 C.ar      1 ATP         0.6308
     32 HOG2        4.6248   -6.3816   -4.7808 H         1 ATP         0.4930
     33 HOG3        1.1924   -6.2027   -3.1498 H         1 ATP         0.4930
     34 HOB2        0.9269   -1.2884   -6.5991 H         1 ATP         0.4808
     35 H5'1        1.3500    0.2325   -2.1560 H         1 ATP         0.0350
     36 H5'2        2.1266   -1.3683   -2.0443 H         1 ATP         0.0350
     37 H4'         3.8050   -0.1388   -0.4008 H         1 ATP         0.1244
     38 H3'         1.6784   -1.7629    0.2714 H         1 ATP         0.0924
     39 HO3'        2.2232   -1.2979    2.3953 H         1 ATP         0.4379
     40 H2'        -0.0011    0.0027    0.0003 H         1 ATP         0.0849
     41 HO2'       -0.1563   -0.9855    2.0596 H         1 ATP         0.4417
     42 H1'         1.7826    1.9024    1.6451 H         1 ATP         0.1307
     43 H8          0.4111    3.9873    1.7100 H         1 ATP         0.2875
     44 HN61       -2.5859    5.5874   -1.5698 H         1 ATP         0.4559
     45 HN62       -3.1449    5.0423   -3.1284 H         1 ATP         0.4559
     46 H2         -0.9279    1.0504   -3.8088 H         1 ATP         0.0858
     47 H47        -1.2303    5.2364    0.2633 H         1 ATP         0.5042
@<TRIPOS>BOND
     1    1    2 2
     2    1    3 1
     3    1    4 1
     4    1    8 1
     5    3   32 1
     6    4   33 1
     7    5    6 2
     8    5    7 1
     9    5    8 1
    10    5   12 1
    11    7   34 1
    12    9   10 2
    13    9   11 1
    14    9   12 1
    15    9   13 1
    16   13   14 1
    17   14   15 1
    18   14   35 1
    19   14   36 1
    20   15   16 1
    21   15   17 1
    22   15   37 1
    23   16   21 1
    24   17   18 1
    25   17   19 1
    26   17   38 1
    27   18   39 1
    28   19   20 1
    29   19   21 1
    30   19   40 1
    31   20   41 1
    32   21   22 1
    33   21   42 1
    34   22   23 ar
    35   22   31 ar
    36   23   24 ar
    37   23   43 1
    38   24   25 ar
    39   24   47 1
    40   25   26 ar
    41   25   31 ar
    42   26   27 1
    43   26   28 ar
    44   27   44 1
    45   27   45 1
    46   28   29 ar
    47   29   30 ar
    48   29   46 1
    49   30   31 ar
@<TRIPOS>SUBSTRUCTURE
     1 ATP         1 GROUP 0 A     ****
@<TRIPOS>MOLECULE
[5-(6-amino-7,8-dihydropurin-8-ylium-9-yl)-3,4-dihydroxy-tetrahydrofuran-2-yl]methyl [hydroxy(phosphonooxy)phosphoryl] phosphate
   47    49     1     0     0
SMALL
USER_CHARGES

@<TRIPOS>ATOM
      1 PG          2.4178   -1.5657   -8.8047 P.3       1 ATP         1.8237
      2 O1G         1.9216   -2.9525   -9.0888 O.2       1 ATP        -0.8455
      3 O2G         3.9333   -1.2778   -9.2893 O.3       1 ATP        -0.7970
      4 O3G         1.5771   -0.3854   -9.5226 O.3       1 ATP        -0.7970
      5 PB          1.2365   -1.0264   -6.1696 P.3       1 ATP         1.9358
      6 O1B         0.1392   -0.0659   -6.5213 O.2       1 ATP        -0.8836
      7 O2B         0.7673   -2.5615   -5.9785 O.3       1 ATP        -0.8065
      8 O3B         2.4326   -1.1338   -7.2492 O.3       1 ATP        -0.8233
      9 PA          2.8596    0.6156   -4.3272 P.3       1 ATP         1.5686
     10 O1A         1.9183    1.7964   -4.2286 O.co2     1 ATP        -0.8169
     11 O2A         4.1119    0.6934   -5.1730 O.co2     1 ATP        -0.8169
     12 O3A         2.0092   -0.6980   -4.7894 O.3       1 ATP        -0.7987
     13 O5'         3.2883    0.1336   -2.8242 O.3       1 ATP        -0.5693
     14 C5'         2.2816   -0.2918   -1.9206 C.3       1 ATP         0.1841
     15 C4'         2.7248    0.0226   -0.4980 C.3       1 ATP         0.0904
     16 O4'         2.4697    1.4219   -0.2462 O.3       1 ATP        -0.4083
     17 C3'         1.9404   -0.7419    0.5596 C.3       1 ATP         0.0826
     18 O3'         2.7418   -0.8086    1.7389 O.3       1 ATP        -0.6106
     19 C2'         0.7477    0.1630    0.7858 C.3       1 ATP         0.1294
     20 O2'         0.1373   -0.0577    2.0407 O.3       1 ATP        -0.5701
     21 C1'         1.3733    1.5427    0.6747 C.3       1 ATP         0.3967
     22 N9          0.4520    2.5240    0.1767 N.pl3     1 ATP        -0.5600
     23 C8          0.0623    3.6542    0.7479 C.ar      1 ATP         0.3009
     24 N7         -0.8074    4.3516    0.0193 N.pl3     1 ATP        -0.5113
     25 C5         -0.9855    3.6123   -1.0979 C.ar      1 ATP        -0.2824
     26 C6         -1.7474    3.7860   -2.2156 C.ar      1 ATP         0.7670
     27 N6         -2.5511    4.9389   -2.3303 N.pl3     1 ATP        -0.9491
     28 N1         -1.7375    2.8675   -3.2064 N.ar      1 ATP        -0.7474
     29 C2         -0.9330    1.7853   -3.0121 C.ar      1 ATP         0.7118
     30 N3         -0.1423    1.5179   -1.9478 N.ar      1 ATP        -0.6661
     31 C4         -0.2044    2.4690   -1.0113 C.ar      1 ATP         0.6308
     32 HOG2        4.6611   -1.8214   -8.9193 H         1 ATP         0.4930
     33 HOG3        0.6219   -0.2922   -9.3193 H         1 ATP         0.4930
     34 HOB2        0.3453   -3.0265   -6.7321 H         1 ATP         0.4808
     35 H5'1        1.3500    0.2325   -2.1560 H         1 ATP         0.0350
     36 H5'2        2.1266   -1.3683   -2.0443 H         1 ATP         0.0350
     37 H4'         3.8050   -0.1388   -0.4008 H         1 ATP         0.1244
     38 H3'         1.6784   -1.7629    0.2714 H         1 ATP         0.0924
     39 HO3'        2.2232   -1.2979    2.3953 H         1 ATP         0.4379
     40 H2'        -0.0011    0.0027    0.0003 H         1 ATP         0.0849
     41 HO2'       -0.6141    0.5574    2.1082 H         1 ATP         0.4417
     42 H1'         1.7826    1.9024    1.6451 H         1 ATP         0.1307
     43 H8          0.4111    3.9873    1.7100 H         1 ATP         0.2875
     44 HN61       -2.5859    5.5874   -1.5698 H         1 ATP         0.4559
     45 HN62       -3.1449    5.0423   -3.1284 H         1 ATP         0.4559
     46 H2         -0.9279    1.0504   -3.8088 H         1 ATP         0.0858
     47 H47        -1.2303    5.2364    0.2633 H         1 ATP         0.5042
@<TRIPOS>BOND
     1    1    2 2
     2    1    3 1
     3    1    4 1
     4    1    8 1
     5    3   32 1
     6    4   33 1
     7    5    6 2
     8    5    7 1
     9    5    8 1
    10    5   12 1
    11    7   34 1
    12    9   10 2
    13    9   11 1
    14    9   12 1
    15    9   13 1
    16   13   14 1
    17   14   15 1
    18   14   35 1
    19   14   36 1
    20   15   16 1
    21   15   17 1
    22   15   37 1
    23   16   21 1
    24   17   18 1
    25   17   19 1
    26   17   38 1
    27   18   39 1
    28   19   20 1
    29   19   21 1
    30   19   40 1
    31   20   41 1
    32   21   22 1
    33   21   42 1
    34   22   23 ar
    35   22   31 ar
    36   23   24 ar
    37   23   43 1
    38   24   25 ar
    39   24   47 1
    40   25   26 ar
    41   25   31 ar
    42   26   27 1
    43   26   28 ar
    44   27   44 1
    45   27   45 1
    46   28   29 ar
    47   29   30 ar
    48   29   46 1
    49   30   31 ar
@<TRIPOS>SUBSTRUCTURE
     1 ATP         1 GROUP 0 A     ****
@<TRIPOS>MOLECULE
[5-(6-amino-7,8-dihydropurin-8-ylium-9-yl)-3,4-dihydroxy-tetrahydrofuran-2-yl]methyl [hydroxy(phosphonooxy)phosphoryl] phosphate
   47    49     1     0     0
SMALL
USER_CHARGES

@<TRIPOS>ATOM
      1 PG          7.0074   -3.5804   -6.2574 P.3       1 ATP         1.8237
      2 O1G         7.8589   -4.5916   -5.5483 O.2       1 ATP        -0.8455
      3 O2G         7.8306   -2.3872   -6.9738 O.3       1 ATP        -0.7970
      4 O3G         6.1102   -4.1770   -7.4634 O.3       1 ATP        -0.7970
      5 PB          4.7074   -3.3458   -4.4449 P.3       1 ATP         1.9358
      6 O1B         3.6481   -4.0896   -5.2033 O.2       1 ATP        -0.8836
      7 O2B         5.4388   -4.1950   -3.2800 O.3       1 ATP        -0.8065
      8 O3B         5.9379   -2.7978   -5.3354 O.3       1 ATP        -0.8233
      9 PA          3.4817   -0.6663   -4.2376 P.3       1 ATP         1.5686
     10 O1A         2.1248   -1.0219   -4.8054 O.co2     1 ATP        -0.8169
     11 O2A         4.4957    0.0866   -5.0712 O.co2     1 ATP        -0.8169
     12 O3A         4.1884   -2.0246   -3.6737 O.3       1 ATP        -0.7987
     13 O5'         3.2883    0.1336   -2.8242 O.3       1 ATP        -0.5693
     14 C5'         2.2816   -0.2918   -1.9206 C.3       1 ATP         0.1841
     15 C4'         2.7248    0.0226   -0.4980 C.3       1 ATP         0.0904
     16 O4'         2.4697    1.4219   -0.2462 O.3       1 ATP        -0.4083
     17 C3'         1.9404   -0.7419    0.5596 C.3       1 ATP         0.0826
     18 O3'         2.7418   -0.8086    1.7389 O.3       1 ATP        -0.6106
     19 C2'         0.7477    0.1630    0.7858 C.3       1 ATP         0.1294
     20 O2'         0.1373   -0.0577    2.0407 O.3       1 ATP        -0.5701
     21 C1'         1.3733    1.5427    0.6747 C.3       1 ATP         0.3967
     22 N9          0.4520    2.5240    0.1767 N.pl3     1 ATP        -0.5600
     23 C8          0.0623    3.6542    0.7479 C.ar      1 ATP         0.3009
     24 N7         -0.8074    4.3516    0.0193 N.pl3     1 ATP        -0.5113
     25 C5         -0.9855    3.6123   -1.0979 C.ar      1 ATP        -0.2824
     26 C6         -1.7474    3.7860   -2.2156 C.ar      1 ATP         0.7670
     27 N6         -2.5511    4.9389   -2.3303 N.pl3     1 ATP        -0.9491
     28 N1         -1.7375    2.8675   -3.2064 N.ar      1 ATP        -0.7474
     29 C2         -0.9330    1.7853   -3.0121 C.ar      1 ATP         0.7118
     30 N3         -0.1423    1.5179   -1.9478 N.ar      1 ATP        -0.6661
     31 C4         -0.2044    2.4690   -1.0113 C.ar      1 ATP         0.6308
     32 HOG2        8.4819   -2.6126   -7.6718 H         1 ATP         0.4930
     33 HOG3        5.4511   -4.8757   -7.2634 H         1 ATP         0.4930
     34 HOB2        5.9210   -5.0144   -3.5210 H         1 ATP         0.4808
     35 H5'1        1.3500    0.2325   -2.1560 H         1 ATP         0.0350
     36 H5'2        2.1266   -1.3683   -2.0443 H         1 ATP         0.0350
     37 H4'         3.8050   -0.1388   -0.4008 H         1 ATP         0.1244
     38 H3'         1.6784   -1.7629    0.2714 H         1 ATP         0.0924
     39 HO3'        2.2232   -1.2979    2.3953 H         1 ATP         0.4379
     40 H2'        -0.0011    0.0027    0.0003 H         1 ATP         0.0849
     41 HO2'       -0.1563   -0.9855    2.0596 H         1 ATP         0.4417
     42 H1'         1.7826    1.9024    1.6451 H         1 ATP         0.1307
     43 H8          0.4111    3.9873    1.7100 H         1 ATP         0.2875
     44 HN61       -2.5859    5.5874   -1.5698 H         1 ATP         0.4559
     45 HN62       -3.1449    5.0423   -3.1284 H         1 ATP         0.4559
     46 H2         -0.9279    1.0504   -3.8088 H         1 ATP         0.0858
     47 H47        -1.2303    5.2364    0.2633 H         1 ATP         0.5042
@<TRIPOS>BOND
     1    1    2 2
     2    1    3 1
     3    1    4 1
     4    1    8 1
     5    3   32 1
     6    4   33 1
     7    5    6 2
     8    5    7 1
     9    5    8 1
    10    5   12 1
    11    7   34 1
    12    9   10 2
    13    9   11 1
    14    9   12 1
    15    9   13 1
    16   13   14 1
    17   14   15 1
    18   14   35 1
    19   14   36 1
    20   15   16 1
    21   15   17 1
    22   15   37 1
    23   16   21 1
    24   17   18 1
    25   17   19 1
    26   17   38 1
    27   18   39 1
    28   19   20 1
    29   19   21 1
    30   19   40 1
    31   20   41 1
    32   21   22 1
    33   21   42 1
    34   22   23 ar
    35   22   31 ar
    36   23   24 ar
    37   23   43 1
    38   24   25 ar
    39   24   47 1
    40   25   26 ar
    41   25   31 ar
    42   26   27 1
    43   26   28 ar
    44   27   44 1
    45   27   45 1
    46   28   29 ar
    47   29   30 ar
    48   29   46 1
    49   30   31 ar
@<TRIPOS>SUBSTRUCTURE
     1 ATP         1 GROUP 0 A     ****
@<TRIPOS>MOLECULE
[5-(6-amino-7,8-dihydropurin-8-ylium-9-yl)-3,4-dihydroxy-tetrahydrofuran-2-yl]methyl [hydroxy(phosphonooxy)phosphoryl] phosphate
   47    49     1     0     0
SMALL
USER_CHARGES

@<TRIPOS>ATOM
      1 PG          1.3260   -4.7505   -3.9087 P.3       1 ATP         1.8237
      2 O1G         0.1847   -3.7960   -4.0998 O.2       1 ATP        -0.8455
      3 O2G         1.5899   -5.1898   -2.3751 O.3       1 ATP        -0.7970
      4 O3G         1.1575   -6.1683   -4.6683 O.3       1 ATP        -0.7970
      5 PB          3.6412   -2.9425   -3.9407 P.3       1 ATP         1.9358
      6 O1B         4.0234   -2.9155   -2.4904 O.2       1 ATP        -0.8836
      7 O2B         4.8829   -2.9448   -4.9759 O.3       1 ATP        -0.8065
      8 O3B         2.7695   -4.2214   -4.4014 O.3       1 ATP        -0.8233
      9 PA          3.0648   -0.0870   -4.4293 P.3       1 ATP         1.5686
     10 O1A         1.8228    0.6556   -4.8721 O.co2     1 ATP        -0.8169
     11 O2A         4.3895    0.1375   -5.1255 O.co2     1 ATP        -0.8169
     12 O3A         2.7493   -1.6879   -4.4309 O.3       1 ATP        -0.7987
     13 O5'         3.2883    0.1336   -2.8242 O.3       1 ATP        -0.5693
     14 C5'         2.2816   -0.2918   -1.9206 C.3       1 ATP         0.1841
     15 C4'         2.7248    0.0226   -0.4980 C.3       1 ATP         0.0904
     16 O4'         2.4697    1.4219   -0.2462 O.3       1 ATP        -0.4083
     17 C3'         1.9404   -0.7419    0.5596 C.3       1 ATP         0.0826
     18 O3'         2.7418   -0.8086    1.7389 O.3       1 ATP        -0.6106
     19 C2'         0.7477    0.1630    0.7858 C.3       1 ATP         0.1294
     20 O2'         0.1373   -0.0577    2.0407 O.3       1 ATP        -0.5701
     21 C1'         1.3733    1.5427    0.6747 C.3       1 ATP         0.3967
     22 N9          0.4520    2.5240    0.1767 N.pl3     1 ATP        -0.5600
     23 C8          0.0623    3.6542    0.7479 C.ar      1 ATP         0.3009
     24 N7         -0.8074    4.3516    0.0193 N.pl3     1 ATP        -0.5113
     25 C5         -0.9855    3.6123   -1.0979 C.ar      1 ATP        -0.2824
     26 C6         -1.7474    3.7860   -2.2156 C.ar      1 ATP         0.7670
     27 N6         -2.5511    4.9389   -2.3303 N.pl3     1 ATP        -0.9491
     28 N1         -1.7375    2.8675   -3.2064 N.ar      1 ATP        -0.7474
     29 C2         -0.9330    1.7853   -3.0121 C.ar      1 ATP         0.7118
     30 N3         -0.1423    1.5179   -1.9478 N.ar      1 ATP        -0.6661
     31 C4         -0.2044    2.4690   -1.0113 C.ar      1 ATP         0.6308
     32 HOG2        1.8056   -4.4982   -1.7138 H         1 ATP         0.4930
     33 HOG3        1.0638   -6.1750   -5.6448 H         1 ATP         0.4930
     34 HOB2        5.5141   -2.1941   -4.9620 H         1 ATP         0.4808
     35 H5'1        1.3500    0.2325   -2.1560 H         1 ATP         0.0350
     36 H5'2        2.1266   -1.3683   -2.0443 H         1 ATP         0.0350
     37 H4'         3.8050   -0.1388   -0.4008 H         1 ATP         0.1244
     38 H3'         1.6784   -1.7629    0.2714 H         1 ATP         0.0924
     39 HO3'        3.5554   -1.2733    1.4914 H         1 ATP         0.4379
     40 H2'        -0.0011    0.0027    0.0003 H         1 ATP         0.0849
     41 HO2'       -0.1563   -0.9855    2.0596 H         1 ATP         0.4417
     42 H1'         1.7826    1.9024    1.6451 H         1 ATP         0.1307
     43 H8          0.4111    3.9873    1.7100 H         1 ATP         0.2875
     44 HN61       -2.5859    5.5874   -1.5698 H         1 ATP         0.4559
     45 HN62       -3.1449    5.0423   -3.1284 H         1 ATP         0.4559
     46 H2         -0.9279    1.0504   -3.8088 H         1 ATP         0.0858
     47 H47        -1.2303    5.2364    0.2633 H         1 ATP         0.5042
@<TRIPOS>BOND
     1    1    2 2
     2    1    3 1
     3    1    4 1
     4    1    8 1
     5    3   32 1
     6    4   33 1
     7    5    6 2
     8    5    7 1
     9    5    8 1
    10    5   12 1
    11    7   34 1
    12    9   10 2
    13    9   11 1
    14    9   12 1
    15    9   13 1
    16   13   14 1
    17   14   15 1
    18   14   35 1
    19   14   36 1
    20   15   16 1
    21   15   17 1
    22   15   37 1
    23   16   21 1
    24   17   18 1
    25   17   19 1
    26   17   38 1
    27   18   39 1
    28   19   20 1
    29   19   21 1
    30   19   40 1
    31   20   41 1
    32   21   22 1
    33   21   42 1
    34   22   23 ar
    35   22   31 ar
    36   23   24 ar
    37   23   43 1
    38   24   25 ar
    39   24   47 1
    40   25   26 ar
    41   25   31 ar
    42   26   27 1
    43   26   28 ar
    44   27   44 1
    45   27   45 1
    46   28   29 ar
    47   29   30 ar
    48   29   46 1
    49   30   31 ar
@<TRIPOS>SUBSTRUCTURE
     1 ATP         1 GROUP 0 A     ****
@<TRIPOS>MOLECULE
[5-(6-amino-7,8-dihydropurin-8-ylium-9-yl)-3,4-dihydroxy-tetrahydrofuran-2-yl]methyl [hydroxy(phosphonooxy)phosphoryl] phosphate
   47    49     1     0     0
SMALL
USER_CHARGES

@<TRIPOS>ATOM
      1 PG          2.4178   -1.5657   -8.8047 P.3       1 ATP         1.8237
      2 O1G         1.5655   -0.7210   -9.7051 O.2       1 ATP        -0.8455
      3 O2G         2.0073   -3.1289   -8.7570 O.3       1 ATP        -0.7970
      4 O3G         3.9840   -1.6140   -9.2043 O.3       1 ATP        -0.7970
      5 PB          1.2365   -1.0264   -6.1696 P.3       1 ATP         1.9358
      6 O1B         0.1392   -0.0659   -6.5213 O.2       1 ATP        -0.8836
      7 O2B         0.7673   -2.5615   -5.9785 O.3       1 ATP        -0.8065
      8 O3B         2.4326   -1.1338   -7.2492 O.3       1 ATP        -0.8233
      9 PA          2.8596    0.6156   -4.3272 P.3       1 ATP         1.5686
     10 O1A         1.9183    1.7964   -4.2286 O.co2     1 ATP        -0.8169
     11 O2A         4.1119    0.6934   -5.1730 O.co2     1 ATP        -0.8169
     12 O3A         2.0092   -0.6980   -4.7894 O.3       1 ATP        -0.7987
     13 O5'         3.2883    0.1336   -2.8242 O.3       1 ATP        -0.5693
     14 C5'         2.2816   -0.2918   -1.9206 C.3       1 ATP         0.1841
     15 C4'         2.7248    0.0226   -0.4980 C.3       1 ATP         0.0904
     16 O4'         2.4697    1.4219   -0.2462 O.3       1 ATP        -0.4083
     17 C3'         1.9404   -0.7419    0.5596 C.3       1 ATP         0.0826
     18 O3'         2.7418   -0.8086    1.7389 O.3       1 ATP        -0.6106
     19 C2'         0.7477    0.1630    0.7858 C.3       1 ATP         0.1294
     20 O2'         0.1373   -0.0577    2.0407 O.3       1 ATP        -0.5701
     21 C1'         1.3733    1.5427    0.6747 C.3       1 ATP         0.3967
     22 N9          0.4520    2.5240    0.1767 N.pl3     1 ATP        -0.5600
     23 C8         -0.6854    2.9365    0.7168 C.ar      1 ATP         0.3009
     24 N7         -1.3118    3.8692    0.0018 N.pl3     1 ATP        -0.5113
     25 C5         -0.5159    4.0659   -1.0727 C.ar      1 ATP        -0.2824
     26 C6         -0.6068    4.8856   -2.1589 C.ar      1 ATP         0.7670
     27 N6         -1.7186    5.7437   -2.2844 N.pl3     1 ATP        -0.9491
     28 N1          0.3541    4.8807   -3.1087 N.ar      1 ATP        -0.7474
     29 C2          1.3913    4.0207   -2.9071 C.ar      1 ATP         0.7118
     30 N3          1.5770    3.1707   -1.8715 N.ar      1 ATP        -0.6661
     31 C4          0.5883    3.2318   -0.9747 C.ar      1 ATP         0.6308
     32 HOG2        2.5238   -3.7380   -8.1875 H         1 ATP         0.4930
     33 HOG3        4.2379   -1.9588  -10.0869 H         1 ATP         0.4930
     34 HOB2        0.3453   -3.0265   -6.7321 H         1 ATP         0.4808
     35 H5'1        1.3500    0.2325   -2.1560 H         1 ATP         0.0350
     36 H5'2        2.1266   -1.3683   -2.0443 H         1 ATP         0.0350
     37 H4'         3.8050   -0.1388   -0.4008 H         1 ATP         0.1244
     38 H3'         1.6784   -1.7629    0.2714 H         1 ATP         0.0924
     39 HO3'        2.2232   -1.2979    2.3953 H         1 ATP         0.4379
     40 H2'        -0.0011    0.0027    0.0003 H         1 ATP         0.0849
     41 HO2'       -0.1563   -0.9855    2.0596 H         1 ATP         0.4417
     42 H1'         1.7826    1.9024    1.6451 H         1 ATP         0.1307
     43 H8         -1.0749    2.5601    1.6468 H         1 ATP         0.2875
     44 HN61       -2.4460    5.7038   -1.5992 H         1 ATP         0.4559
     45 HN62       -1.8079    6.3099   -3.1040 H         1 ATP         0.4559
     46 H2          2.1601    4.0194   -3.6712 H         1 ATP         0.0858
     47 H47        -2.1877    4.3195    0.2279 H         1 ATP         0.5042
@<TRIPOS>BOND
     1    1    2 2
     2    1    3 1
     3    1    4 1
     4    1    8 1
     5    3   32 1
     6    4   33 1
     7    5    6 2
     8    5    7 1
     9    5    8 1
    10    5   12 1
    11    7   34 1
    12    9   10 2
    13    9   11 1
    14    9   12 1
    15    9   13 1
    16   13   14 1
    17   14   15 1
    18   14   35 1
    19   14   36 1
    20   15   16 1
    21   15   17 1
    22   15   37 1
    23   16   21 1
    24   17   18 1
    25   17   19 1
    26   17   38 1
    27   18   39 1
    28   19   20 1
    29   19   21 1
    30   19   40 1
    31   20   41 1
    32   21   22 1
    33   21   42 1
    34   22   23 ar
    35   22   31 ar
    36   23   24 ar
    37   23   43 1
    38   24   25 ar
    39   24   47 1
    40   25   26 ar
    41   25   31 ar
    42   26   27 1
    43   26   28 ar
    44   27   44 1
    45   27   45 1
    46   28   29 ar
    47   29   30 ar
    48   29   46 1
    49   30   31 ar
@<TRIPOS>SUBSTRUCTURE
     1 ATP         1 GROUP 0 A     ****
@<TRIPOS>MOLECULE
[5-(6-amino-7,8-dihydropurin-8-ylium-9-yl)-3,4-dihydroxy-tetrahydrofuran-2-yl]methyl [hydroxy(phosphonooxy)phosphoryl] phosphate
   47    49     1     0     0
SMALL
USER_CHARGES

@<TRIPOS>ATOM
      1 PG         -1.2218    2.4950   -4.4582 P.3       1 ATP         1.8237
      2 O1G        -2.3650    1.5824   -4.7907 O.2       1 ATP        -0.8455
      3 O2G        -1.6164    4.0591   -4.3466 O.3       1 ATP        -0.7970
      4 O3G        -0.5097    2.1983   -3.0369 O.3       1 ATP        -0.7970
      5 PB          0.9773    1.2976   -5.9945 P.3       1 ATP         1.9358
      6 O1B         0.2904    0.1363   -6.6502 O.2       1 ATP        -0.8836
      7 O2B         2.0677    2.0567   -6.9155 O.3       1 ATP        -0.8065
      8 O3B         0.0039    2.4911   -5.5089 O.3       1 ATP        -0.8233
      9 PA          3.0648   -0.0870   -4.4293 P.3       1 ATP         1.5686
     10 O1A         4.2654    0.4430   -5.1830 O.co2     1 ATP        -0.8169
     11 O2A         2.5779   -1.5030   -4.6479 O.co2     1 ATP        -0.8169
     12 O3A         1.8088    0.9287   -4.6595 O.3       1 ATP        -0.7987
     13 O5'         3.2883    0.1336   -2.8242 O.3       1 ATP        -0.5693
     14 C5'         2.2816   -0.2918   -1.9206 C.3       1 ATP         0.1841
     15 C4'         2.7248    0.0226   -0.4980 C.3       1 ATP         0.0904
     16 O4'         2.4697    1.4219   -0.2462 O.3       1 ATP        -0.4083
     17 C3'         1.9404   -0.7419    0.5596 C.3       1 ATP         0.0826
     18 O3'         2.7418   -0.8086    1.7389 O.3       1 ATP        -0.6106
     19 C2'         0.7477    0.1630    0.7858 C.3       1 ATP         0.1294
     20 O2'         0.1373   -0.0577    2.0407 O.3       1 ATP        -0.5701
     21 C1'         1.3733    1.5427    0.6747 C.3       1 ATP         0.3967
     22 N9          0.4520    2.5240    0.1767 N.pl3     1 ATP        -0.5600
     23 C8         -0.5899    2.3466   -0.6224 C.ar      1 ATP         0.3009
     24 N7         -1.2514    3.4689   -0.8989 N.pl3     1 ATP        -0.5113
     25 C5         -0.5826    4.4323   -0.2272 C.ar      1 ATP        -0.2824
     26 C6         -0.7636    5.7789   -0.1086 C.ar      1 ATP         0.7670
     27 N6         -1.8382    6.3927   -0.7843 N.pl3     1 ATP        -0.9491
     28 N1          0.0741    6.5233    0.6461 N.ar      1 ATP        -0.7474
     29 C2          1.0845    5.8486    1.2626 C.ar      1 ATP         0.7118
     30 N3          1.3516    4.5236    1.2116 N.ar      1 ATP        -0.6661
     31 C4          0.4827    3.8546    0.4481 C.ar      1 ATP         0.6308
     32 HOG2       -2.2815    4.3343   -3.6802 H         1 ATP         0.4930
     33 HOG3        0.2454    2.7592   -2.7585 H         1 ATP         0.4930
     34 HOB2        2.8366    1.5513   -7.2553 H         1 ATP         0.4808
     35 H5'1        1.3500    0.2325   -2.1560 H         1 ATP         0.0350
     36 H5'2        2.1266   -1.3683   -2.0443 H         1 ATP         0.0350
     37 H4'         3.8050   -0.1388   -0.4008 H         1 ATP         0.1244
     38 H3'         1.6784   -1.7629    0.2714 H         1 ATP         0.0924
     39 HO3'        2.2232   -1.2979    2.3953 H         1 ATP         0.4379
     40 H2'        -0.0011    0.0027    0.0003 H         1 ATP         0.0849
     41 HO2'       -0.1563   -0.9855    2.0596 H         1 ATP         0.4417
     42 H1'         1.7826    1.9024    1.6451 H         1 ATP         0.1307
     43 H8         -0.8833    1.3888   -1.0158 H         1 ATP         0.2875
     44 HN61       -2.4225    5.8385   -1.3773 H         1 ATP         0.4559
     45 HN62       -1.9421    7.3862   -0.7348 H         1 ATP         0.4559
     46 H2          1.7546    6.4491    1.8670 H         1 ATP         0.0858
     47 H47        -2.0705    3.5612   -1.4834 H         1 ATP         0.5042
@<TRIPOS>BOND
     1    1    2 2
     2    1    3 1
     3    1    4 1
     4    1    8 1
     5    3   32 1
     6    4   33 1
     7    5    6 2
     8    5    7 1
     9    5    8 1
    10    5   12 1
    11    7   34 1
    12    9   10 2
    13    9   11 1
    14    9   12 1
    15    9   13 1
    16   13   14 1
    17   14   15 1
    18   14   35 1
    19   14   36 1
    20   15   16 1
    21   15   17 1
    22   15   37 1
    23   16   21 1
    24   17   18 1
    25   17   19 1
    26   17   38 1
    27   18   39 1
    28   19   20 1
    29   19   21 1
    30   19   40 1
    31   20   41 1
    32   21   22 1
    33   21   42 1
    34   22   23 ar
    35   22   31 ar
    36   23   24 ar
    37   23   43 1
    38   24   25 ar
    39   24   47 1
    40   25   26 ar
    41   25   31 ar
    42   26   27 1
    43   26   28 ar
    44   27   44 1
    45   27   45 1
    46   28   29 ar
    47   29   30 ar
    48   29   46 1
    49   30   31 ar
@<TRIPOS>SUBSTRUCTURE
     1 ATP         1 GROUP 0 A     ****
