@<TRIPOS>MOLECULE
[[5-(6-amino-7,8-dihydropurin-8-ylium-9-yl)-3,4-dihydroxy-tetrahydrofuran-2-yl]methoxy-hydroxy-phosphoryl] phosphono phosphate
   47    49     1     0     0
SMALL
USER_CHARGES

@<TRIPOS>ATOM
      1 PG          1.4197    5.9665   -3.1628 P.3       1 ATP         1.7526
      2 O1G         2.2728    6.9130   -3.9545 O.2       1 ATP        -0.8534
      3 O2G         1.6683    5.9816   -1.5661 O.3       1 ATP        -0.7661
      4 O3G        -0.1742    6.1958   -3.2998 O.3       1 ATP        -0.7661
      5 PB          2.9228    3.4525   -3.5110 P.3       1 ATP         1.6631
      6 O1B         3.9148    3.9457   -4.5407 O.co2     1 ATP        -0.8211
      7 O2B         3.3271    3.2526   -2.0673 O.co2     1 ATP        -0.8211
      8 O3B         1.6017    4.4088   -3.5559 O.3       1 ATP        -0.7954
      9 PA          2.8824    0.6133   -4.3155 P.3       1 ATP         1.7782
     10 O1A         4.0008    0.5891   -5.3166 O.2       1 ATP        -0.8134
     11 O2A         1.6103   -0.3046   -4.7113 O.3       1 ATP        -0.8257
     12 O3A         2.2407    2.0753   -4.0580 O.3       1 ATP        -0.8063
     13 O5'         3.2874    0.1331   -2.8242 O.3       1 ATP        -0.5763
     14 C5'         2.2816   -0.2918   -1.9206 C.3       1 ATP         0.1790
     15 C4'         2.7248    0.0226   -0.4980 C.3       1 ATP         0.1339
     16 O4'         2.4697    1.4219   -0.2462 O.3       1 ATP        -0.4040
     17 C3'         1.9404   -0.7419    0.5596 C.3       1 ATP         0.0906
     18 O3'         2.7418   -0.8086    1.7389 O.3       1 ATP        -0.5689
     19 C2'         0.7477    0.1630    0.7858 C.3       1 ATP         0.0660
     20 O2'         0.1373   -0.0577    2.0407 O.3       1 ATP        -0.5800
     21 C1'         1.3733    1.5427    0.6747 C.3       1 ATP         0.4216
     22 N9          0.4520    2.5240    0.1767 N.pl3     1 ATP        -0.5455
     23 C8         -0.2172    2.5216   -0.9668 C.ar      1 ATP         0.2820
     24 N7         -1.0011    3.5855   -1.1321 N.pl3     1 ATP        -0.4970
     25 C5         -0.8184    4.3200   -0.0123 C.ar      1 ATP        -0.2773
     26 C6         -1.3349    5.5079    0.4144 C.ar      1 ATP         0.7637
     27 N6         -2.2567    6.1930   -0.4036 N.pl3     1 ATP        -0.9374
     28 N1         -0.9716    6.0291    1.6069 N.ar      1 ATP        -0.7408
     29 C2         -0.0765    5.3009    2.3312 C.ar      1 ATP         0.7215
     30 N3          0.4933    4.1191    2.0023 N.ar      1 ATP        -0.6797
     31 C4          0.0865    3.6675    0.8123 C.ar      1 ATP         0.6429
     32 HOG2        2.5594    5.7587   -1.2221 H         1 ATP         0.4781
     33 HOG3       -0.5544    7.0588   -3.0298 H         1 ATP         0.4781
     34 HOA2        1.7413   -1.2688   -4.8338 H         1 ATP         0.4931
     35 H5'1        1.3494    0.2322   -2.1552 H         1 ATP         0.0438
     36 H5'2        2.1260   -1.3686   -2.0435 H         1 ATP         0.0438
     37 H4'         3.8049   -0.1388   -0.4009 H         1 ATP         0.1278
     38 H3'         1.6783   -1.7629    0.2715 H         1 ATP         0.1161
     39 HO3'        2.2232   -1.2979    2.3953 H         1 ATP         0.4111
     40 H2'        -0.0011    0.0027    0.0003 H         1 ATP         0.0477
     41 HO2'       -0.6141    0.5574    2.1082 H         1 ATP         0.4259
     42 H1'         1.7826    1.9024    1.6451 H         1 ATP         0.1524
     43 H8         -0.1423    1.7373   -1.6999 H         1 ATP         0.2610
     44 HN61       -2.4811    5.8206   -1.3042 H         1 ATP         0.4534
     45 HN62       -2.5986    7.0863   -0.1113 H         1 ATP         0.4534
     46 H2          0.2128    5.7222    3.2871 H         1 ATP         0.0900
     47 H47        -1.5947    3.7835   -1.9255 H         1 ATP         0.5046
@<TRIPOS>BOND
     1    1    2 2
     2    1    3 1
     3    1    4 1
     4    1    8 1
     5    3   32 1
     6    4   33 1
     7    5    6 2
     8    5    7 1
     9    5    8 1
    10    5   12 1
    11    9   10 2
    12    9   11 1
    13    9   12 1
    14    9   13 1
    15   11   34 1
    16   13   14 1
    17   14   15 1
    18   14   35 1
    19   14   36 1
    20   15   16 1
    21   15   17 1
    22   15   37 1
    23   16   21 1
    24   17   18 1
    25   17   19 1
    26   17   38 1
    27   18   39 1
    28   19   20 1
    29   19   21 1
    30   19   40 1
    31   20   41 1
    32   21   22 1
    33   21   42 1
    34   22   23 ar
    35   22   31 ar
    36   23   24 ar
    37   23   43 1
    38   24   25 ar
    39   24   47 1
    40   25   26 ar
    41   25   31 ar
    42   26   27 1
    43   26   28 ar
    44   27   44 1
    45   27   45 1
    46   28   29 ar
    47   29   30 ar
    48   29   46 1
    49   30   31 ar
@<TRIPOS>SUBSTRUCTURE
     1 ATP         1 GROUP 0 A     ****
@<TRIPOS>MOLECULE
[[5-(6-amino-7,8-dihydropurin-8-ylium-9-yl)-3,4-dihydroxy-tetrahydrofuran-2-yl]methoxy-hydroxy-phosphoryl] phosphono phosphate
   47    49     1     0     0
SMALL
USER_CHARGES

@<TRIPOS>ATOM
      1 PG          0.4430    5.7290   -4.2482 P.3       1 ATP         1.7526
      2 O1G         1.1188    6.6323   -5.2370 O.2       1 ATP        -0.8534
      3 O2G         0.3111    6.3192   -2.7496 O.3       1 ATP        -0.7661
      4 O3G        -1.0711    5.3063   -4.6230 O.3       1 ATP        -0.7661
      5 PB          1.5062    3.1079   -5.0853 P.3       1 ATP         1.6631
      6 O1B         0.2026    2.4928   -5.5433 O.co2     1 ATP        -0.8211
      7 O2B         2.5281    3.6089   -6.0816 O.co2     1 ATP        -0.8211
      8 O3B         1.1775    4.3057   -4.0273 O.3       1 ATP        -0.7954
      9 PA          2.8824    0.6133   -4.3155 P.3       1 ATP         1.7782
     10 O1A         4.0008    0.5891   -5.3166 O.2       1 ATP        -0.8134
     11 O2A         1.6103   -0.3046   -4.7113 O.3       1 ATP        -0.8257
     12 O3A         2.2407    2.0753   -4.0580 O.3       1 ATP        -0.8063
     13 O5'         3.2874    0.1331   -2.8242 O.3       1 ATP        -0.5763
     14 C5'         2.2816   -0.2918   -1.9206 C.3       1 ATP         0.1790
     15 C4'         2.7248    0.0226   -0.4980 C.3       1 ATP         0.1339
     16 O4'         2.4697    1.4219   -0.2462 O.3       1 ATP        -0.4040
     17 C3'         1.9404   -0.7419    0.5596 C.3       1 ATP         0.0906
     18 O3'         2.7418   -0.8086    1.7389 O.3       1 ATP        -0.5689
     19 C2'         0.7477    0.1630    0.7858 C.3       1 ATP         0.0660
     20 O2'         0.1373   -0.0577    2.0407 O.3       1 ATP        -0.5800
     21 C1'         1.3733    1.5427    0.6747 C.3       1 ATP         0.4216
     22 N9          0.4520    2.5240    0.1767 N.pl3     1 ATP        -0.5455
     23 C8          0.1928    2.8484   -1.0815 C.ar      1 ATP         0.2820
     24 N7         -0.7248    3.8048   -1.2110 N.pl3     1 ATP        -0.4970
     25 C5         -1.0765    4.1129    0.0571 C.ar      1 ATP        -0.2773
     26 C6         -1.9614    5.0063    0.5851 C.ar      1 ATP         0.7637
     27 N6         -2.7145    5.8254   -0.2810 N.pl3     1 ATP        -0.9374
     28 N1         -2.1199    5.1113    1.9228 N.ar      1 ATP        -0.7408
     29 C2         -1.3522    4.2822    2.6839 C.ar      1 ATP         0.7215
     30 N3         -0.4501    3.3660    2.2638 N.ar      1 ATP        -0.6797
     31 C4         -0.3487    3.3198    0.9322 C.ar      1 ATP         0.6429
     32 HOG2       -0.1876    7.1521   -2.6095 H         1 ATP         0.4781
     33 HOG3       -1.2352    4.8215   -5.4598 H         1 ATP         0.4781
     34 HOA2        1.1298   -0.1148   -5.5450 H         1 ATP         0.4931
     35 H5'1        1.3494    0.2322   -2.1552 H         1 ATP         0.0438
     36 H5'2        2.1260   -1.3686   -2.0435 H         1 ATP         0.0438
     37 H4'         3.8049   -0.1388   -0.4009 H         1 ATP         0.1278
     38 H3'         1.6783   -1.7629    0.2715 H         1 ATP         0.1161
     39 HO3'        2.2232   -1.2979    2.3953 H         1 ATP         0.4111
     40 H2'        -0.0011    0.0027    0.0003 H         1 ATP         0.0477
     41 HO2'       -0.6141    0.5574    2.1082 H         1 ATP         0.4259
     42 H1'         1.7826    1.9024    1.6451 H         1 ATP         0.1524
     43 H8          0.6728    2.3873   -1.9272 H         1 ATP         0.2610
     44 HN61       -2.5537    5.7714   -1.2667 H         1 ATP         0.4534
     45 HN62       -3.3282    6.5126    0.1080 H         1 ATP         0.4534
     46 H2         -1.4818    4.3694    3.7565 H         1 ATP         0.0900
     47 H47        -1.0701    4.2005   -2.0743 H         1 ATP         0.5046
@<TRIPOS>BOND
     1    1    2 2
     2    1    3 1
     3    1    4 1
     4    1    8 1
     5    3   32 1
     6    4   33 1
     7    5    6 2
     8    5    7 1
     9    5    8 1
    10    5   12 1
    11    9   10 2
    12    9   11 1
    13    9   12 1
    14    9   13 1
    15   11   34 1
    16   13   14 1
    17   14   15 1
    18   14   35 1
    19   14   36 1
    20   15   16 1
    21   15   17 1
    22   15   37 1
    23   16   21 1
    24   17   18 1
    25   17   19 1
    26   17   38 1
    27   18   39 1
    28   19   20 1
    29   19   21 1
    30   19   40 1
    31   20   41 1
    32   21   22 1
    33   21   42 1
    34   22   23 ar
    35   22   31 ar
    36   23   24 ar
    37   23   43 1
    38   24   25 ar
    39   24   47 1
    40   25   26 ar
    41   25   31 ar
    42   26   27 1
    43   26   28 ar
    44   27   44 1
    45   27   45 1
    46   28   29 ar
    47   29   30 ar
    48   29   46 1
    49   30   31 ar
@<TRIPOS>SUBSTRUCTURE
     1 ATP         1 GROUP 0 A     ****
@<TRIPOS>MOLECULE
[[5-(6-amino-7,8-dihydropurin-8-ylium-9-yl)-3,4-dihydroxy-tetrahydrofuran-2-yl]methoxy-hydroxy-phosphoryl] phosphono phosphate
   47    49     1     0     0
SMALL
USER_CHARGES

@<TRIPOS>ATOM
      1 PG         -2.7313    1.0845   -5.6599 P.3       1 ATP         1.7526
      2 O1G        -3.2811   -0.1696   -6.2725 O.2       1 ATP        -0.8534
      3 O2G        -2.6288    2.3534   -6.6554 O.3       1 ATP        -0.7661
      4 O3G        -3.5641    1.6588   -4.3996 O.3       1 ATP        -0.7661
      5 PB          0.1649    0.5493   -5.8225 P.3       1 ATP         1.6631
      6 O1B         0.0837   -0.8925   -6.2722 O.co2     1 ATP        -0.8211
      7 O2B         0.5241    1.6528   -6.7925 O.co2     1 ATP        -0.8211
      8 O3B        -1.2305    0.9446   -5.0751 O.3       1 ATP        -0.7954
      9 PA          2.7546    0.3893   -4.4162 P.3       1 ATP         1.7782
     10 O1A         3.5952    1.2918   -5.2721 O.2       1 ATP        -0.8134
     11 O2A         2.9233   -1.1869   -4.7393 O.3       1 ATP        -0.8257
     12 O3A         1.1614    0.6412   -4.5343 O.3       1 ATP        -0.8063
     13 O5'         3.0190    0.5130   -2.8246 O.3       1 ATP        -0.5763
     14 C5'         2.2816   -0.2918   -1.9206 C.3       1 ATP         0.1790
     15 C4'         2.7248    0.0226   -0.4980 C.3       1 ATP         0.1339
     16 O4'         2.4697    1.4219   -0.2462 O.3       1 ATP        -0.4040
     17 C3'         1.9404   -0.7419    0.5596 C.3       1 ATP         0.0906
     18 O3'         2.7418   -0.8086    1.7389 O.3       1 ATP        -0.5689
     19 C2'         0.7477    0.1630    0.7858 C.3       1 ATP         0.0660
     20 O2'         0.1373   -0.0577    2.0407 O.3       1 ATP        -0.5800
     21 C1'         1.3733    1.5427    0.6747 C.3       1 ATP         0.4216
     22 N9          0.4520    2.5240    0.1767 N.pl3     1 ATP        -0.5455
     23 C8          0.1928    2.8484   -1.0815 C.ar      1 ATP         0.2820
     24 N7         -0.7248    3.8048   -1.2110 N.pl3     1 ATP        -0.4970
     25 C5         -1.0765    4.1129    0.0571 C.ar      1 ATP        -0.2773
     26 C6         -1.9614    5.0063    0.5851 C.ar      1 ATP         0.7637
     27 N6         -2.7145    5.8254   -0.2810 N.pl3     1 ATP        -0.9374
     28 N1         -2.1199    5.1113    1.9228 N.ar      1 ATP        -0.7408
     29 C2         -1.3522    4.2822    2.6839 C.ar      1 ATP         0.7215
     30 N3         -0.4501    3.3660    2.2638 N.ar      1 ATP        -0.6797
     31 C4         -0.3487    3.3198    0.9322 C.ar      1 ATP         0.6429
     32 HOG2       -2.0726    2.2818   -7.4602 H         1 ATP         0.4781
     33 HOG3       -4.5037    1.9106   -4.5266 H         1 ATP         0.4781
     34 HOA2        3.8087   -1.5981   -4.6450 H         1 ATP         0.4931
     35 H5'1        1.2149   -0.0786   -2.0446 H         1 ATP         0.0438
     36 H5'2        2.4640   -1.3459   -2.1539 H         1 ATP         0.0438
     37 H4'         3.8049   -0.1388   -0.4009 H         1 ATP         0.1278
     38 H3'         1.6783   -1.7629    0.2715 H         1 ATP         0.1161
     39 HO3'        2.2232   -1.2979    2.3953 H         1 ATP         0.4111
     40 H2'        -0.0011    0.0027    0.0003 H         1 ATP         0.0477
     41 HO2'       -0.6141    0.5574    2.1082 H         1 ATP         0.4259
     42 H1'         1.7826    1.9024    1.6451 H         1 ATP         0.1524
     43 H8          0.6728    2.3873   -1.9272 H         1 ATP         0.2610
     44 HN61       -2.5537    5.7714   -1.2667 H         1 ATP         0.4534
     45 HN62       -3.3282    6.5126    0.1080 H         1 ATP         0.4534
     46 H2         -1.4818    4.3694    3.7565 H         1 ATP         0.0900
     47 H47        -1.0701    4.2005   -2.0743 H         1 ATP         0.5046
@<TRIPOS>BOND
     1    1    2 2
     2    1    3 1
     3    1    4 1
     4    1    8 1
     5    3   32 1
     6    4   33 1
     7    5    6 2
     8    5    7 1
     9    5    8 1
    10    5   12 1
    11    9   10 2
    12    9   11 1
    13    9   12 1
    14    9   13 1
    15   11   34 1
    16   13   14 1
    17   14   15 1
    18   14   35 1
    19   14   36 1
    20   15   16 1
    21   15   17 1
    22   15   37 1
    23   16   21 1
    24   17   18 1
    25   17   19 1
    26   17   38 1
    27   18   39 1
    28   19   20 1
    29   19   21 1
    30   19   40 1
    31   20   41 1
    32   21   22 1
    33   21   42 1
    34   22   23 ar
    35   22   31 ar
    36   23   24 ar
    37   23   43 1
    38   24   25 ar
    39   24   47 1
    40   25   26 ar
    41   25   31 ar
    42   26   27 1
    43   26   28 ar
    44   27   44 1
    45   27   45 1
    46   28   29 ar
    47   29   30 ar
    48   29   46 1
    49   30   31 ar
@<TRIPOS>SUBSTRUCTURE
     1 ATP         1 GROUP 0 A     ****
@<TRIPOS>MOLECULE
[[5-(6-amino-7,8-dihydropurin-8-ylium-9-yl)-3,4-dihydroxy-tetrahydrofuran-2-yl]methoxy-hydroxy-phosphoryl] phosphono phosphate
   47    49     1     0     0
SMALL
USER_CHARGES

@<TRIPOS>ATOM
      1 PG          0.4955    2.2123   -8.2362 P.3       1 ATP         1.7526
      2 O1G        -0.8732    2.8161   -8.3480 O.2       1 ATP        -0.8534
      3 O2G         0.7631    0.9261   -9.1772 O.3       1 ATP        -0.7661
      4 O3G         1.7187    3.2054   -8.5961 O.3       1 ATP        -0.7661
      5 PB          0.1649    0.5493   -5.8225 P.3       1 ATP         1.6631
      6 O1B        -1.2038    1.0467   -5.4147 O.co2     1 ATP        -0.8211
      7 O2B         0.3436   -0.8023   -6.4777 O.co2     1 ATP        -0.8211
      8 O3B         0.8768    1.6811   -6.7576 O.3       1 ATP        -0.7954
      9 PA          2.7546    0.3893   -4.4162 P.3       1 ATP         1.7782
     10 O1A         3.5952    1.2918   -5.2721 O.2       1 ATP        -0.8134
     11 O2A         2.9233   -1.1869   -4.7393 O.3       1 ATP        -0.8257
     12 O3A         1.1614    0.6412   -4.5343 O.3       1 ATP        -0.8063
     13 O5'         3.0190    0.5130   -2.8246 O.3       1 ATP        -0.5763
     14 C5'         2.2816   -0.2918   -1.9206 C.3       1 ATP         0.1790
     15 C4'         2.7248    0.0226   -0.4980 C.3       1 ATP         0.1339
     16 O4'         2.4697    1.4219   -0.2462 O.3       1 ATP        -0.4040
     17 C3'         1.9404   -0.7419    0.5596 C.3       1 ATP         0.0906
     18 O3'         2.7418   -0.8086    1.7389 O.3       1 ATP        -0.5689
     19 C2'         0.7477    0.1630    0.7858 C.3       1 ATP         0.0660
     20 O2'         0.1373   -0.0577    2.0407 O.3       1 ATP        -0.5800
     21 C1'         1.3733    1.5427    0.6747 C.3       1 ATP         0.4216
     22 N9          0.4520    2.5240    0.1767 N.pl3     1 ATP        -0.5455
     23 C8          0.1928    2.8484   -1.0815 C.ar      1 ATP         0.2820
     24 N7         -0.7248    3.8048   -1.2110 N.pl3     1 ATP        -0.4970
     25 C5         -1.0765    4.1129    0.0571 C.ar      1 ATP        -0.2773
     26 C6         -1.9614    5.0063    0.5851 C.ar      1 ATP         0.7637
     27 N6         -2.7145    5.8254   -0.2810 N.pl3     1 ATP        -0.9374
     28 N1         -2.1199    5.1113    1.9228 N.ar      1 ATP        -0.7408
     29 C2         -1.3522    4.2822    2.6839 C.ar      1 ATP         0.7215
     30 N3         -0.4501    3.3660    2.2638 N.ar      1 ATP        -0.6797
     31 C4         -0.3487    3.3198    0.9322 C.ar      1 ATP         0.6429
     32 HOG2        0.2006    0.1304   -9.0650 H         1 ATP         0.4781
     33 HOG3        1.7620    3.5991   -9.4935 H         1 ATP         0.4781
     34 HOA2        3.8087   -1.5981   -4.6450 H         1 ATP         0.4931
     35 H5'1        1.2149   -0.0786   -2.0446 H         1 ATP         0.0438
     36 H5'2        2.4640   -1.3459   -2.1539 H         1 ATP         0.0438
     37 H4'         3.8049   -0.1388   -0.4009 H         1 ATP         0.1278
     38 H3'         1.6783   -1.7629    0.2715 H         1 ATP         0.1161
     39 HO3'        2.2232   -1.2979    2.3953 H         1 ATP         0.4111
     40 H2'        -0.0011    0.0027    0.0003 H         1 ATP         0.0477
     41 HO2'       -0.6141    0.5574    2.1082 H         1 ATP         0.4259
     42 H1'         1.7826    1.9024    1.6451 H         1 ATP         0.1524
     43 H8          0.6728    2.3873   -1.9272 H         1 ATP         0.2610
     44 HN61       -2.5537    5.7714   -1.2667 H         1 ATP         0.4534
     45 HN62       -3.3282    6.5126    0.1080 H         1 ATP         0.4534
     46 H2         -1.4818    4.3694    3.7565 H         1 ATP         0.0900
     47 H47        -1.0701    4.2005   -2.0743 H         1 ATP         0.5046
@<TRIPOS>BOND
     1    1    2 2
     2    1    3 1
     3    1    4 1
     4    1    8 1
     5    3   32 1
     6    4   33 1
     7    5    6 2
     8    5    7 1
     9    5    8 1
    10    5   12 1
    11    9   10 2
    12    9   11 1
    13    9   12 1
    14    9   13 1
    15   11   34 1
    16   13   14 1
    17   14   15 1
    18   14   35 1
    19   14   36 1
    20   15   16 1
    21   15   17 1
    22   15   37 1
    23   16   21 1
    24   17   18 1
    25   17   19 1
    26   17   38 1
    27   18   39 1
    28   19   20 1
    29   19   21 1
    30   19   40 1
    31   20   41 1
    32   21   22 1
    33   21   42 1
    34   22   23 ar
    35   22   31 ar
    36   23   24 ar
    37   23   43 1
    38   24   25 ar
    39   24   47 1
    40   25   26 ar
    41   25   31 ar
    42   26   27 1
    43   26   28 ar
    44   27   44 1
    45   27   45 1
    46   28   29 ar
    47   29   30 ar
    48   29   46 1
    49   30   31 ar
@<TRIPOS>SUBSTRUCTURE
     1 ATP         1 GROUP 0 A     ****
@<TRIPOS>MOLECULE
[[5-(6-amino-7,8-dihydropurin-8-ylium-9-yl)-3,4-dihydroxy-tetrahydrofuran-2-yl]methoxy-hydroxy-phosphoryl] phosphono phosphate
   47    49     1     0     0
SMALL
USER_CHARGES

@<TRIPOS>ATOM
      1 PG         -0.2209   -1.9213   -7.3872 P.3       1 ATP         1.7526
      2 O1G         0.0661   -1.4215   -8.7722 O.2       1 ATP        -0.8534
      3 O2G        -1.7860   -2.0141   -6.9958 O.3       1 ATP        -0.7661
      4 O3G         0.3398   -3.4010   -7.0582 O.3       1 ATP        -0.7661
      5 PB          0.1649    0.5493   -5.8225 P.3       1 ATP         1.6631
      6 O1B         0.7244    1.4114   -6.9321 O.co2     1 ATP        -0.8211
      7 O2B        -1.2606    0.7153   -5.3451 O.co2     1 ATP        -0.8211
      8 O3B         0.4090   -1.0185   -6.2032 O.3       1 ATP        -0.7954
      9 PA          2.7546    0.3893   -4.4162 P.3       1 ATP         1.7782
     10 O1A         3.5952    1.2918   -5.2721 O.2       1 ATP        -0.8134
     11 O2A         2.9233   -1.1869   -4.7393 O.3       1 ATP        -0.8257
     12 O3A         1.1614    0.6412   -4.5343 O.3       1 ATP        -0.8063
     13 O5'         3.0190    0.5130   -2.8246 O.3       1 ATP        -0.5763
     14 C5'         2.2816   -0.2918   -1.9206 C.3       1 ATP         0.1790
     15 C4'         2.7248    0.0226   -0.4980 C.3       1 ATP         0.1339
     16 O4'         2.4697    1.4219   -0.2462 O.3       1 ATP        -0.4040
     17 C3'         1.9404   -0.7419    0.5596 C.3       1 ATP         0.0906
     18 O3'         2.7418   -0.8086    1.7389 O.3       1 ATP        -0.5689
     19 C2'         0.7477    0.1630    0.7858 C.3       1 ATP         0.0660
     20 O2'         0.1373   -0.0577    2.0407 O.3       1 ATP        -0.5800
     21 C1'         1.3733    1.5427    0.6747 C.3       1 ATP         0.4216
     22 N9          0.4520    2.5240    0.1767 N.pl3     1 ATP        -0.5455
     23 C8          0.1928    2.8484   -1.0815 C.ar      1 ATP         0.2820
     24 N7         -0.7248    3.8048   -1.2110 N.pl3     1 ATP        -0.4970
     25 C5         -1.0765    4.1129    0.0571 C.ar      1 ATP        -0.2773
     26 C6         -1.9614    5.0063    0.5851 C.ar      1 ATP         0.7637
     27 N6         -2.7145    5.8254   -0.2810 N.pl3     1 ATP        -0.9374
     28 N1         -2.1199    5.1113    1.9228 N.ar      1 ATP        -0.7408
     29 C2         -1.3522    4.2822    2.6839 C.ar      1 ATP         0.7215
     30 N3         -0.4501    3.3660    2.2638 N.ar      1 ATP        -0.6797
     31 C4         -0.3487    3.3198    0.9322 C.ar      1 ATP         0.6429
     32 HOG2       -2.3291   -1.1976   -7.0135 H         1 ATP         0.4781
     33 HOG3        0.0264   -4.1580   -7.5976 H         1 ATP         0.4781
     34 HOA2        2.7054   -1.5125   -5.6385 H         1 ATP         0.4931
     35 H5'1        1.2149   -0.0786   -2.0446 H         1 ATP         0.0438
     36 H5'2        2.4640   -1.3459   -2.1539 H         1 ATP         0.0438
     37 H4'         3.8049   -0.1388   -0.4009 H         1 ATP         0.1278
     38 H3'         1.6783   -1.7629    0.2715 H         1 ATP         0.1161
     39 HO3'        2.2232   -1.2979    2.3953 H         1 ATP         0.4111
     40 H2'        -0.0011    0.0027    0.0003 H         1 ATP         0.0477
     41 HO2'       -0.6141    0.5574    2.1082 H         1 ATP         0.4259
     42 H1'         1.7826    1.9024    1.6451 H         1 ATP         0.1524
     43 H8          0.6728    2.3873   -1.9272 H         1 ATP         0.2610
     44 HN61       -2.5537    5.7714   -1.2667 H         1 ATP         0.4534
     45 HN62       -3.3282    6.5126    0.1080 H         1 ATP         0.4534
     46 H2         -1.4818    4.3694    3.7565 H         1 ATP         0.0900
     47 H47        -1.0701    4.2005   -2.0743 H         1 ATP         0.5046
@<TRIPOS>BOND
     1    1    2 2
     2    1    3 1
     3    1    4 1
     4    1    8 1
     5    3   32 1
     6    4   33 1
     7    5    6 2
     8    5    7 1
     9    5    8 1
    10    5   12 1
    11    9   10 2
    12    9   11 1
    13    9   12 1
    14    9   13 1
    15   11   34 1
    16   13   14 1
    17   14   15 1
    18   14   35 1
    19   14   36 1
    20   15   16 1
    21   15   17 1
    22   15   37 1
    23   16   21 1
    24   17   18 1
    25   17   19 1
    26   17   38 1
    27   18   39 1
    28   19   20 1
    29   19   21 1
    30   19   40 1
    31   20   41 1
    32   21   22 1
    33   21   42 1
    34   22   23 ar
    35   22   31 ar
    36   23   24 ar
    37   23   43 1
    38   24   25 ar
    39   24   47 1
    40   25   26 ar
    41   25   31 ar
    42   26   27 1
    43   26   28 ar
    44   27   44 1
    45   27   45 1
    46   28   29 ar
    47   29   30 ar
    48   29   46 1
    49   30   31 ar
@<TRIPOS>SUBSTRUCTURE
     1 ATP         1 GROUP 0 A     ****
@<TRIPOS>MOLECULE
[[5-(6-amino-7,8-dihydropurin-8-ylium-9-yl)-3,4-dihydroxy-tetrahydrofuran-2-yl]methoxy-hydroxy-phosphoryl] phosphono phosphate
   47    49     1     0     0
SMALL
USER_CHARGES

@<TRIPOS>ATOM
      1 PG         -0.0780    4.4952   -5.5219 P.3       1 ATP         1.7526
      2 O1G         0.6103    5.3619   -6.5346 O.2       1 ATP        -0.8534
      3 O2G        -0.1866    5.1205   -4.0357 O.3       1 ATP        -0.7661
      4 O3G        -1.6037    4.0978   -5.8775 O.3       1 ATP        -0.7661
      5 PB          2.1282    2.6950   -4.7518 P.3       1 ATP         1.6631
      6 O1B         3.1278    3.1336   -5.7986 O.co2     1 ATP        -0.8211
      7 O2B         2.2596    3.1352   -3.3107 O.co2     1 ATP        -0.8211
      8 O3B         0.6267    3.0612   -5.2749 O.3       1 ATP        -0.7954
      9 PA          3.0839   -0.0768   -4.4158 P.3       1 ATP         1.7782
     10 O1A         4.3457   -0.0393   -5.2282 O.2       1 ATP        -0.8134
     11 O2A         2.2462   -1.4549   -4.5445 O.3       1 ATP        -0.8257
     12 O3A         2.0063    1.0688   -4.7923 O.3       1 ATP        -0.8063
     13 O5'         3.2874    0.1331   -2.8242 O.3       1 ATP        -0.5763
     14 C5'         2.2816   -0.2918   -1.9206 C.3       1 ATP         0.1790
     15 C4'         2.7248    0.0226   -0.4980 C.3       1 ATP         0.1339
     16 O4'         2.4697    1.4219   -0.2462 O.3       1 ATP        -0.4040
     17 C3'         1.9404   -0.7419    0.5596 C.3       1 ATP         0.0906
     18 O3'         2.7418   -0.8086    1.7389 O.3       1 ATP        -0.5689
     19 C2'         0.7477    0.1630    0.7858 C.3       1 ATP         0.0660
     20 O2'         0.1373   -0.0577    2.0407 O.3       1 ATP        -0.5800
     21 C1'         1.3733    1.5427    0.6747 C.3       1 ATP         0.4216
     22 N9          0.4520    2.5240    0.1767 N.pl3     1 ATP        -0.5455
     23 C8         -0.2172    2.5216   -0.9668 C.ar      1 ATP         0.2820
     24 N7         -1.0011    3.5855   -1.1321 N.pl3     1 ATP        -0.4970
     25 C5         -0.8184    4.3200   -0.0123 C.ar      1 ATP        -0.2773
     26 C6         -1.3349    5.5079    0.4144 C.ar      1 ATP         0.7637
     27 N6         -2.2567    6.1930   -0.4036 N.pl3     1 ATP        -0.9374
     28 N1         -0.9716    6.0291    1.6069 N.ar      1 ATP        -0.7408
     29 C2         -0.0765    5.3009    2.3312 C.ar      1 ATP         0.7215
     30 N3          0.4933    4.1191    2.0023 N.ar      1 ATP        -0.6797
     31 C4          0.0865    3.6675    0.8123 C.ar      1 ATP         0.6429
     32 HOG2        0.6376    5.3474   -3.5547 H         1 ATP         0.4781
     33 HOG3       -2.2660    4.8124   -5.9913 H         1 ATP         0.4781
     34 HOA2        2.6742   -2.2964   -4.2787 H         1 ATP         0.4931
     35 H5'1        1.3494    0.2322   -2.1552 H         1 ATP         0.0438
     36 H5'2        2.1260   -1.3686   -2.0435 H         1 ATP         0.0438
     37 H4'         3.8049   -0.1388   -0.4009 H         1 ATP         0.1278
     38 H3'         1.6783   -1.7629    0.2715 H         1 ATP         0.1161
     39 HO3'        2.2232   -1.2979    2.3953 H         1 ATP         0.4111
     40 H2'        -0.0011    0.0027    0.0003 H         1 ATP         0.0477
     41 HO2'       -0.1563   -0.9855    2.0596 H         1 ATP         0.4259
     42 H1'         1.7826    1.9024    1.6451 H         1 ATP         0.1524
     43 H8         -0.1423    1.7373   -1.6999 H         1 ATP         0.2610
     44 HN61       -2.4811    5.8206   -1.3042 H         1 ATP         0.4534
     45 HN62       -2.5986    7.0863   -0.1113 H         1 ATP         0.4534
     46 H2          0.2128    5.7222    3.2871 H         1 ATP         0.0900
     47 H47        -1.5947    3.7835   -1.9255 H         1 ATP         0.5046
@<TRIPOS>BOND
     1    1    2 2
     2    1    3 1
     3    1    4 1
     4    1    8 1
     5    3   32 1
     6    4   33 1
     7    5    6 2
     8    5    7 1
     9    5    8 1
    10    5   12 1
    11    9   10 2
    12    9   11 1
    13    9   12 1
    14    9   13 1
    15   11   34 1
    16   13   14 1
    17   14   15 1
    18   14   35 1
    19   14   36 1
    20   15   16 1
    21   15   17 1
    22   15   37 1
    23   16   21 1
    24   17   18 1
    25   17   19 1
    26   17   38 1
    27   18   39 1
    28   19   20 1
    29   19   21 1
    30   19   40 1
    31   20   41 1
    32   21   22 1
    33   21   42 1
    34   22   23 ar
    35   22   31 ar
    36   23   24 ar
    37   23   43 1
    38   24   25 ar
    39   24   47 1
    40   25   26 ar
    41   25   31 ar
    42   26   27 1
    43   26   28 ar
    44   27   44 1
    45   27   45 1
    46   28   29 ar
    47   29   30 ar
    48   29   46 1
    49   30   31 ar
@<TRIPOS>SUBSTRUCTURE
     1 ATP         1 GROUP 0 A     ****
@<TRIPOS>MOLECULE
[[5-(6-amino-7,8-dihydropurin-8-ylium-9-yl)-3,4-dihydroxy-tetrahydrofuran-2-yl]methoxy-hydroxy-phosphoryl] phosphono phosphate
   47    49     1     0     0
SMALL
USER_CHARGES

@<TRIPOS>ATOM
      1 PG         -1.8070    2.1729   -6.1884 P.3       1 ATP         1.7526
      2 O1G        -1.5619    3.0703   -7.3652 O.2       1 ATP        -0.8534
      3 O2G        -2.6455    2.8353   -4.9761 O.3       1 ATP        -0.7661
      4 O3G        -2.6213    0.8154   -6.5142 O.3       1 ATP        -0.7661
      5 PB          0.7651    0.7356   -6.0507 P.3       1 ATP         1.6631
      6 O1B         0.2469   -0.6472   -6.3773 O.co2     1 ATP        -0.8211
      7 O2B         1.5137    1.5541   -7.0790 O.co2     1 ATP        -0.8211
      8 O3B        -0.4660    1.6320   -5.4652 O.3       1 ATP        -0.7954
      9 PA          3.0839   -0.0768   -4.4158 P.3       1 ATP         1.7782
     10 O1A         4.2162    0.4129   -5.2713 O.2       1 ATP        -0.8134
     11 O2A         2.7515   -1.6512   -4.5832 O.3       1 ATP        -0.8257
     12 O3A         1.6665    0.6506   -4.6937 O.3       1 ATP        -0.8063
     13 O5'         3.2874    0.1331   -2.8242 O.3       1 ATP        -0.5763
     14 C5'         2.2816   -0.2918   -1.9206 C.3       1 ATP         0.1790
     15 C4'         2.7248    0.0226   -0.4980 C.3       1 ATP         0.1339
     16 O4'         2.4697    1.4219   -0.2462 O.3       1 ATP        -0.4040
     17 C3'         1.9404   -0.7419    0.5596 C.3       1 ATP         0.0906
     18 O3'         2.7418   -0.8086    1.7389 O.3       1 ATP        -0.5689
     19 C2'         0.7477    0.1630    0.7858 C.3       1 ATP         0.0660
     20 O2'         0.1373   -0.0577    2.0407 O.3       1 ATP        -0.5800
     21 C1'         1.3733    1.5427    0.6747 C.3       1 ATP         0.4216
     22 N9          0.4520    2.5240    0.1767 N.pl3     1 ATP        -0.5455
     23 C8          0.1928    2.8484   -1.0815 C.ar      1 ATP         0.2820
     24 N7         -0.7248    3.8048   -1.2110 N.pl3     1 ATP        -0.4970
     25 C5         -1.0765    4.1129    0.0571 C.ar      1 ATP        -0.2773
     26 C6         -1.9614    5.0063    0.5851 C.ar      1 ATP         0.7637
     27 N6         -2.7145    5.8254   -0.2810 N.pl3     1 ATP        -0.9374
     28 N1         -2.1199    5.1113    1.9228 N.ar      1 ATP        -0.7408
     29 C2         -1.3522    4.2822    2.6839 C.ar      1 ATP         0.7215
     30 N3         -0.4501    3.3660    2.2638 N.ar      1 ATP        -0.6797
     31 C4         -0.3487    3.3198    0.9322 C.ar      1 ATP         0.6429
     32 HOG2       -2.2863    3.6313   -4.5295 H         1 ATP         0.4781
     33 HOG3       -2.2440    0.1787   -7.1580 H         1 ATP         0.4781
     34 HOA2        2.4892   -1.9892   -5.4658 H         1 ATP         0.4931
     35 H5'1        1.3494    0.2322   -2.1552 H         1 ATP         0.0438
     36 H5'2        2.1260   -1.3686   -2.0435 H         1 ATP         0.0438
     37 H4'         3.8049   -0.1388   -0.4009 H         1 ATP         0.1278
     38 H3'         1.6783   -1.7629    0.2715 H         1 ATP         0.1161
     39 HO3'        3.5554   -1.2733    1.4914 H         1 ATP         0.4111
     40 H2'        -0.0011    0.0027    0.0003 H         1 ATP         0.0477
     41 HO2'       -0.6141    0.5574    2.1082 H         1 ATP         0.4259
     42 H1'         1.7826    1.9024    1.6451 H         1 ATP         0.1524
     43 H8          0.6728    2.3873   -1.9272 H         1 ATP         0.2610
     44 HN61       -2.5537    5.7714   -1.2667 H         1 ATP         0.4534
     45 HN62       -3.3282    6.5126    0.1080 H         1 ATP         0.4534
     46 H2         -1.4818    4.3694    3.7565 H         1 ATP         0.0900
     47 H47        -1.0701    4.2005   -2.0743 H         1 ATP         0.5046
@<TRIPOS>BOND
     1    1    2 2
     2    1    3 1
     3    1    4 1
     4    1    8 1
     5    3   32 1
     6    4   33 1
     7    5    6 2
     8    5    7 1
     9    5    8 1
    10    5   12 1
    11    9   10 2
    12    9   11 1
    13    9   12 1
    14    9   13 1
    15   11   34 1
    16   13   14 1
    17   14   15 1
    18   14   35 1
    19   14   36 1
    20   15   16 1
    21   15   17 1
    22   15   37 1
    23   16   21 1
    24   17   18 1
    25   17   19 1
    26   17   38 1
    27   18   39 1
    28   19   20 1
    29   19   21 1
    30   19   40 1
    31   20   41 1
    32   21   22 1
    33   21   42 1
    34   22   23 ar
    35   22   31 ar
    36   23   24 ar
    37   23   43 1
    38   24   25 ar
    39   24   47 1
    40   25   26 ar
    41   25   31 ar
    42   26   27 1
    43   26   28 ar
    44   27   44 1
    45   27   45 1
    46   28   29 ar
    47   29   30 ar
    48   29   46 1
    49   30   31 ar
@<TRIPOS>SUBSTRUCTURE
     1 ATP         1 GROUP 0 A     ****
@<TRIPOS>MOLECULE
[[5-(6-amino-7,8-dihydropurin-8-ylium-9-yl)-3,4-dihydroxy-tetrahydrofuran-2-yl]methoxy-hydroxy-phosphoryl] phosphono phosphate
   47    49     1     0     0
SMALL
USER_CHARGES

@<TRIPOS>ATOM
      1 PG          0.0552    4.4334   -6.6178 P.3       1 ATP         1.7526
      2 O1G        -0.5628    3.7973   -7.8278 O.2       1 ATP        -0.8534
      3 O2G         1.3622    5.3397   -6.9041 O.3       1 ATP        -0.7661
      4 O3G        -0.9161    5.4220   -5.7865 O.3       1 ATP        -0.7661
      5 PB         -0.2612    2.2685   -4.6393 P.3       1 ATP         1.6631
      6 O1B        -1.2202    2.9773   -3.7091 O.co2     1 ATP        -0.8211
      7 O2B        -0.7414    1.1920   -5.5871 O.co2     1 ATP        -0.8211
      8 O3B         0.5629    3.3874   -5.4944 O.3       1 ATP        -0.7954
      9 PA          2.3549    0.9657   -4.2291 P.3       1 ATP         1.7782
     10 O1A         3.2319    1.8157   -5.1020 O.2       1 ATP        -0.8134
     11 O2A         1.8647   -0.4148   -4.9154 O.3       1 ATP        -0.8257
     12 O3A         0.9794    1.6761   -3.7612 O.3       1 ATP        -0.8063
     13 O5'         3.0190    0.5130   -2.8246 O.3       1 ATP        -0.5763
     14 C5'         2.2816   -0.2918   -1.9206 C.3       1 ATP         0.1790
     15 C4'         2.7248    0.0226   -0.4980 C.3       1 ATP         0.1339
     16 O4'         2.4697    1.4219   -0.2462 O.3       1 ATP        -0.4040
     17 C3'         1.9404   -0.7419    0.5596 C.3       1 ATP         0.0906
     18 O3'         2.7418   -0.8086    1.7389 O.3       1 ATP        -0.5689
     19 C2'         0.7477    0.1630    0.7858 C.3       1 ATP         0.0660
     20 O2'         0.1373   -0.0577    2.0407 O.3       1 ATP        -0.5800
     21 C1'         1.3733    1.5427    0.6747 C.3       1 ATP         0.4216
     22 N9          0.4520    2.5240    0.1767 N.pl3     1 ATP        -0.5455
     23 C8         -0.8602    2.5861    0.3496 C.ar      1 ATP         0.2820
     24 N7         -1.4308    3.6326   -0.2443 N.pl3     1 ATP        -0.4970
     25 C5         -0.4080    4.2856   -0.8394 C.ar      1 ATP        -0.2773
     26 C6         -0.3432    5.4196   -1.5943 C.ar      1 ATP         0.7637
     27 N6         -1.5276    6.1333   -1.8702 N.pl3     1 ATP        -0.9374
     28 N1          0.8395    5.8603   -2.0764 N.ar      1 ATP        -0.7408
     29 C2          1.9319    5.1095   -1.7617 C.ar      1 ATP         0.7215
     30 N3          1.9773    3.9761   -1.0249 N.ar      1 ATP        -0.6797
     31 C4          0.7724    3.6031   -0.5836 C.ar      1 ATP         0.6429
     32 HOG2        1.2812    6.1152   -7.4992 H         1 ATP         0.4781
     33 HOG3       -1.7448    5.0622   -5.4044 H         1 ATP         0.4781
     34 HOA2        2.5388   -1.0651   -5.2064 H         1 ATP         0.4931
     35 H5'1        1.2149   -0.0786   -2.0446 H         1 ATP         0.0438
     36 H5'2        2.4640   -1.3459   -2.1539 H         1 ATP         0.0438
     37 H4'         3.8049   -0.1388   -0.4009 H         1 ATP         0.1278
     38 H3'         1.6783   -1.7629    0.2715 H         1 ATP         0.1161
     39 HO3'        2.2232   -1.2979    2.3953 H         1 ATP         0.4111
     40 H2'        -0.0011    0.0027    0.0003 H         1 ATP         0.0477
     41 HO2'       -0.1563   -0.9855    2.0596 H         1 ATP         0.4259
     42 H1'         1.7826    1.9024    1.6451 H         1 ATP         0.1524
     43 H8         -1.4217    1.8638    0.9164 H         1 ATP         0.2610
     44 HN61       -2.4023    5.7711   -1.5477 H         1 ATP         0.4534
     45 HN62       -1.4857    6.9379   -2.4627 H         1 ATP         0.4534
     46 H2          2.8789    5.4660   -2.1503 H         1 ATP         0.0900
     47 H47        -2.4129    3.8706   -0.2402 H         1 ATP         0.5046
@<TRIPOS>BOND
     1    1    2 2
     2    1    3 1
     3    1    4 1
     4    1    8 1
     5    3   32 1
     6    4   33 1
     7    5    6 2
     8    5    7 1
     9    5    8 1
    10    5   12 1
    11    9   10 2
    12    9   11 1
    13    9   12 1
    14    9   13 1
    15   11   34 1
    16   13   14 1
    17   14   15 1
    18   14   35 1
    19   14   36 1
    20   15   16 1
    21   15   17 1
    22   15   37 1
    23   16   21 1
    24   17   18 1
    25   17   19 1
    26   17   38 1
    27   18   39 1
    28   19   20 1
    29   19   21 1
    30   19   40 1
    31   20   41 1
    32   21   22 1
    33   21   42 1
    34   22   23 ar
    35   22   31 ar
    36   23   24 ar
    37   23   43 1
    38   24   25 ar
    39   24   47 1
    40   25   26 ar
    41   25   31 ar
    42   26   27 1
    43   26   28 ar
    44   27   44 1
    45   27   45 1
    46   28   29 ar
    47   29   30 ar
    48   29   46 1
    49   30   31 ar
@<TRIPOS>SUBSTRUCTURE
     1 ATP         1 GROUP 0 A     ****
@<TRIPOS>MOLECULE
[[5-(6-amino-7,8-dihydropurin-8-ylium-9-yl)-3,4-dihydroxy-tetrahydrofuran-2-yl]methoxy-hydroxy-phosphoryl] phosphono phosphate
   47    49     1     0     0
SMALL
USER_CHARGES

@<TRIPOS>ATOM
      1 PG          5.1601    4.7975   -4.8845 P.3       1 ATP         1.7526
      2 O1G         4.6055    6.1839   -5.0283 O.2       1 ATP        -0.8534
      3 O2G         6.0238    4.2642   -6.1419 O.3       1 ATP        -0.7661
      4 O3G         6.1493    4.5777   -3.6255 O.3       1 ATP        -0.7661
      5 PB          2.9228    3.4525   -3.5110 P.3       1 ATP         1.6631
      6 O1B         3.6277    3.1603   -2.2052 O.co2     1 ATP        -0.8211
      7 O2B         1.9110    4.5713   -3.6213 O.co2     1 ATP        -0.8211
      8 O3B         4.0444    3.6454   -4.6803 O.3       1 ATP        -0.7954
      9 PA          2.8824    0.6133   -4.3155 P.3       1 ATP         1.7782
     10 O1A         4.0008    0.5891   -5.3166 O.2       1 ATP        -0.8134
     11 O2A         1.6103   -0.3046   -4.7113 O.3       1 ATP        -0.8257
     12 O3A         2.2407    2.0753   -4.0580 O.3       1 ATP        -0.8063
     13 O5'         3.2874    0.1331   -2.8242 O.3       1 ATP        -0.5763
     14 C5'         2.2816   -0.2918   -1.9206 C.3       1 ATP         0.1790
     15 C4'         2.7248    0.0226   -0.4980 C.3       1 ATP         0.1339
     16 O4'         2.4697    1.4219   -0.2462 O.3       1 ATP        -0.4040
     17 C3'         1.9404   -0.7419    0.5596 C.3       1 ATP         0.0906
     18 O3'         2.7418   -0.8086    1.7389 O.3       1 ATP        -0.5689
     19 C2'         0.7477    0.1630    0.7858 C.3       1 ATP         0.0660
     20 O2'         0.1373   -0.0577    2.0407 O.3       1 ATP        -0.5800
     21 C1'         1.3733    1.5427    0.6747 C.3       1 ATP         0.4216
     22 N9          0.4520    2.5240    0.1767 N.pl3     1 ATP        -0.5455
     23 C8          0.1928    2.8484   -1.0815 C.ar      1 ATP         0.2820
     24 N7         -0.7248    3.8048   -1.2110 N.pl3     1 ATP        -0.4970
     25 C5         -1.0765    4.1129    0.0571 C.ar      1 ATP        -0.2773
     26 C6         -1.9614    5.0063    0.5851 C.ar      1 ATP         0.7637
     27 N6         -2.7145    5.8254   -0.2810 N.pl3     1 ATP        -0.9374
     28 N1         -2.1199    5.1113    1.9228 N.ar      1 ATP        -0.7408
     29 C2         -1.3522    4.2822    2.6839 C.ar      1 ATP         0.7215
     30 N3         -0.4501    3.3660    2.2638 N.ar      1 ATP        -0.6797
     31 C4         -0.3487    3.3198    0.9322 C.ar      1 ATP         0.6429
     32 HOG2        6.8281    4.7579   -6.4092 H         1 ATP         0.4781
     33 HOG3        5.8071    4.7357   -2.7199 H         1 ATP         0.4781
     34 HOA2        1.7413   -1.2688   -4.8338 H         1 ATP         0.4931
     35 H5'1        1.3494    0.2322   -2.1552 H         1 ATP         0.0438
     36 H5'2        2.1260   -1.3686   -2.0435 H         1 ATP         0.0438
     37 H4'         3.8049   -0.1388   -0.4009 H         1 ATP         0.1278
     38 H3'         1.6783   -1.7629    0.2715 H         1 ATP         0.1161
     39 HO3'        2.2232   -1.2979    2.3953 H         1 ATP         0.4111
     40 H2'        -0.0011    0.0027    0.0003 H         1 ATP         0.0477
     41 HO2'       -0.6141    0.5574    2.1082 H         1 ATP         0.4259
     42 H1'         1.7826    1.9024    1.6451 H         1 ATP         0.1524
     43 H8          0.6728    2.3873   -1.9272 H         1 ATP         0.2610
     44 HN61       -2.5537    5.7714   -1.2667 H         1 ATP         0.4534
     45 HN62       -3.3282    6.5126    0.1080 H         1 ATP         0.4534
     46 H2         -1.4818    4.3694    3.7565 H         1 ATP         0.0900
     47 H47        -1.0701    4.2005   -2.0743 H         1 ATP         0.5046
@<TRIPOS>BOND
     1    1    2 2
     2    1    3 1
     3    1    4 1
     4    1    8 1
     5    3   32 1
     6    4   33 1
     7    5    6 2
     8    5    7 1
     9    5    8 1
    10    5   12 1
    11    9   10 2
    12    9   11 1
    13    9   12 1
    14    9   13 1
    15   11   34 1
    16   13   14 1
    17   14   15 1
    18   14   35 1
    19   14   36 1
    20   15   16 1
    21   15   17 1
    22   15   37 1
    23   16   21 1
    24   17   18 1
    25   17   19 1
    26   17   38 1
    27   18   39 1
    28   19   20 1
    29   19   21 1
    30   19   40 1
    31   20   41 1
    32   21   22 1
    33   21   42 1
    34   22   23 ar
    35   22   31 ar
    36   23   24 ar
    37   23   43 1
    38   24   25 ar
    39   24   47 1
    40   25   26 ar
    41   25   31 ar
    42   26   27 1
    43   26   28 ar
    44   27   44 1
    45   27   45 1
    46   28   29 ar
    47   29   30 ar
    48   29   46 1
    49   30   31 ar
@<TRIPOS>SUBSTRUCTURE
     1 ATP         1 GROUP 0 A     ****
@<TRIPOS>MOLECULE
[[5-(6-amino-7,8-dihydropurin-8-ylium-9-yl)-3,4-dihydroxy-tetrahydrofuran-2-yl]methoxy-hydroxy-phosphoryl] phosphono phosphate
   47    49     1     0     0
SMALL
USER_CHARGES

@<TRIPOS>ATOM
      1 PG          4.5328    0.6874   -7.8350 P.3       1 ATP         1.7526
      2 O1G         3.4699    1.2979   -8.6999 O.2       1 ATP        -0.8534
      3 O2G         5.4075   -0.4785   -8.5329 O.3       1 ATP        -0.7661
      4 O3G         5.6483    1.7180   -7.2824 O.3       1 ATP        -0.7661
      5 PB          2.9340   -1.2493   -6.2876 P.3       1 ATP         1.6631
      6 O1B         1.5650   -0.8057   -6.7529 O.co2     1 ATP        -0.8211
      7 O2B         3.5702   -2.5138   -6.8204 O.co2     1 ATP        -0.8211
      8 O3B         3.9811   -0.0139   -6.4867 O.3       1 ATP        -0.7954
      9 PA          2.1463   -2.2799   -3.6368 P.3       1 ATP         1.7782
     10 O1A         2.4483   -3.7410   -3.8024 O.2       1 ATP        -0.8134
     11 O2A         0.5922   -1.8888   -3.8580 O.3       1 ATP        -0.8257
     12 O3A         2.9399   -1.3083   -4.6574 O.3       1 ATP        -0.8063
     13 O5'         2.5233   -1.6622   -2.1894 O.3       1 ATP        -0.5763
     14 C5'         2.2816   -0.2918   -1.9206 C.3       1 ATP         0.1790
     15 C4'         2.7248    0.0226   -0.4980 C.3       1 ATP         0.1339
     16 O4'         2.4697    1.4219   -0.2462 O.3       1 ATP        -0.4040
     17 C3'         1.9404   -0.7419    0.5596 C.3       1 ATP         0.0906
     18 O3'         2.7418   -0.8086    1.7389 O.3       1 ATP        -0.5689
     19 C2'         0.7477    0.1630    0.7858 C.3       1 ATP         0.0660
     20 O2'         0.1373   -0.0577    2.0407 O.3       1 ATP        -0.5800
     21 C1'         1.3733    1.5427    0.6747 C.3       1 ATP         0.4216
     22 N9          0.4520    2.5240    0.1767 N.pl3     1 ATP        -0.5455
     23 C8          0.1928    2.8484   -1.0815 C.ar      1 ATP         0.2820
     24 N7         -0.7248    3.8048   -1.2110 N.pl3     1 ATP        -0.4970
     25 C5         -1.0765    4.1129    0.0571 C.ar      1 ATP        -0.2773
     26 C6         -1.9614    5.0063    0.5851 C.ar      1 ATP         0.7637
     27 N6         -2.7145    5.8254   -0.2810 N.pl3     1 ATP        -0.9374
     28 N1         -2.1199    5.1113    1.9228 N.ar      1 ATP        -0.7408
     29 C2         -1.3522    4.2822    2.6839 C.ar      1 ATP         0.7215
     30 N3         -0.4501    3.3660    2.2638 N.ar      1 ATP        -0.6797
     31 C4         -0.3487    3.3198    0.9322 C.ar      1 ATP         0.6429
     32 HOG2        4.9515   -1.2828   -8.8603 H         1 ATP         0.4781
     33 HOG3        6.1960    2.2149   -7.9270 H         1 ATP         0.4781
     34 HOA2       -0.0862   -2.2949   -3.2777 H         1 ATP         0.4931
     35 H5'1        2.8428    0.3150   -2.6387 H         1 ATP         0.0438
     36 H5'2        1.2124   -0.0896   -2.0417 H         1 ATP         0.0438
     37 H4'         3.8049   -0.1388   -0.4009 H         1 ATP         0.1278
     38 H3'         1.6783   -1.7629    0.2715 H         1 ATP         0.1161
     39 HO3'        2.2232   -1.2979    2.3953 H         1 ATP         0.4111
     40 H2'        -0.0011    0.0027    0.0003 H         1 ATP         0.0477
     41 HO2'       -0.6141    0.5574    2.1082 H         1 ATP         0.4259
     42 H1'         1.7826    1.9024    1.6451 H         1 ATP         0.1524
     43 H8          0.6728    2.3873   -1.9272 H         1 ATP         0.2610
     44 HN61       -2.5537    5.7714   -1.2667 H         1 ATP         0.4534
     45 HN62       -3.3282    6.5126    0.1080 H         1 ATP         0.4534
     46 H2         -1.4818    4.3694    3.7565 H         1 ATP         0.0900
     47 H47        -1.0701    4.2005   -2.0743 H         1 ATP         0.5046
@<TRIPOS>BOND
     1    1    2 2
     2    1    3 1
     3    1    4 1
     4    1    8 1
     5    3   32 1
     6    4   33 1
     7    5    6 2
     8    5    7 1
     9    5    8 1
    10    5   12 1
    11    9   10 2
    12    9   11 1
    13    9   12 1
    14    9   13 1
    15   11   34 1
    16   13   14 1
    17   14   15 1
    18   14   35 1
    19   14   36 1
    20   15   16 1
    21   15   17 1
    22   15   37 1
    23   16   21 1
    24   17   18 1
    25   17   19 1
    26   17   38 1
    27   18   39 1
    28   19   20 1
    29   19   21 1
    30   19   40 1
    31   20   41 1
    32   21   22 1
    33   21   42 1
    34   22   23 ar
    35   22   31 ar
    36   23   24 ar
    37   23   43 1
    38   24   25 ar
    39   24   47 1
    40   25   26 ar
    41   25   31 ar
    42   26   27 1
    43   26   28 ar
    44   27   44 1
    45   27   45 1
    46   28   29 ar
    47   29   30 ar
    48   29   46 1
    49   30   31 ar
@<TRIPOS>SUBSTRUCTURE
     1 ATP         1 GROUP 0 A     ****
@<TRIPOS>MOLECULE
[[5-(6-amino-7,8-dihydropurin-8-ylium-9-yl)-3,4-dihydroxy-tetrahydrofuran-2-yl]methoxy-hydroxy-phosphoryl] phosphono phosphate
   47    49     1     0     0
SMALL
USER_CHARGES

@<TRIPOS>ATOM
      1 PG          6.3855   -3.2371   -5.6696 P.3       1 ATP         1.7526
      2 O1G         7.0405   -2.6168   -6.8682 O.2       1 ATP        -0.8534
      3 O2G         6.0765   -4.8186   -5.7911 O.3       1 ATP        -0.7661
      4 O3G         7.2191   -3.1194   -4.2901 O.3       1 ATP        -0.7661
      5 PB          4.5401   -1.0774   -4.8751 P.3       1 ATP         1.6631
      6 O1B         5.1697   -0.7483   -3.5400 O.co2     1 ATP        -0.8211
      7 O2B         4.7411   -0.1821   -6.0775 O.co2     1 ATP        -0.8211
      8 O3B         4.9488   -2.6027   -5.2856 O.3       1 ATP        -0.7954
      9 PA          2.1463   -2.2799   -3.6368 P.3       1 ATP         1.7782
     10 O1A         2.4483   -3.7410   -3.8024 O.2       1 ATP        -0.8134
     11 O2A         0.5922   -1.8888   -3.8580 O.3       1 ATP        -0.8257
     12 O3A         2.9399   -1.3083   -4.6574 O.3       1 ATP        -0.8063
     13 O5'         2.5233   -1.6622   -2.1894 O.3       1 ATP        -0.5763
     14 C5'         2.2816   -0.2918   -1.9206 C.3       1 ATP         0.1790
     15 C4'         2.7248    0.0226   -0.4980 C.3       1 ATP         0.1339
     16 O4'         2.4697    1.4219   -0.2462 O.3       1 ATP        -0.4040
     17 C3'         1.9404   -0.7419    0.5596 C.3       1 ATP         0.0906
     18 O3'         2.7418   -0.8086    1.7389 O.3       1 ATP        -0.5689
     19 C2'         0.7477    0.1630    0.7858 C.3       1 ATP         0.0660
     20 O2'         0.1373   -0.0577    2.0407 O.3       1 ATP        -0.5800
     21 C1'         1.3733    1.5427    0.6747 C.3       1 ATP         0.4216
     22 N9          0.4520    2.5240    0.1767 N.pl3     1 ATP        -0.5455
     23 C8          0.1928    2.8484   -1.0815 C.ar      1 ATP         0.2820
     24 N7         -0.7248    3.8048   -1.2110 N.pl3     1 ATP        -0.4970
     25 C5         -1.0765    4.1129    0.0571 C.ar      1 ATP        -0.2773
     26 C6         -1.9614    5.0063    0.5851 C.ar      1 ATP         0.7637
     27 N6         -2.7145    5.8254   -0.2810 N.pl3     1 ATP        -0.9374
     28 N1         -2.1199    5.1113    1.9228 N.ar      1 ATP        -0.7408
     29 C2         -1.3522    4.2822    2.6839 C.ar      1 ATP         0.7215
     30 N3         -0.4501    3.3660    2.2638 N.ar      1 ATP        -0.6797
     31 C4         -0.3487    3.3198    0.9322 C.ar      1 ATP         0.6429
     32 HOG2        6.8228   -5.4386   -5.9351 H         1 ATP         0.4781
     33 HOG3        7.4376   -2.2286   -3.9422 H         1 ATP         0.4781
     34 HOA2       -0.0862   -2.2949   -3.2777 H         1 ATP         0.4931
     35 H5'1        2.8428    0.3150   -2.6387 H         1 ATP         0.0438
     36 H5'2        1.2124   -0.0896   -2.0417 H         1 ATP         0.0438
     37 H4'         3.8049   -0.1388   -0.4009 H         1 ATP         0.1278
     38 H3'         1.6783   -1.7629    0.2715 H         1 ATP         0.1161
     39 HO3'        2.2232   -1.2979    2.3953 H         1 ATP         0.4111
     40 H2'        -0.0011    0.0027    0.0003 H         1 ATP         0.0477
     41 HO2'       -0.6141    0.5574    2.1082 H         1 ATP         0.4259
     42 H1'         1.7826    1.9024    1.6451 H         1 ATP         0.1524
     43 H8          0.6728    2.3873   -1.9272 H         1 ATP         0.2610
     44 HN61       -2.5537    5.7714   -1.2667 H         1 ATP         0.4534
     45 HN62       -3.3282    6.5126    0.1080 H         1 ATP         0.4534
     46 H2         -1.4818    4.3694    3.7565 H         1 ATP         0.0900
     47 H47        -1.0701    4.2005   -2.0743 H         1 ATP         0.5046
@<TRIPOS>BOND
     1    1    2 2
     2    1    3 1
     3    1    4 1
     4    1    8 1
     5    3   32 1
     6    4   33 1
     7    5    6 2
     8    5    7 1
     9    5    8 1
    10    5   12 1
    11    9   10 2
    12    9   11 1
    13    9   12 1
    14    9   13 1
    15   11   34 1
    16   13   14 1
    17   14   15 1
    18   14   35 1
    19   14   36 1
    20   15   16 1
    21   15   17 1
    22   15   37 1
    23   16   21 1
    24   17   18 1
    25   17   19 1
    26   17   38 1
    27   18   39 1
    28   19   20 1
    29   19   21 1
    30   19   40 1
    31   20   41 1
    32   21   22 1
    33   21   42 1
    34   22   23 ar
    35   22   31 ar
    36   23   24 ar
    37   23   43 1
    38   24   25 ar
    39   24   47 1
    40   25   26 ar
    41   25   31 ar
    42   26   27 1
    43   26   28 ar
    44   27   44 1
    45   27   45 1
    46   28   29 ar
    47   29   30 ar
    48   29   46 1
    49   30   31 ar
@<TRIPOS>SUBSTRUCTURE
     1 ATP         1 GROUP 0 A     ****
@<TRIPOS>MOLECULE
[[5-(6-amino-7,8-dihydropurin-8-ylium-9-yl)-3,4-dihydroxy-tetrahydrofuran-2-yl]methoxy-hydroxy-phosphoryl] phosphono phosphate
   47    49     1     0     0
SMALL
USER_CHARGES

@<TRIPOS>ATOM
      1 PG          0.6240    3.3592   -7.5242 P.3       1 ATP         1.7526
      2 O1G         0.7296    2.7255   -8.8798 O.2       1 ATP        -0.8534
      3 O2G         1.6115    4.6125   -7.2677 O.3       1 ATP        -0.7661
      4 O3G        -0.8350    3.9439   -7.1482 O.3       1 ATP        -0.7661
      5 PB          0.2329    0.9739   -5.8336 P.3       1 ATP         1.6631
      6 O1B        -1.1704    1.2829   -5.3617 O.co2     1 ATP        -0.8211
      7 O2B         0.4895   -0.0740   -6.8935 O.co2     1 ATP        -0.8211
      8 O3B         0.9505    2.3661   -6.2910 O.3       1 ATP        -0.7954
      9 PA          2.7546    0.3893   -4.4162 P.3       1 ATP         1.7782
     10 O1A         3.5952    1.2918   -5.2721 O.2       1 ATP        -0.8134
     11 O2A         2.9233   -1.1869   -4.7393 O.3       1 ATP        -0.8257
     12 O3A         1.1614    0.6412   -4.5343 O.3       1 ATP        -0.8063
     13 O5'         3.0190    0.5130   -2.8246 O.3       1 ATP        -0.5763
     14 C5'         2.2816   -0.2918   -1.9206 C.3       1 ATP         0.1790
     15 C4'         2.7248    0.0226   -0.4980 C.3       1 ATP         0.1339
     16 O4'         2.4697    1.4219   -0.2462 O.3       1 ATP        -0.4040
     17 C3'         1.9404   -0.7419    0.5596 C.3       1 ATP         0.0906
     18 O3'         2.7418   -0.8086    1.7389 O.3       1 ATP        -0.5689
     19 C2'         0.7477    0.1630    0.7858 C.3       1 ATP         0.0660
     20 O2'         0.1373   -0.0577    2.0407 O.3       1 ATP        -0.5800
     21 C1'         1.3733    1.5427    0.6747 C.3       1 ATP         0.4216
     22 N9          0.4520    2.5240    0.1767 N.pl3     1 ATP        -0.5455
     23 C8          0.1928    2.8484   -1.0815 C.ar      1 ATP         0.2820
     24 N7         -0.7248    3.8048   -1.2110 N.pl3     1 ATP        -0.4970
     25 C5         -1.0765    4.1129    0.0571 C.ar      1 ATP        -0.2773
     26 C6         -1.9614    5.0063    0.5851 C.ar      1 ATP         0.7637
     27 N6         -2.7145    5.8254   -0.2810 N.pl3     1 ATP        -0.9374
     28 N1         -2.1199    5.1113    1.9228 N.ar      1 ATP        -0.7408
     29 C2         -1.3522    4.2822    2.6839 C.ar      1 ATP         0.7215
     30 N3         -0.4501    3.3660    2.2638 N.ar      1 ATP        -0.6797
     31 C4         -0.3487    3.3198    0.9322 C.ar      1 ATP         0.6429
     32 HOG2        2.5804    4.4745   -7.3319 H         1 ATP         0.4781
     33 HOG3       -1.6007    3.3312   -7.1270 H         1 ATP         0.4781
     34 HOA2        2.7054   -1.5125   -5.6385 H         1 ATP         0.4931
     35 H5'1        1.2149   -0.0786   -2.0446 H         1 ATP         0.0438
     36 H5'2        2.4640   -1.3459   -2.1539 H         1 ATP         0.0438
     37 H4'         3.8049   -0.1388   -0.4009 H         1 ATP         0.1278
     38 H3'         1.6783   -1.7629    0.2715 H         1 ATP         0.1161
     39 HO3'        3.5554   -1.2733    1.4914 H         1 ATP         0.4111
     40 H2'        -0.0011    0.0027    0.0003 H         1 ATP         0.0477
     41 HO2'       -0.6141    0.5574    2.1082 H         1 ATP         0.4259
     42 H1'         1.7826    1.9024    1.6451 H         1 ATP         0.1524
     43 H8          0.6728    2.3873   -1.9272 H         1 ATP         0.2610
     44 HN61       -3.3968    6.4465    0.1048 H         1 ATP         0.4534
     45 HN62       -2.6221    5.7051   -1.2696 H         1 ATP         0.4534
     46 H2         -1.4818    4.3694    3.7565 H         1 ATP         0.0900
     47 H47        -1.0701    4.2005   -2.0743 H         1 ATP         0.5046
@<TRIPOS>BOND
     1    1    2 2
     2    1    3 1
     3    1    4 1
     4    1    8 1
     5    3   32 1
     6    4   33 1
     7    5    6 2
     8    5    7 1
     9    5    8 1
    10    5   12 1
    11    9   10 2
    12    9   11 1
    13    9   12 1
    14    9   13 1
    15   11   34 1
    16   13   14 1
    17   14   15 1
    18   14   35 1
    19   14   36 1
    20   15   16 1
    21   15   17 1
    22   15   37 1
    23   16   21 1
    24   17   18 1
    25   17   19 1
    26   17   38 1
    27   18   39 1
    28   19   20 1
    29   19   21 1
    30   19   40 1
    31   20   41 1
    32   21   22 1
    33   21   42 1
    34   22   23 ar
    35   22   31 ar
    36   23   24 ar
    37   23   43 1
    38   24   25 ar
    39   24   47 1
    40   25   26 ar
    41   25   31 ar
    42   26   27 1
    43   26   28 ar
    44   27   44 1
    45   27   45 1
    46   28   29 ar
    47   29   30 ar
    48   29   46 1
    49   30   31 ar
@<TRIPOS>SUBSTRUCTURE
     1 ATP         1 GROUP 0 A     ****
@<TRIPOS>MOLECULE
[[5-(6-amino-7,8-dihydropurin-8-ylium-9-yl)-3,4-dihydroxy-tetrahydrofuran-2-yl]methoxy-hydroxy-phosphoryl] phosphono phosphate
   47    49     1     0     0
SMALL
USER_CHARGES

@<TRIPOS>ATOM
      1 PG         -1.3979   -1.6287   -6.9881 P.3       1 ATP         1.7526
      2 O1G        -1.3425   -3.0958   -7.2966 O.2       1 ATP        -0.8534
      3 O2G        -1.3329   -0.6490   -8.2716 O.3       1 ATP        -0.7661
      4 O3G        -2.7237   -1.1385   -6.2046 O.3       1 ATP        -0.7661
      5 PB          1.4182   -1.1116   -6.2790 P.3       1 ATP         1.6631
      6 O1B         1.8953   -2.5467   -6.2674 O.co2     1 ATP        -0.8211
      7 O2B         1.7526   -0.1847   -7.4265 O.co2     1 ATP        -0.8211
      8 O3B        -0.1968   -1.0942   -6.0472 O.3       1 ATP        -0.7954
      9 PA          3.3376   -0.0311   -4.3149 P.3       1 ATP         1.7782
     10 O1A         4.1251    0.9098   -5.1800 O.2       1 ATP        -0.8134
     11 O2A         4.0362   -1.4721   -4.0854 O.3       1 ATP        -0.8257
     12 O3A         1.8686   -0.3982   -4.8828 O.3       1 ATP        -0.8063
     13 O5'         3.0190    0.5130   -2.8246 O.3       1 ATP        -0.5763
     14 C5'         2.2816   -0.2918   -1.9206 C.3       1 ATP         0.1790
     15 C4'         2.7248    0.0226   -0.4980 C.3       1 ATP         0.1339
     16 O4'         2.4697    1.4219   -0.2462 O.3       1 ATP        -0.4040
     17 C3'         1.9404   -0.7419    0.5596 C.3       1 ATP         0.0906
     18 O3'         2.7418   -0.8086    1.7389 O.3       1 ATP        -0.5689
     19 C2'         0.7477    0.1630    0.7858 C.3       1 ATP         0.0660
     20 O2'         0.1373   -0.0577    2.0407 O.3       1 ATP        -0.5800
     21 C1'         1.3733    1.5427    0.6747 C.3       1 ATP         0.4216
     22 N9          0.4520    2.5240    0.1767 N.pl3     1 ATP        -0.5455
     23 C8          0.1928    2.8484   -1.0815 C.ar      1 ATP         0.2820
     24 N7         -0.7248    3.8048   -1.2110 N.pl3     1 ATP        -0.4970
     25 C5         -1.0765    4.1129    0.0571 C.ar      1 ATP        -0.2773
     26 C6         -1.9614    5.0063    0.5851 C.ar      1 ATP         0.7637
     27 N6         -2.7145    5.8254   -0.2810 N.pl3     1 ATP        -0.9374
     28 N1         -2.1199    5.1113    1.9228 N.ar      1 ATP        -0.7408
     29 C2         -1.3522    4.2822    2.6839 C.ar      1 ATP         0.7215
     30 N3         -0.4501    3.3660    2.2638 N.ar      1 ATP        -0.6797
     31 C4         -0.3487    3.3198    0.9322 C.ar      1 ATP         0.6429
     32 HOG2       -0.5468   -0.6850   -8.8571 H         1 ATP         0.4781
     33 HOG3       -3.6000   -1.2733   -6.6243 H         1 ATP         0.4781
     34 HOA2        4.9191   -1.5086   -3.6596 H         1 ATP         0.4931
     35 H5'1        1.2149   -0.0786   -2.0446 H         1 ATP         0.0438
     36 H5'2        2.4640   -1.3459   -2.1539 H         1 ATP         0.0438
     37 H4'         3.8049   -0.1388   -0.4009 H         1 ATP         0.1278
     38 H3'         1.6783   -1.7629    0.2715 H         1 ATP         0.1161
     39 HO3'        2.2232   -1.2979    2.3953 H         1 ATP         0.4111
     40 H2'        -0.0011    0.0027    0.0003 H         1 ATP         0.0477
     41 HO2'       -0.6141    0.5574    2.1082 H         1 ATP         0.4259
     42 H1'         1.7826    1.9024    1.6451 H         1 ATP         0.1524
     43 H8          0.6728    2.3873   -1.9272 H         1 ATP         0.2610
     44 HN61       -2.5537    5.7714   -1.2667 H         1 ATP         0.4534
     45 HN62       -3.3282    6.5126    0.1080 H         1 ATP         0.4534
     46 H2         -1.4818    4.3694    3.7565 H         1 ATP         0.0900
     47 H47        -1.0701    4.2005   -2.0743 H         1 ATP         0.5046
@<TRIPOS>BOND
     1    1    2 2
     2    1    3 1
     3    1    4 1
     4    1    8 1
     5    3   32 1
     6    4   33 1
     7    5    6 2
     8    5    7 1
     9    5    8 1
    10    5   12 1
    11    9   10 2
    12    9   11 1
    13    9   12 1
    14    9   13 1
    15   11   34 1
    16   13   14 1
    17   14   15 1
    18   14   35 1
    19   14   36 1
    20   15   16 1
    21   15   17 1
    22   15   37 1
    23   16   21 1
    24   17   18 1
    25   17   19 1
    26   17   38 1
    27   18   39 1
    28   19   20 1
    29   19   21 1
    30   19   40 1
    31   20   41 1
    32   21   22 1
    33   21   42 1
    34   22   23 ar
    35   22   31 ar
    36   23   24 ar
    37   23   43 1
    38   24   25 ar
    39   24   47 1
    40   25   26 ar
    41   25   31 ar
    42   26   27 1
    43   26   28 ar
    44   27   44 1
    45   27   45 1
    46   28   29 ar
    47   29   30 ar
    48   29   46 1
    49   30   31 ar
@<TRIPOS>SUBSTRUCTURE
     1 ATP         1 GROUP 0 A     ****
@<TRIPOS>MOLECULE
[[5-(6-amino-7,8-dihydropurin-8-ylium-9-yl)-3,4-dihydroxy-tetrahydrofuran-2-yl]methoxy-hydroxy-phosphoryl] phosphono phosphate
   47    49     1     0     0
SMALL
USER_CHARGES

@<TRIPOS>ATOM
      1 PG          1.2917    0.1930   -8.2286 P.3       1 ATP         1.7526
      2 O1G         1.5944   -0.7702   -9.3382 O.2       1 ATP        -0.8534
      3 O2G         2.1574    1.5575   -8.2417 O.3       1 ATP        -0.7661
      4 O3G        -0.2366    0.7150   -8.1665 O.3       1 ATP        -0.7661
      5 PB          0.8687   -1.6731   -5.9837 P.3       1 ATP         1.6631
      6 O1B        -0.5970   -1.3840   -5.7480 O.co2     1 ATP        -0.8211
      7 O2B         1.3147   -2.9389   -6.6813 O.co2     1 ATP        -0.8211
      8 O3B         1.5397   -0.3942   -6.7428 O.3       1 ATP        -0.7954
      9 PA          1.5741   -2.4609   -3.2285 P.3       1 ATP         1.7782
     10 O1A         1.9282   -3.9055   -3.4313 O.2       1 ATP        -0.8134
     11 O2A         0.0703   -2.2105   -2.6868 O.3       1 ATP        -0.8257
     12 O3A         1.6619   -1.5521   -4.5634 O.3       1 ATP        -0.8063
     13 O5'         2.5233   -1.6622   -2.1894 O.3       1 ATP        -0.5763
     14 C5'         2.2816   -0.2918   -1.9206 C.3       1 ATP         0.1790
     15 C4'         2.7248    0.0226   -0.4980 C.3       1 ATP         0.1339
     16 O4'         2.4697    1.4219   -0.2462 O.3       1 ATP        -0.4040
     17 C3'         1.9404   -0.7419    0.5596 C.3       1 ATP         0.0906
     18 O3'         2.7418   -0.8086    1.7389 O.3       1 ATP        -0.5689
     19 C2'         0.7477    0.1630    0.7858 C.3       1 ATP         0.0660
     20 O2'         0.1373   -0.0577    2.0407 O.3       1 ATP        -0.5800
     21 C1'         1.3733    1.5427    0.6747 C.3       1 ATP         0.4216
     22 N9          0.4520    2.5240    0.1767 N.pl3     1 ATP        -0.5455
     23 C8          0.1928    2.8484   -1.0815 C.ar      1 ATP         0.2820
     24 N7         -0.7248    3.8048   -1.2110 N.pl3     1 ATP        -0.4970
     25 C5         -1.0765    4.1129    0.0571 C.ar      1 ATP        -0.2773
     26 C6         -1.9614    5.0063    0.5851 C.ar      1 ATP         0.7637
     27 N6         -2.7145    5.8254   -0.2810 N.pl3     1 ATP        -0.9374
     28 N1         -2.1199    5.1113    1.9228 N.ar      1 ATP        -0.7408
     29 C2         -1.3522    4.2822    2.6839 C.ar      1 ATP         0.7215
     30 N3         -0.4501    3.3660    2.2638 N.ar      1 ATP        -0.6797
     31 C4         -0.3487    3.3198    0.9322 C.ar      1 ATP         0.6429
     32 HOG2        2.0985    2.1497   -9.0214 H         1 ATP         0.4781
     33 HOG3       -0.9571    0.0604   -8.0460 H         1 ATP         0.4781
     34 HOA2       -0.1942   -2.5987   -1.8258 H         1 ATP         0.4931
     35 H5'1        2.8428    0.3150   -2.6387 H         1 ATP         0.0438
     36 H5'2        1.2124   -0.0896   -2.0417 H         1 ATP         0.0438
     37 H4'         3.8049   -0.1388   -0.4009 H         1 ATP         0.1278
     38 H3'         1.6783   -1.7629    0.2715 H         1 ATP         0.1161
     39 HO3'        2.2232   -1.2979    2.3953 H         1 ATP         0.4111
     40 H2'        -0.0011    0.0027    0.0003 H         1 ATP         0.0477
     41 HO2'       -0.6141    0.5574    2.1082 H         1 ATP         0.4259
     42 H1'         1.7826    1.9024    1.6451 H         1 ATP         0.1524
     43 H8          0.6728    2.3873   -1.9272 H         1 ATP         0.2610
     44 HN61       -2.5537    5.7714   -1.2667 H         1 ATP         0.4534
     45 HN62       -3.3282    6.5126    0.1080 H         1 ATP         0.4534
     46 H2         -1.4818    4.3694    3.7565 H         1 ATP         0.0900
     47 H47        -1.0701    4.2005   -2.0743 H         1 ATP         0.5046
@<TRIPOS>BOND
     1    1    2 2
     2    1    3 1
     3    1    4 1
     4    1    8 1
     5    3   32 1
     6    4   33 1
     7    5    6 2
     8    5    7 1
     9    5    8 1
    10    5   12 1
    11    9   10 2
    12    9   11 1
    13    9   12 1
    14    9   13 1
    15   11   34 1
    16   13   14 1
    17   14   15 1
    18   14   35 1
    19   14   36 1
    20   15   16 1
    21   15   17 1
    22   15   37 1
    23   16   21 1
    24   17   18 1
    25   17   19 1
    26   17   38 1
    27   18   39 1
    28   19   20 1
    29   19   21 1
    30   19   40 1
    31   20   41 1
    32   21   22 1
    33   21   42 1
    34   22   23 ar
    35   22   31 ar
    36   23   24 ar
    37   23   43 1
    38   24   25 ar
    39   24   47 1
    40   25   26 ar
    41   25   31 ar
    42   26   27 1
    43   26   28 ar
    44   27   44 1
    45   27   45 1
    46   28   29 ar
    47   29   30 ar
    48   29   46 1
    49   30   31 ar
@<TRIPOS>SUBSTRUCTURE
     1 ATP         1 GROUP 0 A     ****
@<TRIPOS>MOLECULE
[[5-(6-amino-7,8-dihydropurin-8-ylium-9-yl)-3,4-dihydroxy-tetrahydrofuran-2-yl]methoxy-hydroxy-phosphoryl] phosphono phosphate
   47    49     1     0     0
SMALL
USER_CHARGES

@<TRIPOS>ATOM
      1 PG          3.7535   -3.5187   -7.9844 P.3       1 ATP         1.7526
      2 O1G         4.7813   -2.8586   -8.8551 O.2       1 ATP        -0.8534
      3 O2G         2.2817   -3.6596   -8.6367 O.3       1 ATP        -0.7661
      4 O3G         4.1078   -5.0259   -7.5209 O.3       1 ATP        -0.7661
      5 PB          2.9340   -1.2493   -6.2876 P.3       1 ATP         1.6631
      6 O1B         3.9852   -0.2614   -6.7420 O.co2     1 ATP        -0.8211
      7 O2B         1.5022   -1.1430   -6.7633 O.co2     1 ATP        -0.8211
      8 O3B         3.4721   -2.7608   -6.5843 O.3       1 ATP        -0.7954
      9 PA          2.1463   -2.2799   -3.6368 P.3       1 ATP         1.7782
     10 O1A         2.4483   -3.7410   -3.8024 O.2       1 ATP        -0.8134
     11 O2A         0.5922   -1.8888   -3.8580 O.3       1 ATP        -0.8257
     12 O3A         2.9399   -1.3083   -4.6574 O.3       1 ATP        -0.8063
     13 O5'         2.5233   -1.6622   -2.1894 O.3       1 ATP        -0.5763
     14 C5'         2.2816   -0.2918   -1.9206 C.3       1 ATP         0.1790
     15 C4'         2.7248    0.0226   -0.4980 C.3       1 ATP         0.1339
     16 O4'         2.4697    1.4219   -0.2462 O.3       1 ATP        -0.4040
     17 C3'         1.9404   -0.7419    0.5596 C.3       1 ATP         0.0906
     18 O3'         2.7418   -0.8086    1.7389 O.3       1 ATP        -0.5689
     19 C2'         0.7477    0.1630    0.7858 C.3       1 ATP         0.0660
     20 O2'         0.1373   -0.0577    2.0407 O.3       1 ATP        -0.5800
     21 C1'         1.3733    1.5427    0.6747 C.3       1 ATP         0.4216
     22 N9          0.4520    2.5240    0.1767 N.pl3     1 ATP        -0.5455
     23 C8          0.1928    2.8484   -1.0815 C.ar      1 ATP         0.2820
     24 N7         -0.7248    3.8048   -1.2110 N.pl3     1 ATP        -0.4970
     25 C5         -1.0765    4.1129    0.0571 C.ar      1 ATP        -0.2773
     26 C6         -1.9614    5.0063    0.5851 C.ar      1 ATP         0.7637
     27 N6         -2.7145    5.8254   -0.2810 N.pl3     1 ATP        -0.9374
     28 N1         -2.1199    5.1113    1.9228 N.ar      1 ATP        -0.7408
     29 C2         -1.3522    4.2822    2.6839 C.ar      1 ATP         0.7215
     30 N3         -0.4501    3.3660    2.2638 N.ar      1 ATP        -0.6797
     31 C4         -0.3487    3.3198    0.9322 C.ar      1 ATP         0.6429
     32 HOG2        1.8017   -2.8476   -8.9055 H         1 ATP         0.4781
     33 HOG3        4.2402   -5.7146   -8.2068 H         1 ATP         0.4781
     34 HOA2       -0.0862   -2.2949   -3.2777 H         1 ATP         0.4931
     35 H5'1        2.8428    0.3150   -2.6387 H         1 ATP         0.0438
     36 H5'2        1.2124   -0.0896   -2.0417 H         1 ATP         0.0438
     37 H4'         3.8049   -0.1388   -0.4009 H         1 ATP         0.1278
     38 H3'         1.6783   -1.7629    0.2715 H         1 ATP         0.1161
     39 HO3'        2.2232   -1.2979    2.3953 H         1 ATP         0.4111
     40 H2'        -0.0011    0.0027    0.0003 H         1 ATP         0.0477
     41 HO2'       -0.6141    0.5574    2.1082 H         1 ATP         0.4259
     42 H1'         1.7826    1.9024    1.6451 H         1 ATP         0.1524
     43 H8          0.6728    2.3873   -1.9272 H         1 ATP         0.2610
     44 HN61       -2.5537    5.7714   -1.2667 H         1 ATP         0.4534
     45 HN62       -3.3282    6.5126    0.1080 H         1 ATP         0.4534
     46 H2         -1.4818    4.3694    3.7565 H         1 ATP         0.0900
     47 H47        -1.0701    4.2005   -2.0743 H         1 ATP         0.5046
@<TRIPOS>BOND
     1    1    2 2
     2    1    3 1
     3    1    4 1
     4    1    8 1
     5    3   32 1
     6    4   33 1
     7    5    6 2
     8    5    7 1
     9    5    8 1
    10    5   12 1
    11    9   10 2
    12    9   11 1
    13    9   12 1
    14    9   13 1
    15   11   34 1
    16   13   14 1
    17   14   15 1
    18   14   35 1
    19   14   36 1
    20   15   16 1
    21   15   17 1
    22   15   37 1
    23   16   21 1
    24   17   18 1
    25   17   19 1
    26   17   38 1
    27   18   39 1
    28   19   20 1
    29   19   21 1
    30   19   40 1
    31   20   41 1
    32   21   22 1
    33   21   42 1
    34   22   23 ar
    35   22   31 ar
    36   23   24 ar
    37   23   43 1
    38   24   25 ar
    39   24   47 1
    40   25   26 ar
    41   25   31 ar
    42   26   27 1
    43   26   28 ar
    44   27   44 1
    45   27   45 1
    46   28   29 ar
    47   29   30 ar
    48   29   46 1
    49   30   31 ar
@<TRIPOS>SUBSTRUCTURE
     1 ATP         1 GROUP 0 A     ****
@<TRIPOS>MOLECULE
[[5-(6-amino-7,8-dihydropurin-8-ylium-9-yl)-3,4-dihydroxy-tetrahydrofuran-2-yl]methoxy-hydroxy-phosphoryl] phosphono phosphate
   47    49     1     0     0
SMALL
USER_CHARGES

@<TRIPOS>ATOM
      1 PG         -0.9384    2.4204   -6.5861 P.3       1 ATP         1.7526
      2 O1G        -0.5055    2.7421   -7.9860 O.2       1 ATP        -0.8534
      3 O2G        -1.8042    3.5684   -5.8487 O.3       1 ATP        -0.7661
      4 O3G        -1.8559    1.0986   -6.4348 O.3       1 ATP        -0.7661
      5 PB          1.5062    3.1079   -5.0853 P.3       1 ATP         1.6631
      6 O1B         2.4163    3.3445   -6.2699 O.co2     1 ATP        -0.8211
      7 O2B         0.9410    4.2632   -4.2893 O.co2     1 ATP        -0.8211
      8 O3B         0.2753    2.1449   -5.5541 O.3       1 ATP        -0.7954
      9 PA          2.8824    0.6133   -4.3155 P.3       1 ATP         1.7782
     10 O1A         4.0008    0.5891   -5.3166 O.2       1 ATP        -0.8134
     11 O2A         1.6103   -0.3046   -4.7113 O.3       1 ATP        -0.8257
     12 O3A         2.2407    2.0753   -4.0580 O.3       1 ATP        -0.8063
     13 O5'         3.2874    0.1331   -2.8242 O.3       1 ATP        -0.5763
     14 C5'         2.2816   -0.2918   -1.9206 C.3       1 ATP         0.1790
     15 C4'         2.7248    0.0226   -0.4980 C.3       1 ATP         0.1339
     16 O4'         2.4697    1.4219   -0.2462 O.3       1 ATP        -0.4040
     17 C3'         1.9404   -0.7419    0.5596 C.3       1 ATP         0.0906
     18 O3'         2.7418   -0.8086    1.7389 O.3       1 ATP        -0.5689
     19 C2'         0.7477    0.1630    0.7858 C.3       1 ATP         0.0660
     20 O2'         0.1373   -0.0577    2.0407 O.3       1 ATP        -0.5800
     21 C1'         1.3733    1.5427    0.6747 C.3       1 ATP         0.4216
     22 N9          0.4520    2.5240    0.1767 N.pl3     1 ATP        -0.5455
     23 C8          0.1928    2.8484   -1.0815 C.ar      1 ATP         0.2820
     24 N7         -0.7248    3.8048   -1.2110 N.pl3     1 ATP        -0.4970
     25 C5         -1.0765    4.1129    0.0571 C.ar      1 ATP        -0.2773
     26 C6         -1.9614    5.0063    0.5851 C.ar      1 ATP         0.7637
     27 N6         -2.7145    5.8254   -0.2810 N.pl3     1 ATP        -0.9374
     28 N1         -2.1199    5.1113    1.9228 N.ar      1 ATP        -0.7408
     29 C2         -1.3522    4.2822    2.6839 C.ar      1 ATP         0.7215
     30 N3         -0.4501    3.3660    2.2638 N.ar      1 ATP        -0.6797
     31 C4         -0.3487    3.3198    0.9322 C.ar      1 ATP         0.6429
     32 HOG2       -1.4048    4.4549   -5.7192 H         1 ATP         0.4781
     33 HOG3       -2.7141    1.0599   -6.9082 H         1 ATP         0.4781
     34 HOA2        1.1298   -0.1148   -5.5450 H         1 ATP         0.4931
     35 H5'1        1.3494    0.2322   -2.1552 H         1 ATP         0.0438
     36 H5'2        2.1260   -1.3686   -2.0435 H         1 ATP         0.0438
     37 H4'         3.8049   -0.1388   -0.4009 H         1 ATP         0.1278
     38 H3'         1.6783   -1.7629    0.2715 H         1 ATP         0.1161
     39 HO3'        2.2232   -1.2979    2.3953 H         1 ATP         0.4111
     40 H2'        -0.0011    0.0027    0.0003 H         1 ATP         0.0477
     41 HO2'       -0.6141    0.5574    2.1082 H         1 ATP         0.4259
     42 H1'         1.7826    1.9024    1.6451 H         1 ATP         0.1524
     43 H8          0.6728    2.3873   -1.9272 H         1 ATP         0.2610
     44 HN61       -2.5537    5.7714   -1.2667 H         1 ATP         0.4534
     45 HN62       -3.3282    6.5126    0.1080 H         1 ATP         0.4534
     46 H2         -1.4818    4.3694    3.7565 H         1 ATP         0.0900
     47 H47        -1.0701    4.2005   -2.0743 H         1 ATP         0.5046
@<TRIPOS>BOND
     1    1    2 2
     2    1    3 1
     3    1    4 1
     4    1    8 1
     5    3   32 1
     6    4   33 1
     7    5    6 2
     8    5    7 1
     9    5    8 1
    10    5   12 1
    11    9   10 2
    12    9   11 1
    13    9   12 1
    14    9   13 1
    15   11   34 1
    16   13   14 1
    17   14   15 1
    18   14   35 1
    19   14   36 1
    20   15   16 1
    21   15   17 1
    22   15   37 1
    23   16   21 1
    24   17   18 1
    25   17   19 1
    26   17   38 1
    27   18   39 1
    28   19   20 1
    29   19   21 1
    30   19   40 1
    31   20   41 1
    32   21   22 1
    33   21   42 1
    34   22   23 ar
    35   22   31 ar
    36   23   24 ar
    37   23   43 1
    38   24   25 ar
    39   24   47 1
    40   25   26 ar
    41   25   31 ar
    42   26   27 1
    43   26   28 ar
    44   27   44 1
    45   27   45 1
    46   28   29 ar
    47   29   30 ar
    48   29   46 1
    49   30   31 ar
@<TRIPOS>SUBSTRUCTURE
     1 ATP         1 GROUP 0 A     ****
@<TRIPOS>MOLECULE
[[5-(6-amino-7,8-dihydropurin-8-ylium-9-yl)-3,4-dihydroxy-tetrahydrofuran-2-yl]methoxy-hydroxy-phosphoryl] phosphono phosphate
   47    49     1     0     0
SMALL
USER_CHARGES

@<TRIPOS>ATOM
      1 PG          1.9597    4.3417   -7.1908 P.3       1 ATP         1.7526
      2 O1G         1.2585    5.6346   -6.8959 O.2       1 ATP        -0.8534
      3 O2G         1.2975    3.4472   -8.3625 O.3       1 ATP        -0.7661
      4 O3G         3.5030    4.4832   -7.6492 O.3       1 ATP        -0.7661
      5 PB          0.8540    2.6217   -5.0648 P.3       1 ATP         1.6631
      6 O1B         0.1264    3.6959   -4.2874 O.co2     1 ATP        -0.8211
      7 O2B         0.1038    1.6537   -5.9524 O.co2     1 ATP        -0.8211
      8 O3B         2.0405    3.3207   -5.9399 O.3       1 ATP        -0.7954
      9 PA          2.8824    0.6133   -4.3155 P.3       1 ATP         1.7782
     10 O1A         4.0330    1.0401   -5.1801 O.2       1 ATP        -0.8134
     11 O2A         2.0103   -0.6089   -4.9179 O.3       1 ATP        -0.8257
     12 O3A         1.7870    1.7692   -4.0334 O.3       1 ATP        -0.8063
     13 O5'         3.2874    0.1331   -2.8242 O.3       1 ATP        -0.5763
     14 C5'         2.2816   -0.2918   -1.9206 C.3       1 ATP         0.1790
     15 C4'         2.7248    0.0226   -0.4980 C.3       1 ATP         0.1339
     16 O4'         2.4697    1.4219   -0.2462 O.3       1 ATP        -0.4040
     17 C3'         1.9404   -0.7419    0.5596 C.3       1 ATP         0.0906
     18 O3'         2.7418   -0.8086    1.7389 O.3       1 ATP        -0.5689
     19 C2'         0.7477    0.1630    0.7858 C.3       1 ATP         0.0660
     20 O2'         0.1373   -0.0577    2.0407 O.3       1 ATP        -0.5800
     21 C1'         1.3733    1.5427    0.6747 C.3       1 ATP         0.4216
     22 N9          0.4520    2.5240    0.1767 N.pl3     1 ATP        -0.5455
     23 C8         -0.2172    2.5216   -0.9668 C.ar      1 ATP         0.2820
     24 N7         -1.0011    3.5855   -1.1321 N.pl3     1 ATP        -0.4970
     25 C5         -0.8184    4.3200   -0.0123 C.ar      1 ATP        -0.2773
     26 C6         -1.3349    5.5079    0.4144 C.ar      1 ATP         0.7637
     27 N6         -2.2567    6.1930   -0.4036 N.pl3     1 ATP        -0.9374
     28 N1         -0.9716    6.0291    1.6069 N.ar      1 ATP        -0.7408
     29 C2         -0.0765    5.3009    2.3312 C.ar      1 ATP         0.7215
     30 N3          0.4933    4.1191    2.0023 N.ar      1 ATP        -0.6797
     31 C4          0.0865    3.6675    0.8123 C.ar      1 ATP         0.6429
     32 HOG2        0.3733    3.1361   -8.2577 H         1 ATP         0.4781
     33 HOG3        3.7125    4.9969   -8.4582 H         1 ATP         0.4781
     34 HOA2        1.5693   -0.4938   -5.7864 H         1 ATP         0.4931
     35 H5'1        1.3494    0.2322   -2.1552 H         1 ATP         0.0438
     36 H5'2        2.1260   -1.3686   -2.0435 H         1 ATP         0.0438
     37 H4'         3.8049   -0.1388   -0.4009 H         1 ATP         0.1278
     38 H3'         1.6783   -1.7629    0.2715 H         1 ATP         0.1161
     39 HO3'        2.2232   -1.2979    2.3953 H         1 ATP         0.4111
     40 H2'        -0.0011    0.0027    0.0003 H         1 ATP         0.0477
     41 HO2'       -0.6141    0.5574    2.1082 H         1 ATP         0.4259
     42 H1'         1.7826    1.9024    1.6451 H         1 ATP         0.1524
     43 H8         -0.1423    1.7373   -1.6999 H         1 ATP         0.2610
     44 HN61       -2.4811    5.8206   -1.3042 H         1 ATP         0.4534
     45 HN62       -2.5986    7.0863   -0.1113 H         1 ATP         0.4534
     46 H2          0.2128    5.7222    3.2871 H         1 ATP         0.0900
     47 H47        -1.5947    3.7835   -1.9255 H         1 ATP         0.5046
@<TRIPOS>BOND
     1    1    2 2
     2    1    3 1
     3    1    4 1
     4    1    8 1
     5    3   32 1
     6    4   33 1
     7    5    6 2
     8    5    7 1
     9    5    8 1
    10    5   12 1
    11    9   10 2
    12    9   11 1
    13    9   12 1
    14    9   13 1
    15   11   34 1
    16   13   14 1
    17   14   15 1
    18   14   35 1
    19   14   36 1
    20   15   16 1
    21   15   17 1
    22   15   37 1
    23   16   21 1
    24   17   18 1
    25   17   19 1
    26   17   38 1
    27   18   39 1
    28   19   20 1
    29   19   21 1
    30   19   40 1
    31   20   41 1
    32   21   22 1
    33   21   42 1
    34   22   23 ar
    35   22   31 ar
    36   23   24 ar
    37   23   43 1
    38   24   25 ar
    39   24   47 1
    40   25   26 ar
    41   25   31 ar
    42   26   27 1
    43   26   28 ar
    44   27   44 1
    45   27   45 1
    46   28   29 ar
    47   29   30 ar
    48   29   46 1
    49   30   31 ar
@<TRIPOS>SUBSTRUCTURE
     1 ATP         1 GROUP 0 A     ****
@<TRIPOS>MOLECULE
[[5-(6-amino-7,8-dihydropurin-8-ylium-9-yl)-3,4-dihydroxy-tetrahydrofuran-2-yl]methoxy-hydroxy-phosphoryl] phosphono phosphate
   47    49     1     0     0
SMALL
USER_CHARGES

@<TRIPOS>ATOM
      1 PG          0.4982   -0.7417   -7.8720 P.3       1 ATP         1.7526
      2 O1G         0.5235   -1.9157   -8.8055 O.2       1 ATP        -0.8534
      3 O2G         1.0882    0.6358   -8.4768 O.3       1 ATP        -0.7661
      4 O3G        -0.9660   -0.3215   -7.3321 O.3       1 ATP        -0.7661
      5 PB          2.9340   -1.2493   -6.2876 P.3       1 ATP         1.6631
      6 O1B         3.2465   -2.6280   -6.8249 O.co2     1 ATP        -0.8211
      7 O2B         3.7243   -0.0384   -6.7314 O.co2     1 ATP        -0.8211
      8 O3B         1.3462   -0.9472   -6.5109 O.3       1 ATP        -0.7954
      9 PA          2.1463   -2.2799   -3.6368 P.3       1 ATP         1.7782
     10 O1A         2.4483   -3.7410   -3.8024 O.2       1 ATP        -0.8134
     11 O2A         0.5922   -1.8888   -3.8580 O.3       1 ATP        -0.8257
     12 O3A         2.9399   -1.3083   -4.6574 O.3       1 ATP        -0.8063
     13 O5'         2.5233   -1.6622   -2.1894 O.3       1 ATP        -0.5763
     14 C5'         2.2816   -0.2918   -1.9206 C.3       1 ATP         0.1790
     15 C4'         2.7248    0.0226   -0.4980 C.3       1 ATP         0.1339
     16 O4'         2.4697    1.4219   -0.2462 O.3       1 ATP        -0.4040
     17 C3'         1.9404   -0.7419    0.5596 C.3       1 ATP         0.0906
     18 O3'         2.7418   -0.8086    1.7389 O.3       1 ATP        -0.5689
     19 C2'         0.7477    0.1630    0.7858 C.3       1 ATP         0.0660
     20 O2'         0.1373   -0.0577    2.0407 O.3       1 ATP        -0.5800
     21 C1'         1.3733    1.5427    0.6747 C.3       1 ATP         0.4216
     22 N9          0.4520    2.5240    0.1767 N.pl3     1 ATP        -0.5455
     23 C8          0.1928    2.8484   -1.0815 C.ar      1 ATP         0.2820
     24 N7         -0.7248    3.8048   -1.2110 N.pl3     1 ATP        -0.4970
     25 C5         -1.0765    4.1129    0.0571 C.ar      1 ATP        -0.2773
     26 C6         -1.9614    5.0063    0.5851 C.ar      1 ATP         0.7637
     27 N6         -2.7145    5.8254   -0.2810 N.pl3     1 ATP        -0.9374
     28 N1         -2.1199    5.1113    1.9228 N.ar      1 ATP        -0.7408
     29 C2         -1.3522    4.2822    2.6839 C.ar      1 ATP         0.7215
     30 N3         -0.4501    3.3660    2.2638 N.ar      1 ATP        -0.6797
     31 C4         -0.3487    3.3198    0.9322 C.ar      1 ATP         0.6429
     32 HOG2        2.0209    0.6607   -8.7793 H         1 ATP         0.4781
     33 HOG3       -1.6533   -0.0580   -7.9806 H         1 ATP         0.4781
     34 HOA2        0.1748   -2.0769   -4.7254 H         1 ATP         0.4931
     35 H5'1        2.8428    0.3150   -2.6387 H         1 ATP         0.0438
     36 H5'2        1.2124   -0.0896   -2.0417 H         1 ATP         0.0438
     37 H4'         3.8049   -0.1388   -0.4009 H         1 ATP         0.1278
     38 H3'         1.6783   -1.7629    0.2715 H         1 ATP         0.1161
     39 HO3'        2.2232   -1.2979    2.3953 H         1 ATP         0.4111
     40 H2'        -0.0011    0.0027    0.0003 H         1 ATP         0.0477
     41 HO2'       -0.6141    0.5574    2.1082 H         1 ATP         0.4259
     42 H1'         1.7826    1.9024    1.6451 H         1 ATP         0.1524
     43 H8          0.6728    2.3873   -1.9272 H         1 ATP         0.2610
     44 HN61       -2.5537    5.7714   -1.2667 H         1 ATP         0.4534
     45 HN62       -3.3282    6.5126    0.1080 H         1 ATP         0.4534
     46 H2         -1.4818    4.3694    3.7565 H         1 ATP         0.0900
     47 H47        -1.0701    4.2005   -2.0743 H         1 ATP         0.5046
@<TRIPOS>BOND
     1    1    2 2
     2    1    3 1
     3    1    4 1
     4    1    8 1
     5    3   32 1
     6    4   33 1
     7    5    6 2
     8    5    7 1
     9    5    8 1
    10    5   12 1
    11    9   10 2
    12    9   11 1
    13    9   12 1
    14    9   13 1
    15   11   34 1
    16   13   14 1
    17   14   15 1
    18   14   35 1
    19   14   36 1
    20   15   16 1
    21   15   17 1
    22   15   37 1
    23   16   21 1
    24   17   18 1
    25   17   19 1
    26   17   38 1
    27   18   39 1
    28   19   20 1
    29   19   21 1
    30   19   40 1
    31   20   41 1
    32   21   22 1
    33   21   42 1
    34   22   23 ar
    35   22   31 ar
    36   23   24 ar
    37   23   43 1
    38   24   25 ar
    39   24   47 1
    40   25   26 ar
    41   25   31 ar
    42   26   27 1
    43   26   28 ar
    44   27   44 1
    45   27   45 1
    46   28   29 ar
    47   29   30 ar
    48   29   46 1
    49   30   31 ar
@<TRIPOS>SUBSTRUCTURE
     1 ATP         1 GROUP 0 A     ****
@<TRIPOS>MOLECULE
[[5-(6-amino-7,8-dihydropurin-8-ylium-9-yl)-3,4-dihydroxy-tetrahydrofuran-2-yl]methoxy-hydroxy-phosphoryl] phosphono phosphate
   47    49     1     0     0
SMALL
USER_CHARGES

@<TRIPOS>ATOM
      1 PG         -1.8697    0.6129   -6.4758 P.3       1 ATP         1.7526
      2 O1G        -1.7632    1.4147   -7.7392 O.2       1 ATP        -0.8534
      3 O2G        -3.2214    0.8449   -5.6211 O.3       1 ATP        -0.7661
      4 O3G        -1.8154   -0.9906   -6.6702 O.3       1 ATP        -0.7661
      5 PB         -0.2612    2.2685   -4.6393 P.3       1 ATP         1.6631
      6 O1B         0.2869    3.2386   -5.6620 O.co2     1 ATP        -0.8211
      7 O2B        -1.3736    2.6704   -3.6966 O.co2     1 ATP        -0.8211
      8 O3B        -0.6942    0.8924   -5.4016 O.3       1 ATP        -0.7954
      9 PA          2.3549    0.9657   -4.2291 P.3       1 ATP         1.7782
     10 O1A         3.2319    1.8157   -5.1020 O.2       1 ATP        -0.8134
     11 O2A         1.8647   -0.4148   -4.9154 O.3       1 ATP        -0.8257
     12 O3A         0.9794    1.6761   -3.7612 O.3       1 ATP        -0.8063
     13 O5'         3.0190    0.5130   -2.8246 O.3       1 ATP        -0.5763
     14 C5'         2.2816   -0.2918   -1.9206 C.3       1 ATP         0.1790
     15 C4'         2.7248    0.0226   -0.4980 C.3       1 ATP         0.1339
     16 O4'         2.4697    1.4219   -0.2462 O.3       1 ATP        -0.4040
     17 C3'         1.9404   -0.7419    0.5596 C.3       1 ATP         0.0906
     18 O3'         2.7418   -0.8086    1.7389 O.3       1 ATP        -0.5689
     19 C2'         0.7477    0.1630    0.7858 C.3       1 ATP         0.0660
     20 O2'         0.1373   -0.0577    2.0407 O.3       1 ATP        -0.5800
     21 C1'         1.3733    1.5427    0.6747 C.3       1 ATP         0.4216
     22 N9          0.4520    2.5240    0.1767 N.pl3     1 ATP        -0.5455
     23 C8         -0.8602    2.5861    0.3496 C.ar      1 ATP         0.2820
     24 N7         -1.4308    3.6326   -0.2443 N.pl3     1 ATP        -0.4970
     25 C5         -0.4080    4.2856   -0.8394 C.ar      1 ATP        -0.2773
     26 C6         -0.3432    5.4196   -1.5943 C.ar      1 ATP         0.7637
     27 N6         -1.5276    6.1333   -1.8702 N.pl3     1 ATP        -0.9374
     28 N1          0.8395    5.8603   -2.0764 N.ar      1 ATP        -0.7408
     29 C2          1.9319    5.1095   -1.7617 C.ar      1 ATP         0.7215
     30 N3          1.9773    3.9761   -1.0249 N.ar      1 ATP        -0.6797
     31 C4          0.7724    3.6031   -0.5836 C.ar      1 ATP         0.6429
     32 HOG2       -3.4230    1.7445   -5.2862 H         1 ATP         0.4781
     33 HOG3       -2.4988   -1.4248   -7.2240 H         1 ATP         0.4781
     34 HOA2        1.3360   -0.3725   -5.7405 H         1 ATP         0.4931
     35 H5'1        1.2149   -0.0786   -2.0446 H         1 ATP         0.0438
     36 H5'2        2.4640   -1.3459   -2.1539 H         1 ATP         0.0438
     37 H4'         3.8049   -0.1388   -0.4009 H         1 ATP         0.1278
     38 H3'         1.6783   -1.7629    0.2715 H         1 ATP         0.1161
     39 HO3'        2.2232   -1.2979    2.3953 H         1 ATP         0.4111
     40 H2'        -0.0011    0.0027    0.0003 H         1 ATP         0.0477
     41 HO2'       -0.1563   -0.9855    2.0596 H         1 ATP         0.4259
     42 H1'         1.7826    1.9024    1.6451 H         1 ATP         0.1524
     43 H8         -1.4217    1.8638    0.9164 H         1 ATP         0.2610
     44 HN61       -2.4023    5.7711   -1.5477 H         1 ATP         0.4534
     45 HN62       -1.4857    6.9379   -2.4627 H         1 ATP         0.4534
     46 H2          2.8789    5.4660   -2.1503 H         1 ATP         0.0900
     47 H47        -2.4129    3.8706   -0.2402 H         1 ATP         0.5046
@<TRIPOS>BOND
     1    1    2 2
     2    1    3 1
     3    1    4 1
     4    1    8 1
     5    3   32 1
     6    4   33 1
     7    5    6 2
     8    5    7 1
     9    5    8 1
    10    5   12 1
    11    9   10 2
    12    9   11 1
    13    9   12 1
    14    9   13 1
    15   11   34 1
    16   13   14 1
    17   14   15 1
    18   14   35 1
    19   14   36 1
    20   15   16 1
    21   15   17 1
    22   15   37 1
    23   16   21 1
    24   17   18 1
    25   17   19 1
    26   17   38 1
    27   18   39 1
    28   19   20 1
    29   19   21 1
    30   19   40 1
    31   20   41 1
    32   21   22 1
    33   21   42 1
    34   22   23 ar
    35   22   31 ar
    36   23   24 ar
    37   23   43 1
    38   24   25 ar
    39   24   47 1
    40   25   26 ar
    41   25   31 ar
    42   26   27 1
    43   26   28 ar
    44   27   44 1
    45   27   45 1
    46   28   29 ar
    47   29   30 ar
    48   29   46 1
    49   30   31 ar
@<TRIPOS>SUBSTRUCTURE
     1 ATP         1 GROUP 0 A     ****
@<TRIPOS>MOLECULE
[[5-(6-amino-7,8-dihydropurin-8-ylium-9-yl)-3,4-dihydroxy-tetrahydrofuran-2-yl]methoxy-hydroxy-phosphoryl] phosphono phosphate
   47    49     1     0     0
SMALL
USER_CHARGES

@<TRIPOS>ATOM
      1 PG          5.6400    0.8059   -6.8611 P.3       1 ATP         1.7526
      2 O1G         6.5756   -0.0954   -7.6113 O.2       1 ATP        -0.8534
      3 O2G         6.3276    1.7228   -5.7219 O.3       1 ATP        -0.7661
      4 O3G         4.8336    1.8721   -7.7693 O.3       1 ATP        -0.7661
      5 PB          4.5401   -1.0774   -4.8751 P.3       1 ATP         1.6631
      6 O1B         5.1420   -2.3458   -5.4376 O.co2     1 ATP        -0.8211
      7 O2B         5.1084   -0.4241   -3.6350 O.co2     1 ATP        -0.8211
      8 O3B         4.4620    0.0376   -6.0638 O.3       1 ATP        -0.7954
      9 PA          2.1463   -2.2799   -3.6368 P.3       1 ATP         1.7782
     10 O1A         2.4483   -3.7410   -3.8024 O.2       1 ATP        -0.8134
     11 O2A         0.5922   -1.8888   -3.8580 O.3       1 ATP        -0.8257
     12 O3A         2.9399   -1.3083   -4.6574 O.3       1 ATP        -0.8063
     13 O5'         2.5233   -1.6622   -2.1894 O.3       1 ATP        -0.5763
     14 C5'         2.2816   -0.2918   -1.9206 C.3       1 ATP         0.1790
     15 C4'         2.7248    0.0226   -0.4980 C.3       1 ATP         0.1339
     16 O4'         2.4697    1.4219   -0.2462 O.3       1 ATP        -0.4040
     17 C3'         1.9404   -0.7419    0.5596 C.3       1 ATP         0.0906
     18 O3'         2.7418   -0.8086    1.7389 O.3       1 ATP        -0.5689
     19 C2'         0.7477    0.1630    0.7858 C.3       1 ATP         0.0660
     20 O2'         0.1373   -0.0577    2.0407 O.3       1 ATP        -0.5800
     21 C1'         1.3733    1.5427    0.6747 C.3       1 ATP         0.4216
     22 N9          0.4520    2.5240    0.1767 N.pl3     1 ATP        -0.5455
     23 C8          0.1928    2.8484   -1.0815 C.ar      1 ATP         0.2820
     24 N7         -0.7248    3.8048   -1.2110 N.pl3     1 ATP        -0.4970
     25 C5         -1.0765    4.1129    0.0571 C.ar      1 ATP        -0.2773
     26 C6         -1.9614    5.0063    0.5851 C.ar      1 ATP         0.7637
     27 N6         -2.7145    5.8254   -0.2810 N.pl3     1 ATP        -0.9374
     28 N1         -2.1199    5.1113    1.9228 N.ar      1 ATP        -0.7408
     29 C2         -1.3522    4.2822    2.6839 C.ar      1 ATP         0.7215
     30 N3         -0.4501    3.3660    2.2638 N.ar      1 ATP        -0.6797
     31 C4         -0.3487    3.3198    0.9322 C.ar      1 ATP         0.6429
     32 HOG2        6.7973    1.2857   -4.9799 H         1 ATP         0.4781
     33 HOG3        5.3405    2.5268   -8.2952 H         1 ATP         0.4781
     34 HOA2       -0.0862   -2.2949   -3.2777 H         1 ATP         0.4931
     35 H5'1        2.8428    0.3150   -2.6387 H         1 ATP         0.0438
     36 H5'2        1.2124   -0.0896   -2.0417 H         1 ATP         0.0438
     37 H4'         3.8049   -0.1388   -0.4009 H         1 ATP         0.1278
     38 H3'         1.6783   -1.7629    0.2715 H         1 ATP         0.1161
     39 HO3'        2.2232   -1.2979    2.3953 H         1 ATP         0.4111
     40 H2'        -0.0011    0.0027    0.0003 H         1 ATP         0.0477
     41 HO2'       -0.6141    0.5574    2.1082 H         1 ATP         0.4259
     42 H1'         1.7826    1.9024    1.6451 H         1 ATP         0.1524
     43 H8          0.6728    2.3873   -1.9272 H         1 ATP         0.2610
     44 HN61       -2.5537    5.7714   -1.2667 H         1 ATP         0.4534
     45 HN62       -3.3282    6.5126    0.1080 H         1 ATP         0.4534
     46 H2         -1.4818    4.3694    3.7565 H         1 ATP         0.0900
     47 H47        -1.0701    4.2005   -2.0743 H         1 ATP         0.5046
@<TRIPOS>BOND
     1    1    2 2
     2    1    3 1
     3    1    4 1
     4    1    8 1
     5    3   32 1
     6    4   33 1
     7    5    6 2
     8    5    7 1
     9    5    8 1
    10    5   12 1
    11    9   10 2
    12    9   11 1
    13    9   12 1
    14    9   13 1
    15   11   34 1
    16   13   14 1
    17   14   15 1
    18   14   35 1
    19   14   36 1
    20   15   16 1
    21   15   17 1
    22   15   37 1
    23   16   21 1
    24   17   18 1
    25   17   19 1
    26   17   38 1
    27   18   39 1
    28   19   20 1
    29   19   21 1
    30   19   40 1
    31   20   41 1
    32   21   22 1
    33   21   42 1
    34   22   23 ar
    35   22   31 ar
    36   23   24 ar
    37   23   43 1
    38   24   25 ar
    39   24   47 1
    40   25   26 ar
    41   25   31 ar
    42   26   27 1
    43   26   28 ar
    44   27   44 1
    45   27   45 1
    46   28   29 ar
    47   29   30 ar
    48   29   46 1
    49   30   31 ar
@<TRIPOS>SUBSTRUCTURE
     1 ATP         1 GROUP 0 A     ****
@<TRIPOS>MOLECULE
[[5-(6-amino-7,8-dihydropurin-8-ylium-9-yl)-3,4-dihydroxy-tetrahydrofuran-2-yl]methoxy-hydroxy-phosphoryl] phosphono phosphate
   47    49     1     0     0
SMALL
USER_CHARGES

@<TRIPOS>ATOM
      1 PG         -2.0687   -1.5211   -6.2061 P.3       1 ATP         1.7526
      2 O1G        -2.2144   -0.4431   -7.2391 O.2       1 ATP        -0.8534
      3 O2G        -3.1588   -1.4883   -5.0136 O.3       1 ATP        -0.7661
      4 O3G        -2.1684   -3.0330   -6.7684 O.3       1 ATP        -0.7661
      5 PB          0.8687   -1.6731   -5.9837 P.3       1 ATP         1.6631
      6 O1B         1.0443   -3.0762   -6.5204 O.co2     1 ATP        -0.8211
      7 O2B         1.2020   -0.4641   -6.8292 O.co2     1 ATP        -0.8211
      8 O3B        -0.6548   -1.5136   -5.4220 O.3       1 ATP        -0.7954
      9 PA          1.5741   -2.4609   -3.2285 P.3       1 ATP         1.7782
     10 O1A         1.9282   -3.9055   -3.4313 O.2       1 ATP        -0.8134
     11 O2A         0.0703   -2.2105   -2.6868 O.3       1 ATP        -0.8257
     12 O3A         1.6619   -1.5521   -4.5634 O.3       1 ATP        -0.8063
     13 O5'         2.5233   -1.6622   -2.1894 O.3       1 ATP        -0.5763
     14 C5'         2.2816   -0.2918   -1.9206 C.3       1 ATP         0.1790
     15 C4'         2.7248    0.0226   -0.4980 C.3       1 ATP         0.1339
     16 O4'         2.4697    1.4219   -0.2462 O.3       1 ATP        -0.4040
     17 C3'         1.9404   -0.7419    0.5596 C.3       1 ATP         0.0906
     18 O3'         2.7418   -0.8086    1.7389 O.3       1 ATP        -0.5689
     19 C2'         0.7477    0.1630    0.7858 C.3       1 ATP         0.0660
     20 O2'         0.1373   -0.0577    2.0407 O.3       1 ATP        -0.5800
     21 C1'         1.3733    1.5427    0.6747 C.3       1 ATP         0.4216
     22 N9          0.4520    2.5240    0.1767 N.pl3     1 ATP        -0.5455
     23 C8          0.1928    2.8484   -1.0815 C.ar      1 ATP         0.2820
     24 N7         -0.7248    3.8048   -1.2110 N.pl3     1 ATP        -0.4970
     25 C5         -1.0765    4.1129    0.0571 C.ar      1 ATP        -0.2773
     26 C6         -1.9614    5.0063    0.5851 C.ar      1 ATP         0.7637
     27 N6         -2.7145    5.8254   -0.2810 N.pl3     1 ATP        -0.9374
     28 N1         -2.1199    5.1113    1.9228 N.ar      1 ATP        -0.7408
     29 C2         -1.3522    4.2822    2.6839 C.ar      1 ATP         0.7215
     30 N3         -0.4501    3.3660    2.2638 N.ar      1 ATP        -0.6797
     31 C4         -0.3487    3.3198    0.9322 C.ar      1 ATP         0.6429
     32 HOG2       -4.1100   -1.5743   -5.2372 H         1 ATP         0.4781
     33 HOG3       -1.5212   -3.3324   -7.4419 H         1 ATP         0.4781
     34 HOA2       -0.1942   -2.5987   -1.8258 H         1 ATP         0.4931
     35 H5'1        2.8428    0.3150   -2.6387 H         1 ATP         0.0438
     36 H5'2        1.2124   -0.0896   -2.0417 H         1 ATP         0.0438
     37 H4'         3.8049   -0.1388   -0.4009 H         1 ATP         0.1278
     38 H3'         1.6783   -1.7629    0.2715 H         1 ATP         0.1161
     39 HO3'        2.2232   -1.2979    2.3953 H         1 ATP         0.4111
     40 H2'        -0.0011    0.0027    0.0003 H         1 ATP         0.0477
     41 HO2'       -0.6141    0.5574    2.1082 H         1 ATP         0.4259
     42 H1'         1.7826    1.9024    1.6451 H         1 ATP         0.1524
     43 H8          0.6728    2.3873   -1.9272 H         1 ATP         0.2610
     44 HN61       -2.5537    5.7714   -1.2667 H         1 ATP         0.4534
     45 HN62       -3.3282    6.5126    0.1080 H         1 ATP         0.4534
     46 H2         -1.4818    4.3694    3.7565 H         1 ATP         0.0900
     47 H47        -1.0701    4.2005   -2.0743 H         1 ATP         0.5046
@<TRIPOS>BOND
     1    1    2 2
     2    1    3 1
     3    1    4 1
     4    1    8 1
     5    3   32 1
     6    4   33 1
     7    5    6 2
     8    5    7 1
     9    5    8 1
    10    5   12 1
    11    9   10 2
    12    9   11 1
    13    9   12 1
    14    9   13 1
    15   11   34 1
    16   13   14 1
    17   14   15 1
    18   14   35 1
    19   14   36 1
    20   15   16 1
    21   15   17 1
    22   15   37 1
    23   16   21 1
    24   17   18 1
    25   17   19 1
    26   17   38 1
    27   18   39 1
    28   19   20 1
    29   19   21 1
    30   19   40 1
    31   20   41 1
    32   21   22 1
    33   21   42 1
    34   22   23 ar
    35   22   31 ar
    36   23   24 ar
    37   23   43 1
    38   24   25 ar
    39   24   47 1
    40   25   26 ar
    41   25   31 ar
    42   26   27 1
    43   26   28 ar
    44   27   44 1
    45   27   45 1
    46   28   29 ar
    47   29   30 ar
    48   29   46 1
    49   30   31 ar
@<TRIPOS>SUBSTRUCTURE
     1 ATP         1 GROUP 0 A     ****
@<TRIPOS>MOLECULE
[[5-(6-amino-7,8-dihydropurin-8-ylium-9-yl)-3,4-dihydroxy-tetrahydrofuran-2-yl]methoxy-hydroxy-phosphoryl] phosphono phosphate
   47    49     1     0     0
SMALL
USER_CHARGES

@<TRIPOS>ATOM
      1 PG          2.0446    0.0082   -8.9350 P.3       1 ATP         1.7526
      2 O1G         2.7051   -1.1710   -9.5857 O.2       1 ATP        -0.8534
      3 O2G         2.6965    1.4454   -9.2830 O.3       1 ATP        -0.7661
      4 O3G         0.4807    0.2060   -9.2913 O.3       1 ATP        -0.7661
      5 PB          1.4182   -1.1116   -6.2790 P.3       1 ATP         1.6631
      6 O1B        -0.0897   -1.0637   -6.3849 O.co2     1 ATP        -0.8211
      7 O2B         2.1720   -2.4150   -6.4221 O.co2     1 ATP        -0.8211
      8 O3B         2.0514   -0.0252   -7.3186 O.3       1 ATP        -0.7954
      9 PA          3.3376   -0.0311   -4.3149 P.3       1 ATP         1.7782
     10 O1A         4.1251    0.9098   -5.1800 O.2       1 ATP        -0.8134
     11 O2A         4.0362   -1.4721   -4.0854 O.3       1 ATP        -0.8257
     12 O3A         1.8686   -0.3982   -4.8828 O.3       1 ATP        -0.8063
     13 O5'         3.0190    0.5130   -2.8246 O.3       1 ATP        -0.5763
     14 C5'         2.2816   -0.2918   -1.9206 C.3       1 ATP         0.1790
     15 C4'         2.7248    0.0226   -0.4980 C.3       1 ATP         0.1339
     16 O4'         2.4697    1.4219   -0.2462 O.3       1 ATP        -0.4040
     17 C3'         1.9404   -0.7419    0.5596 C.3       1 ATP         0.0906
     18 O3'         2.7418   -0.8086    1.7389 O.3       1 ATP        -0.5689
     19 C2'         0.7477    0.1630    0.7858 C.3       1 ATP         0.0660
     20 O2'         0.1373   -0.0577    2.0407 O.3       1 ATP        -0.5800
     21 C1'         1.3733    1.5427    0.6747 C.3       1 ATP         0.4216
     22 N9          0.4520    2.5240    0.1767 N.pl3     1 ATP        -0.5455
     23 C8          0.1928    2.8484   -1.0815 C.ar      1 ATP         0.2820
     24 N7         -0.7248    3.8048   -1.2110 N.pl3     1 ATP        -0.4970
     25 C5         -1.0765    4.1129    0.0571 C.ar      1 ATP        -0.2773
     26 C6         -1.9614    5.0063    0.5851 C.ar      1 ATP         0.7637
     27 N6         -2.7145    5.8254   -0.2810 N.pl3     1 ATP        -0.9374
     28 N1         -2.1199    5.1113    1.9228 N.ar      1 ATP        -0.7408
     29 C2         -1.3522    4.2822    2.6839 C.ar      1 ATP         0.7215
     30 N3         -0.4501    3.3660    2.2638 N.ar      1 ATP        -0.6797
     31 C4         -0.3487    3.3198    0.9322 C.ar      1 ATP         0.6429
     32 HOG2        2.7227    1.7411  -10.2178 H         1 ATP         0.4781
     33 HOG3       -0.1516   -0.5092   -9.0654 H         1 ATP         0.4781
     34 HOA2        4.9191   -1.5086   -3.6596 H         1 ATP         0.4931
     35 H5'1        1.2149   -0.0786   -2.0446 H         1 ATP         0.0438
     36 H5'2        2.4640   -1.3459   -2.1539 H         1 ATP         0.0438
     37 H4'         3.8049   -0.1388   -0.4009 H         1 ATP         0.1278
     38 H3'         1.6783   -1.7629    0.2715 H         1 ATP         0.1161
     39 HO3'        2.2232   -1.2979    2.3953 H         1 ATP         0.4111
     40 H2'        -0.0011    0.0027    0.0003 H         1 ATP         0.0477
     41 HO2'       -0.6141    0.5574    2.1082 H         1 ATP         0.4259
     42 H1'         1.7826    1.9024    1.6451 H         1 ATP         0.1524
     43 H8          0.6728    2.3873   -1.9272 H         1 ATP         0.2610
     44 HN61       -2.5537    5.7714   -1.2667 H         1 ATP         0.4534
     45 HN62       -3.3282    6.5126    0.1080 H         1 ATP         0.4534
     46 H2         -1.4818    4.3694    3.7565 H         1 ATP         0.0900
     47 H47        -1.0701    4.2005   -2.0743 H         1 ATP         0.5046
@<TRIPOS>BOND
     1    1    2 2
     2    1    3 1
     3    1    4 1
     4    1    8 1
     5    3   32 1
     6    4   33 1
     7    5    6 2
     8    5    7 1
     9    5    8 1
    10    5   12 1
    11    9   10 2
    12    9   11 1
    13    9   12 1
    14    9   13 1
    15   11   34 1
    16   13   14 1
    17   14   15 1
    18   14   35 1
    19   14   36 1
    20   15   16 1
    21   15   17 1
    22   15   37 1
    23   16   21 1
    24   17   18 1
    25   17   19 1
    26   17   38 1
    27   18   39 1
    28   19   20 1
    29   19   21 1
    30   19   40 1
    31   20   41 1
    32   21   22 1
    33   21   42 1
    34   22   23 ar
    35   22   31 ar
    36   23   24 ar
    37   23   43 1
    38   24   25 ar
    39   24   47 1
    40   25   26 ar
    41   25   31 ar
    42   26   27 1
    43   26   28 ar
    44   27   44 1
    45   27   45 1
    46   28   29 ar
    47   29   30 ar
    48   29   46 1
    49   30   31 ar
@<TRIPOS>SUBSTRUCTURE
     1 ATP         1 GROUP 0 A     ****
@<TRIPOS>MOLECULE
[[5-(6-amino-7,8-dihydropurin-8-ylium-9-yl)-3,4-dihydroxy-tetrahydrofuran-2-yl]methoxy-hydroxy-phosphoryl] phosphono phosphate
   47    49     1     0     0
SMALL
USER_CHARGES

@<TRIPOS>ATOM
      1 PG          2.2741   -3.8274   -7.0491 P.3       1 ATP         1.7526
      2 O1G         0.9475   -4.4669   -7.3346 O.2       1 ATP        -0.8534
      3 O2G         3.3566   -4.7773   -6.3162 O.3       1 ATP        -0.7661
      4 O3G         3.0683   -3.2788   -8.3454 O.3       1 ATP        -0.7661
      5 PB          1.4182   -1.1116   -6.2790 P.3       1 ATP         1.6631
      6 O1B         2.0466   -0.3620   -7.4325 O.co2     1 ATP        -0.8211
      7 O2B        -0.0712   -1.3706   -6.2322 O.co2     1 ATP        -0.8211
      8 O3B         2.2013   -2.5301   -6.0870 O.3       1 ATP        -0.7954
      9 PA          3.3376   -0.0311   -4.3149 P.3       1 ATP         1.7782
     10 O1A         4.1251    0.9098   -5.1800 O.2       1 ATP        -0.8134
     11 O2A         4.0362   -1.4721   -4.0854 O.3       1 ATP        -0.8257
     12 O3A         1.8686   -0.3982   -4.8828 O.3       1 ATP        -0.8063
     13 O5'         3.0190    0.5130   -2.8246 O.3       1 ATP        -0.5763
     14 C5'         2.2816   -0.2918   -1.9206 C.3       1 ATP         0.1790
     15 C4'         2.7248    0.0226   -0.4980 C.3       1 ATP         0.1339
     16 O4'         2.4697    1.4219   -0.2462 O.3       1 ATP        -0.4040
     17 C3'         1.9404   -0.7419    0.5596 C.3       1 ATP         0.0906
     18 O3'         2.7418   -0.8086    1.7389 O.3       1 ATP        -0.5689
     19 C2'         0.7477    0.1630    0.7858 C.3       1 ATP         0.0660
     20 O2'         0.1373   -0.0577    2.0407 O.3       1 ATP        -0.5800
     21 C1'         1.3733    1.5427    0.6747 C.3       1 ATP         0.4216
     22 N9          0.4520    2.5240    0.1767 N.pl3     1 ATP        -0.5455
     23 C8          0.1928    2.8484   -1.0815 C.ar      1 ATP         0.2820
     24 N7         -0.7248    3.8048   -1.2110 N.pl3     1 ATP        -0.4970
     25 C5         -1.0765    4.1129    0.0571 C.ar      1 ATP        -0.2773
     26 C6         -1.9614    5.0063    0.5851 C.ar      1 ATP         0.7637
     27 N6         -2.7145    5.8254   -0.2810 N.pl3     1 ATP        -0.9374
     28 N1         -2.1199    5.1113    1.9228 N.ar      1 ATP        -0.7408
     29 C2         -1.3522    4.2822    2.6839 C.ar      1 ATP         0.7215
     30 N3         -0.4501    3.3660    2.2638 N.ar      1 ATP        -0.6797
     31 C4         -0.3487    3.3198    0.9322 C.ar      1 ATP         0.6429
     32 HOG2        3.6420   -5.6034   -6.7614 H         1 ATP         0.4781
     33 HOG3        2.6470   -2.5914   -8.9042 H         1 ATP         0.4781
     34 HOA2        4.2259   -2.0366   -4.8648 H         1 ATP         0.4931
     35 H5'1        1.2149   -0.0786   -2.0446 H         1 ATP         0.0438
     36 H5'2        2.4640   -1.3459   -2.1539 H         1 ATP         0.0438
     37 H4'         3.8049   -0.1388   -0.4009 H         1 ATP         0.1278
     38 H3'         1.6783   -1.7629    0.2715 H         1 ATP         0.1161
     39 HO3'        2.2232   -1.2979    2.3953 H         1 ATP         0.4111
     40 H2'        -0.0011    0.0027    0.0003 H         1 ATP         0.0477
     41 HO2'       -0.6141    0.5574    2.1082 H         1 ATP         0.4259
     42 H1'         1.7826    1.9024    1.6451 H         1 ATP         0.1524
     43 H8          0.6728    2.3873   -1.9272 H         1 ATP         0.2610
     44 HN61       -2.5537    5.7714   -1.2667 H         1 ATP         0.4534
     45 HN62       -3.3282    6.5126    0.1080 H         1 ATP         0.4534
     46 H2         -1.4818    4.3694    3.7565 H         1 ATP         0.0900
     47 H47        -1.0701    4.2005   -2.0743 H         1 ATP         0.5046
@<TRIPOS>BOND
     1    1    2 2
     2    1    3 1
     3    1    4 1
     4    1    8 1
     5    3   32 1
     6    4   33 1
     7    5    6 2
     8    5    7 1
     9    5    8 1
    10    5   12 1
    11    9   10 2
    12    9   11 1
    13    9   12 1
    14    9   13 1
    15   11   34 1
    16   13   14 1
    17   14   15 1
    18   14   35 1
    19   14   36 1
    20   15   16 1
    21   15   17 1
    22   15   37 1
    23   16   21 1
    24   17   18 1
    25   17   19 1
    26   17   38 1
    27   18   39 1
    28   19   20 1
    29   19   21 1
    30   19   40 1
    31   20   41 1
    32   21   22 1
    33   21   42 1
    34   22   23 ar
    35   22   31 ar
    36   23   24 ar
    37   23   43 1
    38   24   25 ar
    39   24   47 1
    40   25   26 ar
    41   25   31 ar
    42   26   27 1
    43   26   28 ar
    44   27   44 1
    45   27   45 1
    46   28   29 ar
    47   29   30 ar
    48   29   46 1
    49   30   31 ar
@<TRIPOS>SUBSTRUCTURE
     1 ATP         1 GROUP 0 A     ****
@<TRIPOS>MOLECULE
[[5-(6-amino-7,8-dihydropurin-8-ylium-9-yl)-3,4-dihydroxy-tetrahydrofuran-2-yl]methoxy-hydroxy-phosphoryl] phosphono phosphate
   47    49     1     0     0
SMALL
USER_CHARGES

@<TRIPOS>ATOM
      1 PG         -1.1012    1.3656   -6.8816 P.3       1 ATP         1.7526
      2 O1G        -2.3404    2.1355   -6.5323 O.2       1 ATP        -0.8534
      3 O2G        -1.3236   -0.2082   -7.1734 O.3       1 ATP        -0.7661
      4 O3G        -0.3130    1.8859   -8.1931 O.3       1 ATP        -0.7661
      5 PB          0.8540    2.6217   -5.0648 P.3       1 ATP         1.6631
      6 O1B         1.7407    3.2490   -6.1172 O.co2     1 ATP        -0.8211
      7 O2B        -0.1183    3.4565   -4.2614 O.co2     1 ATP        -0.8211
      8 O3B         0.0416    1.3771   -5.7379 O.3       1 ATP        -0.7954
      9 PA          2.8824    0.6133   -4.3155 P.3       1 ATP         1.7782
     10 O1A         4.0330    1.0401   -5.1801 O.2       1 ATP        -0.8134
     11 O2A         2.0103   -0.6089   -4.9179 O.3       1 ATP        -0.8257
     12 O3A         1.7870    1.7692   -4.0334 O.3       1 ATP        -0.8063
     13 O5'         3.2874    0.1331   -2.8242 O.3       1 ATP        -0.5763
     14 C5'         2.2816   -0.2918   -1.9206 C.3       1 ATP         0.1790
     15 C4'         2.7248    0.0226   -0.4980 C.3       1 ATP         0.1339
     16 O4'         2.4697    1.4219   -0.2462 O.3       1 ATP        -0.4040
     17 C3'         1.9404   -0.7419    0.5596 C.3       1 ATP         0.0906
     18 O3'         2.7418   -0.8086    1.7389 O.3       1 ATP        -0.5689
     19 C2'         0.7477    0.1630    0.7858 C.3       1 ATP         0.0660
     20 O2'         0.1373   -0.0577    2.0407 O.3       1 ATP        -0.5800
     21 C1'         1.3733    1.5427    0.6747 C.3       1 ATP         0.4216
     22 N9          0.4520    2.5240    0.1767 N.pl3     1 ATP        -0.5455
     23 C8         -0.2172    2.5216   -0.9668 C.ar      1 ATP         0.2820
     24 N7         -1.0011    3.5855   -1.1321 N.pl3     1 ATP        -0.4970
     25 C5         -0.8184    4.3200   -0.0123 C.ar      1 ATP        -0.2773
     26 C6         -1.3349    5.5079    0.4144 C.ar      1 ATP         0.7637
     27 N6         -2.2567    6.1930   -0.4036 N.pl3     1 ATP        -0.9374
     28 N1         -0.9716    6.0291    1.6069 N.ar      1 ATP        -0.7408
     29 C2         -0.0765    5.3009    2.3312 C.ar      1 ATP         0.7215
     30 N3          0.4933    4.1191    2.0023 N.ar      1 ATP        -0.6797
     31 C4          0.0865    3.6675    0.8123 C.ar      1 ATP         0.6429
     32 HOG2       -1.9195   -0.4759   -7.9051 H         1 ATP         0.4781
     33 HOG3        0.0291    2.8052   -8.2076 H         1 ATP         0.4781
     34 HOA2        2.4529   -1.4670   -5.0909 H         1 ATP         0.4931
     35 H5'1        1.3494    0.2322   -2.1552 H         1 ATP         0.0438
     36 H5'2        2.1260   -1.3686   -2.0435 H         1 ATP         0.0438
     37 H4'         3.8049   -0.1388   -0.4009 H         1 ATP         0.1278
     38 H3'         1.6783   -1.7629    0.2715 H         1 ATP         0.1161
     39 HO3'        2.2232   -1.2979    2.3953 H         1 ATP         0.4111
     40 H2'        -0.0011    0.0027    0.0003 H         1 ATP         0.0477
     41 HO2'       -0.6141    0.5574    2.1082 H         1 ATP         0.4259
     42 H1'         1.7826    1.9024    1.6451 H         1 ATP         0.1524
     43 H8         -0.1423    1.7373   -1.6999 H         1 ATP         0.2610
     44 HN61       -2.4811    5.8206   -1.3042 H         1 ATP         0.4534
     45 HN62       -2.5986    7.0863   -0.1113 H         1 ATP         0.4534
     46 H2          0.2128    5.7222    3.2871 H         1 ATP         0.0900
     47 H47        -1.5947    3.7835   -1.9255 H         1 ATP         0.5046
@<TRIPOS>BOND
     1    1    2 2
     2    1    3 1
     3    1    4 1
     4    1    8 1
     5    3   32 1
     6    4   33 1
     7    5    6 2
     8    5    7 1
     9    5    8 1
    10    5   12 1
    11    9   10 2
    12    9   11 1
    13    9   12 1
    14    9   13 1
    15   11   34 1
    16   13   14 1
    17   14   15 1
    18   14   35 1
    19   14   36 1
    20   15   16 1
    21   15   17 1
    22   15   37 1
    23   16   21 1
    24   17   18 1
    25   17   19 1
    26   17   38 1
    27   18   39 1
    28   19   20 1
    29   19   21 1
    30   19   40 1
    31   20   41 1
    32   21   22 1
    33   21   42 1
    34   22   23 ar
    35   22   31 ar
    36   23   24 ar
    37   23   43 1
    38   24   25 ar
    39   24   47 1
    40   25   26 ar
    41   25   31 ar
    42   26   27 1
    43   26   28 ar
    44   27   44 1
    45   27   45 1
    46   28   29 ar
    47   29   30 ar
    48   29   46 1
    49   30   31 ar
@<TRIPOS>SUBSTRUCTURE
     1 ATP         1 GROUP 0 A     ****
@<TRIPOS>MOLECULE
[[5-(6-amino-7,8-dihydropurin-8-ylium-9-yl)-3,4-dihydroxy-tetrahydrofuran-2-yl]methoxy-hydroxy-phosphoryl] phosphono phosphate
   47    49     1     0     0
SMALL
USER_CHARGES

@<TRIPOS>ATOM
      1 PG         -0.3128   -1.6445   -7.4198 P.3       1 ATP         1.7526
      2 O1G        -1.7667   -1.2839   -7.5018 O.2       1 ATP        -0.8534
      3 O2G        -0.0022   -3.1997   -7.1095 O.3       1 ATP        -0.7661
      4 O3G         0.5481   -1.3456   -8.7545 O.3       1 ATP        -0.7661
      5 PB          0.7651    0.7356   -6.0507 P.3       1 ATP         1.6631
      6 O1B         1.6324    1.2479   -7.1789 O.co2     1 ATP        -0.8211
      7 O2B        -0.5539    1.3954   -5.7156 O.co2     1 ATP        -0.8211
      8 O3B         0.5098   -0.8610   -6.2694 O.3       1 ATP        -0.7954
      9 PA          3.0839   -0.0768   -4.4158 P.3       1 ATP         1.7782
     10 O1A         4.2162    0.4129   -5.2713 O.2       1 ATP        -0.8134
     11 O2A         2.7515   -1.6512   -4.5832 O.3       1 ATP        -0.8257
     12 O3A         1.6665    0.6506   -4.6937 O.3       1 ATP        -0.8063
     13 O5'         3.2874    0.1331   -2.8242 O.3       1 ATP        -0.5763
     14 C5'         2.2816   -0.2918   -1.9206 C.3       1 ATP         0.1790
     15 C4'         2.7248    0.0226   -0.4980 C.3       1 ATP         0.1339
     16 O4'         2.4697    1.4219   -0.2462 O.3       1 ATP        -0.4040
     17 C3'         1.9404   -0.7419    0.5596 C.3       1 ATP         0.0906
     18 O3'         2.7418   -0.8086    1.7389 O.3       1 ATP        -0.5689
     19 C2'         0.7477    0.1630    0.7858 C.3       1 ATP         0.0660
     20 O2'         0.1373   -0.0577    2.0407 O.3       1 ATP        -0.5800
     21 C1'         1.3733    1.5427    0.6747 C.3       1 ATP         0.4216
     22 N9          0.4520    2.5240    0.1767 N.pl3     1 ATP        -0.5455
     23 C8          0.1928    2.8484   -1.0815 C.ar      1 ATP         0.2820
     24 N7         -0.7248    3.8048   -1.2110 N.pl3     1 ATP        -0.4970
     25 C5         -1.0765    4.1129    0.0571 C.ar      1 ATP        -0.2773
     26 C6         -1.9614    5.0063    0.5851 C.ar      1 ATP         0.7637
     27 N6         -2.7145    5.8254   -0.2810 N.pl3     1 ATP        -0.9374
     28 N1         -2.1199    5.1113    1.9228 N.ar      1 ATP        -0.7408
     29 C2         -1.3522    4.2822    2.6839 C.ar      1 ATP         0.7215
     30 N3         -0.4501    3.3660    2.2638 N.ar      1 ATP        -0.6797
     31 C4         -0.3487    3.3198    0.9322 C.ar      1 ATP         0.6429
     32 HOG2       -0.3374   -3.5938   -6.2762 H         1 ATP         0.4781
     33 HOG3        0.6036   -0.4245   -9.0871 H         1 ATP         0.4781
     34 HOA2        3.4501   -2.3079   -4.3764 H         1 ATP         0.4931
     35 H5'1        1.3494    0.2322   -2.1552 H         1 ATP         0.0438
     36 H5'2        2.1260   -1.3686   -2.0435 H         1 ATP         0.0438
     37 H4'         3.8049   -0.1388   -0.4009 H         1 ATP         0.1278
     38 H3'         1.6783   -1.7629    0.2715 H         1 ATP         0.1161
     39 HO3'        3.5554   -1.2733    1.4914 H         1 ATP         0.4111
     40 H2'        -0.0011    0.0027    0.0003 H         1 ATP         0.0477
     41 HO2'       -0.1563   -0.9855    2.0596 H         1 ATP         0.4259
     42 H1'         1.7826    1.9024    1.6451 H         1 ATP         0.1524
     43 H8          0.6728    2.3873   -1.9272 H         1 ATP         0.2610
     44 HN61       -2.5537    5.7714   -1.2667 H         1 ATP         0.4534
     45 HN62       -3.3282    6.5126    0.1080 H         1 ATP         0.4534
     46 H2         -1.4818    4.3694    3.7565 H         1 ATP         0.0900
     47 H47        -1.0701    4.2005   -2.0743 H         1 ATP         0.5046
@<TRIPOS>BOND
     1    1    2 2
     2    1    3 1
     3    1    4 1
     4    1    8 1
     5    3   32 1
     6    4   33 1
     7    5    6 2
     8    5    7 1
     9    5    8 1
    10    5   12 1
    11    9   10 2
    12    9   11 1
    13    9   12 1
    14    9   13 1
    15   11   34 1
    16   13   14 1
    17   14   15 1
    18   14   35 1
    19   14   36 1
    20   15   16 1
    21   15   17 1
    22   15   37 1
    23   16   21 1
    24   17   18 1
    25   17   19 1
    26   17   38 1
    27   18   39 1
    28   19   20 1
    29   19   21 1
    30   19   40 1
    31   20   41 1
    32   21   22 1
    33   21   42 1
    34   22   23 ar
    35   22   31 ar
    36   23   24 ar
    37   23   43 1
    38   24   25 ar
    39   24   47 1
    40   25   26 ar
    41   25   31 ar
    42   26   27 1
    43   26   28 ar
    44   27   44 1
    45   27   45 1
    46   28   29 ar
    47   29   30 ar
    48   29   46 1
    49   30   31 ar
@<TRIPOS>SUBSTRUCTURE
     1 ATP         1 GROUP 0 A     ****
@<TRIPOS>MOLECULE
[[5-(6-amino-7,8-dihydropurin-8-ylium-9-yl)-3,4-dihydroxy-tetrahydrofuran-2-yl]methoxy-hydroxy-phosphoryl] phosphono phosphate
   47    49     1     0     0
SMALL
USER_CHARGES

@<TRIPOS>ATOM
      1 PG          2.8385    4.2329   -7.4645 P.3       1 ATP         1.7526
      2 O1G         1.8499    3.8725   -8.5338 O.2       1 ATP        -0.8534
      3 O2G         4.3928    4.1091   -7.8892 O.3       1 ATP        -0.7661
      4 O3G         2.7204    5.7413   -6.8965 O.3       1 ATP        -0.7661
      5 PB          1.5062    3.1079   -5.0853 P.3       1 ATP         1.6631
      6 O1B         1.2433    4.4093   -4.3610 O.co2     1 ATP        -0.8211
      7 O2B         0.3952    2.3716   -5.8004 O.co2     1 ATP        -0.8211
      8 O3B         2.7418    3.3286   -6.1278 O.3       1 ATP        -0.7954
      9 PA          2.8824    0.6133   -4.3155 P.3       1 ATP         1.7782
     10 O1A         4.0008    0.5891   -5.3166 O.2       1 ATP        -0.8134
     11 O2A         1.6103   -0.3046   -4.7113 O.3       1 ATP        -0.8257
     12 O3A         2.2407    2.0753   -4.0580 O.3       1 ATP        -0.8063
     13 O5'         3.2874    0.1331   -2.8242 O.3       1 ATP        -0.5763
     14 C5'         2.2816   -0.2918   -1.9206 C.3       1 ATP         0.1790
     15 C4'         2.7248    0.0226   -0.4980 C.3       1 ATP         0.1339
     16 O4'         2.4697    1.4219   -0.2462 O.3       1 ATP        -0.4040
     17 C3'         1.9404   -0.7419    0.5596 C.3       1 ATP         0.0906
     18 O3'         2.7418   -0.8086    1.7389 O.3       1 ATP        -0.5689
     19 C2'         0.7477    0.1630    0.7858 C.3       1 ATP         0.0660
     20 O2'         0.1373   -0.0577    2.0407 O.3       1 ATP        -0.5800
     21 C1'         1.3733    1.5427    0.6747 C.3       1 ATP         0.4216
     22 N9          0.4520    2.5240    0.1767 N.pl3     1 ATP        -0.5455
     23 C8          0.1928    2.8484   -1.0815 C.ar      1 ATP         0.2820
     24 N7         -0.7248    3.8048   -1.2110 N.pl3     1 ATP        -0.4970
     25 C5         -1.0765    4.1129    0.0571 C.ar      1 ATP        -0.2773
     26 C6         -1.9614    5.0063    0.5851 C.ar      1 ATP         0.7637
     27 N6         -2.7145    5.8254   -0.2810 N.pl3     1 ATP        -0.9374
     28 N1         -2.1199    5.1113    1.9228 N.ar      1 ATP        -0.7408
     29 C2         -1.3522    4.2822    2.6839 C.ar      1 ATP         0.7215
     30 N3         -0.4501    3.3660    2.2638 N.ar      1 ATP        -0.6797
     31 C4         -0.3487    3.3198    0.9322 C.ar      1 ATP         0.6429
     32 HOG2        4.7391    3.2368   -8.1743 H         1 ATP         0.4781
     33 HOG3        1.8808    6.0260   -6.4768 H         1 ATP         0.4781
     34 HOA2        1.1298   -0.1148   -5.5450 H         1 ATP         0.4931
     35 H5'1        1.3494    0.2322   -2.1552 H         1 ATP         0.0438
     36 H5'2        2.1260   -1.3686   -2.0435 H         1 ATP         0.0438
     37 H4'         3.8049   -0.1388   -0.4009 H         1 ATP         0.1278
     38 H3'         1.6783   -1.7629    0.2715 H         1 ATP         0.1161
     39 HO3'        2.2232   -1.2979    2.3953 H         1 ATP         0.4111
     40 H2'        -0.0011    0.0027    0.0003 H         1 ATP         0.0477
     41 HO2'       -0.6141    0.5574    2.1082 H         1 ATP         0.4259
     42 H1'         1.7826    1.9024    1.6451 H         1 ATP         0.1524
     43 H8          0.6728    2.3873   -1.9272 H         1 ATP         0.2610
     44 HN61       -2.5537    5.7714   -1.2667 H         1 ATP         0.4534
     45 HN62       -3.3282    6.5126    0.1080 H         1 ATP         0.4534
     46 H2         -1.4818    4.3694    3.7565 H         1 ATP         0.0900
     47 H47        -1.0701    4.2005   -2.0743 H         1 ATP         0.5046
@<TRIPOS>BOND
     1    1    2 2
     2    1    3 1
     3    1    4 1
     4    1    8 1
     5    3   32 1
     6    4   33 1
     7    5    6 2
     8    5    7 1
     9    5    8 1
    10    5   12 1
    11    9   10 2
    12    9   11 1
    13    9   12 1
    14    9   13 1
    15   11   34 1
    16   13   14 1
    17   14   15 1
    18   14   35 1
    19   14   36 1
    20   15   16 1
    21   15   17 1
    22   15   37 1
    23   16   21 1
    24   17   18 1
    25   17   19 1
    26   17   38 1
    27   18   39 1
    28   19   20 1
    29   19   21 1
    30   19   40 1
    31   20   41 1
    32   21   22 1
    33   21   42 1
    34   22   23 ar
    35   22   31 ar
    36   23   24 ar
    37   23   43 1
    38   24   25 ar
    39   24   47 1
    40   25   26 ar
    41   25   31 ar
    42   26   27 1
    43   26   28 ar
    44   27   44 1
    45   27   45 1
    46   28   29 ar
    47   29   30 ar
    48   29   46 1
    49   30   31 ar
@<TRIPOS>SUBSTRUCTURE
     1 ATP         1 GROUP 0 A     ****
@<TRIPOS>MOLECULE
[[5-(6-amino-7,8-dihydropurin-8-ylium-9-yl)-3,4-dihydroxy-tetrahydrofuran-2-yl]methoxy-hydroxy-phosphoryl] phosphono phosphate
   47    49     1     0     0
SMALL
USER_CHARGES

@<TRIPOS>ATOM
      1 PG         -0.6923    3.5901   -6.5178 P.3       1 ATP         1.7526
      2 O1G        -1.8738    2.8491   -7.0705 O.2       1 ATP        -0.8534
      3 O2G         0.2305    4.3368   -7.6143 O.3       1 ATP        -0.7661
      4 O3G        -1.0453    4.7602   -5.4604 O.3       1 ATP        -0.7661
      5 PB          1.2372    1.3822   -6.1963 P.3       1 ATP         1.6631
      6 O1B         0.2953    0.2387   -6.5003 O.co2     1 ATP        -0.8211
      7 O2B         2.2555    1.8490   -7.2127 O.co2     1 ATP        -0.8211
      8 O3B         0.3599    2.6681   -5.7074 O.3       1 ATP        -0.7954
      9 PA          3.0839   -0.0768   -4.4158 P.3       1 ATP         1.7782
     10 O1A         4.3457   -0.0393   -5.2282 O.2       1 ATP        -0.8134
     11 O2A         2.2462   -1.4549   -4.5445 O.3       1 ATP        -0.8257
     12 O3A         2.0063    1.0688   -4.7923 O.3       1 ATP        -0.8063
     13 O5'         3.2874    0.1331   -2.8242 O.3       1 ATP        -0.5763
     14 C5'         2.2816   -0.2918   -1.9206 C.3       1 ATP         0.1790
     15 C4'         2.7248    0.0226   -0.4980 C.3       1 ATP         0.1339
     16 O4'         2.4697    1.4219   -0.2462 O.3       1 ATP        -0.4040
     17 C3'         1.9404   -0.7419    0.5596 C.3       1 ATP         0.0906
     18 O3'         2.7418   -0.8086    1.7389 O.3       1 ATP        -0.5689
     19 C2'         0.7477    0.1630    0.7858 C.3       1 ATP         0.0660
     20 O2'         0.1373   -0.0577    2.0407 O.3       1 ATP        -0.5800
     21 C1'         1.3733    1.5427    0.6747 C.3       1 ATP         0.4216
     22 N9          0.4520    2.5240    0.1767 N.pl3     1 ATP        -0.5455
     23 C8          0.1928    2.8484   -1.0815 C.ar      1 ATP         0.2820
     24 N7         -0.7248    3.8048   -1.2110 N.pl3     1 ATP        -0.4970
     25 C5         -1.0765    4.1129    0.0571 C.ar      1 ATP        -0.2773
     26 C6         -1.9614    5.0063    0.5851 C.ar      1 ATP         0.7637
     27 N6         -2.7145    5.8254   -0.2810 N.pl3     1 ATP        -0.9374
     28 N1         -2.1199    5.1113    1.9228 N.ar      1 ATP        -0.7408
     29 C2         -1.3522    4.2822    2.6839 C.ar      1 ATP         0.7215
     30 N3         -0.4501    3.3660    2.2638 N.ar      1 ATP        -0.6797
     31 C4         -0.3487    3.3198    0.9322 C.ar      1 ATP         0.6429
     32 HOG2       -0.1718    5.0281   -8.1820 H         1 ATP         0.4781
     33 HOG3       -1.5205    4.5262   -4.6348 H         1 ATP         0.4781
     34 HOA2        1.9180   -1.7296   -5.4270 H         1 ATP         0.4931
     35 H5'1        1.3494    0.2322   -2.1552 H         1 ATP         0.0438
     36 H5'2        2.1260   -1.3686   -2.0435 H         1 ATP         0.0438
     37 H4'         3.8049   -0.1388   -0.4009 H         1 ATP         0.1278
     38 H3'         1.6783   -1.7629    0.2715 H         1 ATP         0.1161
     39 HO3'        2.2232   -1.2979    2.3953 H         1 ATP         0.4111
     40 H2'        -0.0011    0.0027    0.0003 H         1 ATP         0.0477
     41 HO2'       -0.6141    0.5574    2.1082 H         1 ATP         0.4259
     42 H1'         1.7826    1.9024    1.6451 H         1 ATP         0.1524
     43 H8          0.6728    2.3873   -1.9272 H         1 ATP         0.2610
     44 HN61       -2.5537    5.7714   -1.2667 H         1 ATP         0.4534
     45 HN62       -3.3282    6.5126    0.1080 H         1 ATP         0.4534
     46 H2         -1.4818    4.3694    3.7565 H         1 ATP         0.0900
     47 H47        -1.0701    4.2005   -2.0743 H         1 ATP         0.5046
@<TRIPOS>BOND
     1    1    2 2
     2    1    3 1
     3    1    4 1
     4    1    8 1
     5    3   32 1
     6    4   33 1
     7    5    6 2
     8    5    7 1
     9    5    8 1
    10    5   12 1
    11    9   10 2
    12    9   11 1
    13    9   12 1
    14    9   13 1
    15   11   34 1
    16   13   14 1
    17   14   15 1
    18   14   35 1
    19   14   36 1
    20   15   16 1
    21   15   17 1
    22   15   37 1
    23   16   21 1
    24   17   18 1
    25   17   19 1
    26   17   38 1
    27   18   39 1
    28   19   20 1
    29   19   21 1
    30   19   40 1
    31   20   41 1
    32   21   22 1
    33   21   42 1
    34   22   23 ar
    35   22   31 ar
    36   23   24 ar
    37   23   43 1
    38   24   25 ar
    39   24   47 1
    40   25   26 ar
    41   25   31 ar
    42   26   27 1
    43   26   28 ar
    44   27   44 1
    45   27   45 1
    46   28   29 ar
    47   29   30 ar
    48   29   46 1
    49   30   31 ar
@<TRIPOS>SUBSTRUCTURE
     1 ATP         1 GROUP 0 A     ****
@<TRIPOS>MOLECULE
[[5-(6-amino-7,8-dihydropurin-8-ylium-9-yl)-3,4-dihydroxy-tetrahydrofuran-2-yl]methoxy-hydroxy-phosphoryl] phosphono phosphate
   47    49     1     0     0
SMALL
USER_CHARGES

@<TRIPOS>ATOM
      1 PG          2.7077    0.4979   -7.9279 P.3       1 ATP         1.7526
      2 O1G         3.8166    1.4733   -7.6647 O.2       1 ATP        -0.8534
      3 O2G         1.3730    1.1288   -8.5852 O.3       1 ATP        -0.7661
      4 O3G         3.0814   -0.7186   -8.9241 O.3       1 ATP        -0.7661
      5 PB          2.9225   -1.2308   -5.5475 P.3       1 ATP         1.6631
      6 O1B         3.3249   -2.5062   -6.2539 O.co2     1 ATP        -0.8211
      7 O2B         3.9347   -0.4057   -4.7845 O.co2     1 ATP        -0.8211
      8 O3B         2.1547   -0.2618   -6.6122 O.3       1 ATP        -0.7954
      9 PA          1.5741   -2.4609   -3.2285 P.3       1 ATP         1.7782
     10 O1A         1.9282   -3.9055   -3.4313 O.2       1 ATP        -0.8134
     11 O2A         0.0703   -2.2105   -2.6868 O.3       1 ATP        -0.8257
     12 O3A         1.6619   -1.5521   -4.5634 O.3       1 ATP        -0.8063
     13 O5'         2.5233   -1.6622   -2.1894 O.3       1 ATP        -0.5763
     14 C5'         2.2816   -0.2918   -1.9206 C.3       1 ATP         0.1790
     15 C4'         2.7248    0.0226   -0.4980 C.3       1 ATP         0.1339
     16 O4'         2.4697    1.4219   -0.2462 O.3       1 ATP        -0.4040
     17 C3'         1.9404   -0.7419    0.5596 C.3       1 ATP         0.0906
     18 O3'         2.7418   -0.8086    1.7389 O.3       1 ATP        -0.5689
     19 C2'         0.7477    0.1630    0.7858 C.3       1 ATP         0.0660
     20 O2'         0.1373   -0.0577    2.0407 O.3       1 ATP        -0.5800
     21 C1'         1.3733    1.5427    0.6747 C.3       1 ATP         0.4216
     22 N9          0.4520    2.5240    0.1767 N.pl3     1 ATP        -0.5455
     23 C8          0.1928    2.8484   -1.0815 C.ar      1 ATP         0.2820
     24 N7         -0.7248    3.8048   -1.2110 N.pl3     1 ATP        -0.4970
     25 C5         -1.0765    4.1129    0.0571 C.ar      1 ATP        -0.2773
     26 C6         -1.9614    5.0063    0.5851 C.ar      1 ATP         0.7637
     27 N6         -2.7145    5.8254   -0.2810 N.pl3     1 ATP        -0.9374
     28 N1         -2.1199    5.1113    1.9228 N.ar      1 ATP        -0.7408
     29 C2         -1.3522    4.2822    2.6839 C.ar      1 ATP         0.7215
     30 N3         -0.4501    3.3660    2.2638 N.ar      1 ATP        -0.6797
     31 C4         -0.3487    3.3198    0.9322 C.ar      1 ATP         0.6429
     32 HOG2        0.8901    1.8304   -8.0987 H         1 ATP         0.4781
     33 HOG3        3.8097   -1.3275   -8.6772 H         1 ATP         0.4781
     34 HOA2       -0.1942   -2.5987   -1.8258 H         1 ATP         0.4931
     35 H5'1        2.8428    0.3150   -2.6387 H         1 ATP         0.0438
     36 H5'2        1.2124   -0.0896   -2.0417 H         1 ATP         0.0438
     37 H4'         3.8049   -0.1388   -0.4009 H         1 ATP         0.1278
     38 H3'         1.6783   -1.7629    0.2715 H         1 ATP         0.1161
     39 HO3'        2.2232   -1.2979    2.3953 H         1 ATP         0.4111
     40 H2'        -0.0011    0.0027    0.0003 H         1 ATP         0.0477
     41 HO2'       -0.6141    0.5574    2.1082 H         1 ATP         0.4259
     42 H1'         1.7826    1.9024    1.6451 H         1 ATP         0.1524
     43 H8          0.6728    2.3873   -1.9272 H         1 ATP         0.2610
     44 HN61       -2.5537    5.7714   -1.2667 H         1 ATP         0.4534
     45 HN62       -3.3282    6.5126    0.1080 H         1 ATP         0.4534
     46 H2         -1.4818    4.3694    3.7565 H         1 ATP         0.0900
     47 H47        -1.0701    4.2005   -2.0743 H         1 ATP         0.5046
@<TRIPOS>BOND
     1    1    2 2
     2    1    3 1
     3    1    4 1
     4    1    8 1
     5    3   32 1
     6    4   33 1
     7    5    6 2
     8    5    7 1
     9    5    8 1
    10    5   12 1
    11    9   10 2
    12    9   11 1
    13    9   12 1
    14    9   13 1
    15   11   34 1
    16   13   14 1
    17   14   15 1
    18   14   35 1
    19   14   36 1
    20   15   16 1
    21   15   17 1
    22   15   37 1
    23   16   21 1
    24   17   18 1
    25   17   19 1
    26   17   38 1
    27   18   39 1
    28   19   20 1
    29   19   21 1
    30   19   40 1
    31   20   41 1
    32   21   22 1
    33   21   42 1
    34   22   23 ar
    35   22   31 ar
    36   23   24 ar
    37   23   43 1
    38   24   25 ar
    39   24   47 1
    40   25   26 ar
    41   25   31 ar
    42   26   27 1
    43   26   28 ar
    44   27   44 1
    45   27   45 1
    46   28   29 ar
    47   29   30 ar
    48   29   46 1
    49   30   31 ar
@<TRIPOS>SUBSTRUCTURE
     1 ATP         1 GROUP 0 A     ****
@<TRIPOS>MOLECULE
[[5-(6-amino-7,8-dihydropurin-8-ylium-9-yl)-3,4-dihydroxy-tetrahydrofuran-2-yl]methoxy-hydroxy-phosphoryl] phosphono phosphate
   47    49     1     0     0
SMALL
USER_CHARGES

@<TRIPOS>ATOM
      1 PG          6.6626   -1.3974   -2.2789 P.3       1 ATP         1.7526
      2 O1G         7.7162   -0.5516   -2.9308 O.2       1 ATP        -0.8534
      3 O2G         7.0498   -2.9537   -2.0803 O.3       1 ATP        -0.7661
      4 O3G         6.2186   -0.9260   -0.7981 O.3       1 ATP        -0.7661
      5 PB          4.9239   -1.9830   -4.5887 P.3       1 ATP         1.6631
      6 O1B         5.5819   -1.0531   -5.5836 O.co2     1 ATP        -0.8211
      7 O2B         5.1519   -3.4772   -4.6444 O.co2     1 ATP        -0.8211
      8 O3B         5.2598   -1.4593   -3.0803 O.3       1 ATP        -0.7954
      9 PA          2.1463   -2.2799   -3.6368 P.3       1 ATP         1.7782
     10 O1A         1.9958   -3.7731   -3.6708 O.2       1 ATP        -0.8134
     11 O2A         0.8287   -1.4640   -4.1009 O.3       1 ATP        -0.8257
     12 O3A         3.3175   -1.6992   -4.5889 O.3       1 ATP        -0.8063
     13 O5'         2.5233   -1.6622   -2.1894 O.3       1 ATP        -0.5763
     14 C5'         2.2816   -0.2918   -1.9206 C.3       1 ATP         0.1790
     15 C4'         2.7248    0.0226   -0.4980 C.3       1 ATP         0.1339
     16 O4'         2.4697    1.4219   -0.2462 O.3       1 ATP        -0.4040
     17 C3'         1.9404   -0.7419    0.5596 C.3       1 ATP         0.0906
     18 O3'         2.7418   -0.8086    1.7389 O.3       1 ATP        -0.5689
     19 C2'         0.7477    0.1630    0.7858 C.3       1 ATP         0.0660
     20 O2'         0.1373   -0.0577    2.0407 O.3       1 ATP        -0.5800
     21 C1'         1.3733    1.5427    0.6747 C.3       1 ATP         0.4216
     22 N9          0.4520    2.5240    0.1767 N.pl3     1 ATP        -0.5455
     23 C8          0.1928    2.8484   -1.0815 C.ar      1 ATP         0.2820
     24 N7         -0.7248    3.8048   -1.2110 N.pl3     1 ATP        -0.4970
     25 C5         -1.0765    4.1129    0.0571 C.ar      1 ATP        -0.2773
     26 C6         -1.9614    5.0063    0.5851 C.ar      1 ATP         0.7637
     27 N6         -2.7145    5.8254   -0.2810 N.pl3     1 ATP        -0.9374
     28 N1         -2.1199    5.1113    1.9228 N.ar      1 ATP        -0.7408
     29 C2         -1.3522    4.2822    2.6839 C.ar      1 ATP         0.7215
     30 N3         -0.4501    3.3660    2.2638 N.ar      1 ATP        -0.6797
     31 C4         -0.3487    3.3198    0.9322 C.ar      1 ATP         0.6429
     32 HOG2        7.2586   -3.4957   -2.8707 H         1 ATP         0.4781
     33 HOG3        6.8949   -0.8919   -0.0883 H         1 ATP         0.4781
     34 HOA2       -0.0059   -1.5871   -3.6006 H         1 ATP         0.4931
     35 H5'1        2.8428    0.3150   -2.6387 H         1 ATP         0.0438
     36 H5'2        1.2124   -0.0896   -2.0417 H         1 ATP         0.0438
     37 H4'         3.8049   -0.1388   -0.4009 H         1 ATP         0.1278
     38 H3'         1.6783   -1.7629    0.2715 H         1 ATP         0.1161
     39 HO3'        2.2232   -1.2979    2.3953 H         1 ATP         0.4111
     40 H2'        -0.0011    0.0027    0.0003 H         1 ATP         0.0477
     41 HO2'       -0.1563   -0.9855    2.0596 H         1 ATP         0.4259
     42 H1'         1.7826    1.9024    1.6451 H         1 ATP         0.1524
     43 H8          0.6728    2.3873   -1.9272 H         1 ATP         0.2610
     44 HN61       -2.5537    5.7714   -1.2667 H         1 ATP         0.4534
     45 HN62       -3.3282    6.5126    0.1080 H         1 ATP         0.4534
     46 H2         -1.4818    4.3694    3.7565 H         1 ATP         0.0900
     47 H47        -1.0701    4.2005   -2.0743 H         1 ATP         0.5046
@<TRIPOS>BOND
     1    1    2 2
     2    1    3 1
     3    1    4 1
     4    1    8 1
     5    3   32 1
     6    4   33 1
     7    5    6 2
     8    5    7 1
     9    5    8 1
    10    5   12 1
    11    9   10 2
    12    9   11 1
    13    9   12 1
    14    9   13 1
    15   11   34 1
    16   13   14 1
    17   14   15 1
    18   14   35 1
    19   14   36 1
    20   15   16 1
    21   15   17 1
    22   15   37 1
    23   16   21 1
    24   17   18 1
    25   17   19 1
    26   17   38 1
    27   18   39 1
    28   19   20 1
    29   19   21 1
    30   19   40 1
    31   20   41 1
    32   21   22 1
    33   21   42 1
    34   22   23 ar
    35   22   31 ar
    36   23   24 ar
    37   23   43 1
    38   24   25 ar
    39   24   47 1
    40   25   26 ar
    41   25   31 ar
    42   26   27 1
    43   26   28 ar
    44   27   44 1
    45   27   45 1
    46   28   29 ar
    47   29   30 ar
    48   29   46 1
    49   30   31 ar
@<TRIPOS>SUBSTRUCTURE
     1 ATP         1 GROUP 0 A     ****
@<TRIPOS>MOLECULE
[[5-(6-amino-7,8-dihydropurin-8-ylium-9-yl)-3,4-dihydroxy-tetrahydrofuran-2-yl]methoxy-hydroxy-phosphoryl] phosphono phosphate
   47    49     1     0     0
SMALL
USER_CHARGES

@<TRIPOS>ATOM
      1 PG          4.1154    4.2009   -6.3280 P.3       1 ATP         1.7526
      2 O1G         4.7639    5.0185   -5.2503 O.2       1 ATP        -0.8534
      3 O2G         2.9731    4.9619   -7.1809 O.3       1 ATP        -0.7661
      4 O3G         5.1185    3.6333   -7.4609 O.3       1 ATP        -0.7661
      5 PB          2.1282    2.6950   -4.7518 P.3       1 ATP         1.6631
      6 O1B         2.5960    3.1132   -3.3757 O.co2     1 ATP        -0.8211
      7 O2B         0.8821    3.2897   -5.3693 O.co2     1 ATP        -0.8211
      8 O3B         3.3653    2.8690   -5.8013 O.3       1 ATP        -0.7954
      9 PA          3.0839   -0.0768   -4.4158 P.3       1 ATP         1.7782
     10 O1A         4.3457   -0.0393   -5.2282 O.2       1 ATP        -0.8134
     11 O2A         2.2462   -1.4549   -4.5445 O.3       1 ATP        -0.8257
     12 O3A         2.0063    1.0688   -4.7923 O.3       1 ATP        -0.8063
     13 O5'         3.2874    0.1331   -2.8242 O.3       1 ATP        -0.5763
     14 C5'         2.2816   -0.2918   -1.9206 C.3       1 ATP         0.1790
     15 C4'         2.7248    0.0226   -0.4980 C.3       1 ATP         0.1339
     16 O4'         2.4697    1.4219   -0.2462 O.3       1 ATP        -0.4040
     17 C3'         1.9404   -0.7419    0.5596 C.3       1 ATP         0.0906
     18 O3'         2.7418   -0.8086    1.7389 O.3       1 ATP        -0.5689
     19 C2'         0.7477    0.1630    0.7858 C.3       1 ATP         0.0660
     20 O2'         0.1373   -0.0577    2.0407 O.3       1 ATP        -0.5800
     21 C1'         1.3733    1.5427    0.6747 C.3       1 ATP         0.4216
     22 N9          0.4520    2.5240    0.1767 N.pl3     1 ATP        -0.5455
     23 C8         -0.2172    2.5216   -0.9668 C.ar      1 ATP         0.2820
     24 N7         -1.0011    3.5855   -1.1321 N.pl3     1 ATP        -0.4970
     25 C5         -0.8184    4.3200   -0.0123 C.ar      1 ATP        -0.2773
     26 C6         -1.3349    5.5079    0.4144 C.ar      1 ATP         0.7637
     27 N6         -2.2567    6.1930   -0.4036 N.pl3     1 ATP        -0.9374
     28 N1         -0.9716    6.0291    1.6069 N.ar      1 ATP        -0.7408
     29 C2         -0.0765    5.3009    2.3312 C.ar      1 ATP         0.7215
     30 N3          0.4933    4.1191    2.0023 N.ar      1 ATP        -0.6797
     31 C4          0.0865    3.6675    0.8123 C.ar      1 ATP         0.6429
     32 HOG2        2.1842    5.3101   -6.7135 H         1 ATP         0.4781
     33 HOG3        5.8507    3.0386   -7.1916 H         1 ATP         0.4781
     34 HOA2        2.6742   -2.2964   -4.2787 H         1 ATP         0.4931
     35 H5'1        1.3494    0.2322   -2.1552 H         1 ATP         0.0438
     36 H5'2        2.1260   -1.3686   -2.0435 H         1 ATP         0.0438
     37 H4'         3.8049   -0.1388   -0.4009 H         1 ATP         0.1278
     38 H3'         1.6783   -1.7629    0.2715 H         1 ATP         0.1161
     39 HO3'        2.2232   -1.2979    2.3953 H         1 ATP         0.4111
     40 H2'        -0.0011    0.0027    0.0003 H         1 ATP         0.0477
     41 HO2'       -0.6141    0.5574    2.1082 H         1 ATP         0.4259
     42 H1'         1.7826    1.9024    1.6451 H         1 ATP         0.1524
     43 H8         -0.1423    1.7373   -1.6999 H         1 ATP         0.2610
     44 HN61       -2.4811    5.8206   -1.3042 H         1 ATP         0.4534
     45 HN62       -2.5986    7.0863   -0.1113 H         1 ATP         0.4534
     46 H2          0.2128    5.7222    3.2871 H         1 ATP         0.0900
     47 H47        -1.5947    3.7835   -1.9255 H         1 ATP         0.5046
@<TRIPOS>BOND
     1    1    2 2
     2    1    3 1
     3    1    4 1
     4    1    8 1
     5    3   32 1
     6    4   33 1
     7    5    6 2
     8    5    7 1
     9    5    8 1
    10    5   12 1
    11    9   10 2
    12    9   11 1
    13    9   12 1
    14    9   13 1
    15   11   34 1
    16   13   14 1
    17   14   15 1
    18   14   35 1
    19   14   36 1
    20   15   16 1
    21   15   17 1
    22   15   37 1
    23   16   21 1
    24   17   18 1
    25   17   19 1
    26   17   38 1
    27   18   39 1
    28   19   20 1
    29   19   21 1
    30   19   40 1
    31   20   41 1
    32   21   22 1
    33   21   42 1
    34   22   23 ar
    35   22   31 ar
    36   23   24 ar
    37   23   43 1
    38   24   25 ar
    39   24   47 1
    40   25   26 ar
    41   25   31 ar
    42   26   27 1
    43   26   28 ar
    44   27   44 1
    45   27   45 1
    46   28   29 ar
    47   29   30 ar
    48   29   46 1
    49   30   31 ar
@<TRIPOS>SUBSTRUCTURE
     1 ATP         1 GROUP 0 A     ****
@<TRIPOS>MOLECULE
[[5-(6-amino-7,8-dihydropurin-8-ylium-9-yl)-3,4-dihydroxy-tetrahydrofuran-2-yl]methoxy-hydroxy-phosphoryl] phosphono phosphate
   47    49     1     0     0
SMALL
USER_CHARGES

@<TRIPOS>ATOM
      1 PG          3.6005   -0.1680   -8.0072 P.3       1 ATP         1.7526
      2 O1G         4.4955    0.9687   -8.4039 O.2       1 ATP        -0.8534
      3 O2G         2.0244    0.0658   -8.2769 O.3       1 ATP        -0.7661
      4 O3G         3.9056   -1.5746   -8.7423 O.3       1 ATP        -0.7661
      5 PB          4.9097   -1.0521   -5.5162 P.3       1 ATP         1.6631
      6 O1B         5.3434   -2.4228   -5.9858 O.co2     1 ATP        -0.8211
      7 O2B         5.9018    0.0827   -5.3910 O.co2     1 ATP        -0.8211
      8 O3B         3.6594   -0.5534   -6.4382 O.3       1 ATP        -0.7954
      9 PA          2.8565   -2.1425   -3.6983 P.3       1 ATP         1.7782
     10 O1A         3.0938   -3.6162   -3.8583 O.2       1 ATP        -0.8134
     11 O2A         1.6409   -1.5597   -4.5927 O.3       1 ATP        -0.8257
     12 O3A         4.1154   -1.2102   -4.1001 O.3       1 ATP        -0.8063
     13 O5'         2.5233   -1.6622   -2.1894 O.3       1 ATP        -0.5763
     14 C5'         2.2816   -0.2918   -1.9206 C.3       1 ATP         0.1790
     15 C4'         2.7248    0.0226   -0.4980 C.3       1 ATP         0.1339
     16 O4'         2.4697    1.4219   -0.2462 O.3       1 ATP        -0.4040
     17 C3'         1.9404   -0.7419    0.5596 C.3       1 ATP         0.0906
     18 O3'         2.7418   -0.8086    1.7389 O.3       1 ATP        -0.5689
     19 C2'         0.7477    0.1630    0.7858 C.3       1 ATP         0.0660
     20 O2'         0.1373   -0.0577    2.0407 O.3       1 ATP        -0.5800
     21 C1'         1.3733    1.5427    0.6747 C.3       1 ATP         0.4216
     22 N9          0.4520    2.5240    0.1767 N.pl3     1 ATP        -0.5455
     23 C8          0.1928    2.8484   -1.0815 C.ar      1 ATP         0.2820
     24 N7         -0.7248    3.8048   -1.2110 N.pl3     1 ATP        -0.4970
     25 C5         -1.0765    4.1129    0.0571 C.ar      1 ATP        -0.2773
     26 C6         -1.9614    5.0063    0.5851 C.ar      1 ATP         0.7637
     27 N6         -2.7145    5.8254   -0.2810 N.pl3     1 ATP        -0.9374
     28 N1         -2.1199    5.1113    1.9228 N.ar      1 ATP        -0.7408
     29 C2         -1.3522    4.2822    2.6839 C.ar      1 ATP         0.7215
     30 N3         -0.4501    3.3660    2.2638 N.ar      1 ATP        -0.6797
     31 C4         -0.3487    3.3198    0.9322 C.ar      1 ATP         0.6429
     32 HOG2        1.7189    0.2297   -9.1944 H         1 ATP         0.4781
     33 HOG3        4.7890   -1.9863   -8.6313 H         1 ATP         0.4781
     34 HOA2        1.6872   -1.6448   -5.5687 H         1 ATP         0.4931
     35 H5'1        2.8428    0.3150   -2.6387 H         1 ATP         0.0438
     36 H5'2        1.2124   -0.0896   -2.0417 H         1 ATP         0.0438
     37 H4'         3.8049   -0.1388   -0.4009 H         1 ATP         0.1278
     38 H3'         1.6783   -1.7629    0.2715 H         1 ATP         0.1161
     39 HO3'        2.2232   -1.2979    2.3953 H         1 ATP         0.4111
     40 H2'        -0.0011    0.0027    0.0003 H         1 ATP         0.0477
     41 HO2'       -0.6141    0.5574    2.1082 H         1 ATP         0.4259
     42 H1'         1.7826    1.9024    1.6451 H         1 ATP         0.1524
     43 H8          0.6728    2.3873   -1.9272 H         1 ATP         0.2610
     44 HN61       -3.3968    6.4465    0.1048 H         1 ATP         0.4534
     45 HN62       -2.6221    5.7051   -1.2696 H         1 ATP         0.4534
     46 H2         -1.4818    4.3694    3.7565 H         1 ATP         0.0900
     47 H47        -1.0701    4.2005   -2.0743 H         1 ATP         0.5046
@<TRIPOS>BOND
     1    1    2 2
     2    1    3 1
     3    1    4 1
     4    1    8 1
     5    3   32 1
     6    4   33 1
     7    5    6 2
     8    5    7 1
     9    5    8 1
    10    5   12 1
    11    9   10 2
    12    9   11 1
    13    9   12 1
    14    9   13 1
    15   11   34 1
    16   13   14 1
    17   14   15 1
    18   14   35 1
    19   14   36 1
    20   15   16 1
    21   15   17 1
    22   15   37 1
    23   16   21 1
    24   17   18 1
    25   17   19 1
    26   17   38 1
    27   18   39 1
    28   19   20 1
    29   19   21 1
    30   19   40 1
    31   20   41 1
    32   21   22 1
    33   21   42 1
    34   22   23 ar
    35   22   31 ar
    36   23   24 ar
    37   23   43 1
    38   24   25 ar
    39   24   47 1
    40   25   26 ar
    41   25   31 ar
    42   26   27 1
    43   26   28 ar
    44   27   44 1
    45   27   45 1
    46   28   29 ar
    47   29   30 ar
    48   29   46 1
    49   30   31 ar
@<TRIPOS>SUBSTRUCTURE
     1 ATP         1 GROUP 0 A     ****
@<TRIPOS>MOLECULE
[[5-(6-amino-7,8-dihydropurin-8-ylium-9-yl)-3,4-dihydroxy-tetrahydrofuran-2-yl]methoxy-hydroxy-phosphoryl] phosphono phosphate
   47    49     1     0     0
SMALL
USER_CHARGES

@<TRIPOS>ATOM
      1 PG         -1.9689   -0.4773   -6.2555 P.3       1 ATP         1.7526
      2 O1G        -2.1439    0.3826   -7.4723 O.2       1 ATP        -0.8534
      3 O2G        -2.7823    0.0047   -4.9450 O.3       1 ATP        -0.7661
      4 O3G        -2.4155   -2.0205   -6.4318 O.3       1 ATP        -0.7661
      5 PB          0.5901    0.5585   -5.2165 P.3       1 ATP         1.6631
      6 O1B         0.9425    1.4501   -6.3862 O.co2     1 ATP        -0.8211
      7 O2B         0.0670    1.1373   -3.9207 O.co2     1 ATP        -0.8211
      8 O3B        -0.4447   -0.5941   -5.7290 O.3       1 ATP        -0.7954
      9 PA          3.3376   -0.0311   -4.3149 P.3       1 ATP         1.7782
     10 O1A         4.1251    0.9098   -5.1800 O.2       1 ATP        -0.8134
     11 O2A         4.0362   -1.4721   -4.0854 O.3       1 ATP        -0.8257
     12 O3A         1.8686   -0.3982   -4.8828 O.3       1 ATP        -0.8063
     13 O5'         3.0190    0.5130   -2.8246 O.3       1 ATP        -0.5763
     14 C5'         2.2816   -0.2918   -1.9206 C.3       1 ATP         0.1790
     15 C4'         2.7248    0.0226   -0.4980 C.3       1 ATP         0.1339
     16 O4'         2.4697    1.4219   -0.2462 O.3       1 ATP        -0.4040
     17 C3'         1.9404   -0.7419    0.5596 C.3       1 ATP         0.0906
     18 O3'         2.7418   -0.8086    1.7389 O.3       1 ATP        -0.5689
     19 C2'         0.7477    0.1630    0.7858 C.3       1 ATP         0.0660
     20 O2'         0.1373   -0.0577    2.0407 O.3       1 ATP        -0.5800
     21 C1'         1.3733    1.5427    0.6747 C.3       1 ATP         0.4216
     22 N9          0.4520    2.5240    0.1767 N.pl3     1 ATP        -0.5455
     23 C8          0.1928    2.8484   -1.0815 C.ar      1 ATP         0.2820
     24 N7         -0.7248    3.8048   -1.2110 N.pl3     1 ATP        -0.4970
     25 C5         -1.0765    4.1129    0.0571 C.ar      1 ATP        -0.2773
     26 C6         -1.9614    5.0063    0.5851 C.ar      1 ATP         0.7637
     27 N6         -2.7145    5.8254   -0.2810 N.pl3     1 ATP        -0.9374
     28 N1         -2.1199    5.1113    1.9228 N.ar      1 ATP        -0.7408
     29 C2         -1.3522    4.2822    2.6839 C.ar      1 ATP         0.7215
     30 N3         -0.4501    3.3660    2.2638 N.ar      1 ATP        -0.6797
     31 C4         -0.3487    3.3198    0.9322 C.ar      1 ATP         0.6429
     32 HOG2       -2.5978    0.8927   -4.5715 H         1 ATP         0.4781
     33 HOG3       -3.3460   -2.2211   -6.6688 H         1 ATP         0.4781
     34 HOA2        4.9191   -1.5086   -3.6596 H         1 ATP         0.4931
     35 H5'1        1.2149   -0.0786   -2.0446 H         1 ATP         0.0438
     36 H5'2        2.4640   -1.3459   -2.1539 H         1 ATP         0.0438
     37 H4'         3.8049   -0.1388   -0.4009 H         1 ATP         0.1278
     38 H3'         1.6783   -1.7629    0.2715 H         1 ATP         0.1161
     39 HO3'        2.2232   -1.2979    2.3953 H         1 ATP         0.4111
     40 H2'        -0.0011    0.0027    0.0003 H         1 ATP         0.0477
     41 HO2'       -0.6141    0.5574    2.1082 H         1 ATP         0.4259
     42 H1'         1.7826    1.9024    1.6451 H         1 ATP         0.1524
     43 H8          0.6728    2.3873   -1.9272 H         1 ATP         0.2610
     44 HN61       -2.5537    5.7714   -1.2667 H         1 ATP         0.4534
     45 HN62       -3.3282    6.5126    0.1080 H         1 ATP         0.4534
     46 H2         -1.4818    4.3694    3.7565 H         1 ATP         0.0900
     47 H47        -1.0701    4.2005   -2.0743 H         1 ATP         0.5046
@<TRIPOS>BOND
     1    1    2 2
     2    1    3 1
     3    1    4 1
     4    1    8 1
     5    3   32 1
     6    4   33 1
     7    5    6 2
     8    5    7 1
     9    5    8 1
    10    5   12 1
    11    9   10 2
    12    9   11 1
    13    9   12 1
    14    9   13 1
    15   11   34 1
    16   13   14 1
    17   14   15 1
    18   14   35 1
    19   14   36 1
    20   15   16 1
    21   15   17 1
    22   15   37 1
    23   16   21 1
    24   17   18 1
    25   17   19 1
    26   17   38 1
    27   18   39 1
    28   19   20 1
    29   19   21 1
    30   19   40 1
    31   20   41 1
    32   21   22 1
    33   21   42 1
    34   22   23 ar
    35   22   31 ar
    36   23   24 ar
    37   23   43 1
    38   24   25 ar
    39   24   47 1
    40   25   26 ar
    41   25   31 ar
    42   26   27 1
    43   26   28 ar
    44   27   44 1
    45   27   45 1
    46   28   29 ar
    47   29   30 ar
    48   29   46 1
    49   30   31 ar
@<TRIPOS>SUBSTRUCTURE
     1 ATP         1 GROUP 0 A     ****
@<TRIPOS>MOLECULE
[[5-(6-amino-7,8-dihydropurin-8-ylium-9-yl)-3,4-dihydroxy-tetrahydrofuran-2-yl]methoxy-hydroxy-phosphoryl] phosphono phosphate
   47    49     1     0     0
SMALL
USER_CHARGES

@<TRIPOS>ATOM
      1 PG          2.0428    2.4873   -7.5589 P.3       1 ATP         1.7526
      2 O1G         0.8657    2.4298   -8.4871 O.2       1 ATP        -0.8534
      3 O2G         3.4891    2.5362   -8.2781 O.3       1 ATP        -0.7661
      4 O3G         2.0730    3.7586   -6.5616 O.3       1 ATP        -0.7661
      5 PB          1.1370    0.6774   -5.4131 P.3       1 ATP         1.6631
      6 O1B         1.0476    1.7010   -4.3033 O.co2     1 ATP        -0.8211
      7 O2B        -0.1062    0.1534   -6.0968 O.co2     1 ATP        -0.8211
      8 O3B         2.1669    1.2281   -6.5524 O.3       1 ATP        -0.7954
      9 PA          3.4935   -0.6459   -4.2276 P.3       1 ATP         1.7782
     10 O1A         4.5884   -0.1042   -5.1002 O.2       1 ATP        -0.8134
     11 O2A         3.6754   -2.1988   -3.8124 O.3       1 ATP        -0.8257
     12 O3A         2.0176   -0.5909   -4.8867 O.3       1 ATP        -0.8063
     13 O5'         3.2874    0.1331   -2.8242 O.3       1 ATP        -0.5763
     14 C5'         2.2816   -0.2918   -1.9206 C.3       1 ATP         0.1790
     15 C4'         2.7248    0.0226   -0.4980 C.3       1 ATP         0.1339
     16 O4'         2.4697    1.4219   -0.2462 O.3       1 ATP        -0.4040
     17 C3'         1.9404   -0.7419    0.5596 C.3       1 ATP         0.0906
     18 O3'         2.7418   -0.8086    1.7389 O.3       1 ATP        -0.5689
     19 C2'         0.7477    0.1630    0.7858 C.3       1 ATP         0.0660
     20 O2'         0.1373   -0.0577    2.0407 O.3       1 ATP        -0.5800
     21 C1'         1.3733    1.5427    0.6747 C.3       1 ATP         0.4216
     22 N9          0.4520    2.5240    0.1767 N.pl3     1 ATP        -0.5455
     23 C8          0.1928    2.8484   -1.0815 C.ar      1 ATP         0.2820
     24 N7         -0.7248    3.8048   -1.2110 N.pl3     1 ATP        -0.4970
     25 C5         -1.0765    4.1129    0.0571 C.ar      1 ATP        -0.2773
     26 C6         -1.9614    5.0063    0.5851 C.ar      1 ATP         0.7637
     27 N6         -2.7145    5.8254   -0.2810 N.pl3     1 ATP        -0.9374
     28 N1         -2.1199    5.1113    1.9228 N.ar      1 ATP        -0.7408
     29 C2         -1.3522    4.2822    2.6839 C.ar      1 ATP         0.7215
     30 N3         -0.4501    3.3660    2.2638 N.ar      1 ATP        -0.6797
     31 C4         -0.3487    3.3198    0.9322 C.ar      1 ATP         0.6429
     32 HOG2        3.6940    3.2812   -8.8824 H         1 ATP         0.4781
     33 HOG3        1.3325    3.8845   -5.9306 H         1 ATP         0.4781
     34 HOA2        4.4746   -2.4648   -3.3098 H         1 ATP         0.4931
     35 H5'1        1.3494    0.2322   -2.1552 H         1 ATP         0.0438
     36 H5'2        2.1260   -1.3686   -2.0435 H         1 ATP         0.0438
     37 H4'         3.8049   -0.1388   -0.4009 H         1 ATP         0.1278
     38 H3'         1.6783   -1.7629    0.2715 H         1 ATP         0.1161
     39 HO3'        2.2232   -1.2979    2.3953 H         1 ATP         0.4111
     40 H2'        -0.0011    0.0027    0.0003 H         1 ATP         0.0477
     41 HO2'       -0.6141    0.5574    2.1082 H         1 ATP         0.4259
     42 H1'         1.7826    1.9024    1.6451 H         1 ATP         0.1524
     43 H8          0.6728    2.3873   -1.9272 H         1 ATP         0.2610
     44 HN61       -2.5537    5.7714   -1.2667 H         1 ATP         0.4534
     45 HN62       -3.3282    6.5126    0.1080 H         1 ATP         0.4534
     46 H2         -1.4818    4.3694    3.7565 H         1 ATP         0.0900
     47 H47        -1.0701    4.2005   -2.0743 H         1 ATP         0.5046
@<TRIPOS>BOND
     1    1    2 2
     2    1    3 1
     3    1    4 1
     4    1    8 1
     5    3   32 1
     6    4   33 1
     7    5    6 2
     8    5    7 1
     9    5    8 1
    10    5   12 1
    11    9   10 2
    12    9   11 1
    13    9   12 1
    14    9   13 1
    15   11   34 1
    16   13   14 1
    17   14   15 1
    18   14   35 1
    19   14   36 1
    20   15   16 1
    21   15   17 1
    22   15   37 1
    23   16   21 1
    24   17   18 1
    25   17   19 1
    26   17   38 1
    27   18   39 1
    28   19   20 1
    29   19   21 1
    30   19   40 1
    31   20   41 1
    32   21   22 1
    33   21   42 1
    34   22   23 ar
    35   22   31 ar
    36   23   24 ar
    37   23   43 1
    38   24   25 ar
    39   24   47 1
    40   25   26 ar
    41   25   31 ar
    42   26   27 1
    43   26   28 ar
    44   27   44 1
    45   27   45 1
    46   28   29 ar
    47   29   30 ar
    48   29   46 1
    49   30   31 ar
@<TRIPOS>SUBSTRUCTURE
     1 ATP         1 GROUP 0 A     ****
@<TRIPOS>MOLECULE
[[5-(6-amino-7,8-dihydropurin-8-ylium-9-yl)-3,4-dihydroxy-tetrahydrofuran-2-yl]methoxy-hydroxy-phosphoryl] phosphono phosphate
   47    49     1     0     0
SMALL
USER_CHARGES

@<TRIPOS>ATOM
      1 PG         -1.8070    2.1729   -6.1884 P.3       1 ATP         1.7526
      2 O1G        -2.6985    1.0967   -6.7339 O.2       1 ATP        -0.8534
      3 O2G        -1.2462    3.2254   -7.2789 O.3       1 ATP        -0.7661
      4 O3G        -2.4767    3.1172   -5.0607 O.3       1 ATP        -0.7661
      5 PB          0.7651    0.7356   -6.0507 P.3       1 ATP         1.6631
      6 O1B         0.2469   -0.6472   -6.3773 O.co2     1 ATP        -0.8211
      7 O2B         1.5137    1.5541   -7.0790 O.co2     1 ATP        -0.8211
      8 O3B        -0.4660    1.6320   -5.4652 O.3       1 ATP        -0.7954
      9 PA          3.0839   -0.0768   -4.4158 P.3       1 ATP         1.7782
     10 O1A         4.2162    0.4129   -5.2713 O.2       1 ATP        -0.8134
     11 O2A         2.7515   -1.6512   -4.5832 O.3       1 ATP        -0.8257
     12 O3A         1.6665    0.6506   -4.6937 O.3       1 ATP        -0.8063
     13 O5'         3.2874    0.1331   -2.8242 O.3       1 ATP        -0.5763
     14 C5'         2.2816   -0.2918   -1.9206 C.3       1 ATP         0.1790
     15 C4'         2.7248    0.0226   -0.4980 C.3       1 ATP         0.1339
     16 O4'         2.4697    1.4219   -0.2462 O.3       1 ATP        -0.4040
     17 C3'         1.9404   -0.7419    0.5596 C.3       1 ATP         0.0906
     18 O3'         2.7418   -0.8086    1.7389 O.3       1 ATP        -0.5689
     19 C2'         0.7477    0.1630    0.7858 C.3       1 ATP         0.0660
     20 O2'         0.1373   -0.0577    2.0407 O.3       1 ATP        -0.5800
     21 C1'         1.3733    1.5427    0.6747 C.3       1 ATP         0.4216
     22 N9          0.4520    2.5240    0.1767 N.pl3     1 ATP        -0.5455
     23 C8         -0.6854    2.9365    0.7168 C.ar      1 ATP         0.2820
     24 N7         -1.3118    3.8692    0.0018 N.pl3     1 ATP        -0.4970
     25 C5         -0.5159    4.0659   -1.0727 C.ar      1 ATP        -0.2773
     26 C6         -0.6068    4.8856   -2.1589 C.ar      1 ATP         0.7637
     27 N6         -1.7186    5.7437   -2.2844 N.pl3     1 ATP        -0.9374
     28 N1          0.3541    4.8807   -3.1087 N.ar      1 ATP        -0.7408
     29 C2          1.3913    4.0207   -2.9071 C.ar      1 ATP         0.7215
     30 N3          1.5770    3.1707   -1.8715 N.ar      1 ATP        -0.6797
     31 C4          0.5883    3.2318   -0.9747 C.ar      1 ATP         0.6429
     32 HOG2       -0.7002    2.8929   -8.0227 H         1 ATP         0.4781
     33 HOG3       -3.2761    3.6371   -5.2906 H         1 ATP         0.4781
     34 HOA2        3.4501   -2.3079   -4.3764 H         1 ATP         0.4931
     35 H5'1        1.3494    0.2322   -2.1552 H         1 ATP         0.0438
     36 H5'2        2.1260   -1.3686   -2.0435 H         1 ATP         0.0438
     37 H4'         3.8049   -0.1388   -0.4009 H         1 ATP         0.1278
     38 H3'         1.6783   -1.7629    0.2715 H         1 ATP         0.1161
     39 HO3'        2.2232   -1.2979    2.3953 H         1 ATP         0.4111
     40 H2'        -0.0011    0.0027    0.0003 H         1 ATP         0.0477
     41 HO2'       -0.1563   -0.9855    2.0596 H         1 ATP         0.4259
     42 H1'         1.7826    1.9024    1.6451 H         1 ATP         0.1524
     43 H8         -1.0749    2.5601    1.6468 H         1 ATP         0.2610
     44 HN61       -2.4460    5.7038   -1.5992 H         1 ATP         0.4534
     45 HN62       -1.8079    6.3099   -3.1040 H         1 ATP         0.4534
     46 H2          2.1601    4.0194   -3.6712 H         1 ATP         0.0900
     47 H47        -2.1877    4.3195    0.2279 H         1 ATP         0.5046
@<TRIPOS>BOND
     1    1    2 2
     2    1    3 1
     3    1    4 1
     4    1    8 1
     5    3   32 1
     6    4   33 1
     7    5    6 2
     8    5    7 1
     9    5    8 1
    10    5   12 1
    11    9   10 2
    12    9   11 1
    13    9   12 1
    14    9   13 1
    15   11   34 1
    16   13   14 1
    17   14   15 1
    18   14   35 1
    19   14   36 1
    20   15   16 1
    21   15   17 1
    22   15   37 1
    23   16   21 1
    24   17   18 1
    25   17   19 1
    26   17   38 1
    27   18   39 1
    28   19   20 1
    29   19   21 1
    30   19   40 1
    31   20   41 1
    32   21   22 1
    33   21   42 1
    34   22   23 ar
    35   22   31 ar
    36   23   24 ar
    37   23   43 1
    38   24   25 ar
    39   24   47 1
    40   25   26 ar
    41   25   31 ar
    42   26   27 1
    43   26   28 ar
    44   27   44 1
    45   27   45 1
    46   28   29 ar
    47   29   30 ar
    48   29   46 1
    49   30   31 ar
@<TRIPOS>SUBSTRUCTURE
     1 ATP         1 GROUP 0 A     ****
@<TRIPOS>MOLECULE
[[5-(6-amino-7,8-dihydropurin-8-ylium-9-yl)-3,4-dihydroxy-tetrahydrofuran-2-yl]methoxy-hydroxy-phosphoryl] phosphono phosphate
   47    49     1     0     0
SMALL
USER_CHARGES

@<TRIPOS>ATOM
      1 PG         -2.7313    1.0845   -5.6599 P.3       1 ATP         1.7526
      2 O1G        -2.8856    2.1128   -6.7413 O.2       1 ATP        -0.8534
      3 O2G        -3.6272    1.3312   -4.3378 O.3       1 ATP        -0.7661
      4 O3G        -3.1001   -0.4290   -6.0900 O.3       1 ATP        -0.7661
      5 PB          0.1649    0.5493   -5.8225 P.3       1 ATP         1.6631
      6 O1B         0.0837   -0.8925   -6.2722 O.co2     1 ATP        -0.8211
      7 O2B         0.5241    1.6528   -6.7925 O.co2     1 ATP        -0.8211
      8 O3B        -1.2305    0.9446   -5.0751 O.3       1 ATP        -0.7954
      9 PA          2.7546    0.3893   -4.4162 P.3       1 ATP         1.7782
     10 O1A         3.5952    1.2918   -5.2721 O.2       1 ATP        -0.8134
     11 O2A         2.9233   -1.1869   -4.7393 O.3       1 ATP        -0.8257
     12 O3A         1.1614    0.6412   -4.5343 O.3       1 ATP        -0.8063
     13 O5'         3.0190    0.5130   -2.8246 O.3       1 ATP        -0.5763
     14 C5'         2.2816   -0.2918   -1.9206 C.3       1 ATP         0.1790
     15 C4'         2.7248    0.0226   -0.4980 C.3       1 ATP         0.1339
     16 O4'         2.4697    1.4219   -0.2462 O.3       1 ATP        -0.4040
     17 C3'         1.9404   -0.7419    0.5596 C.3       1 ATP         0.0906
     18 O3'         2.7418   -0.8086    1.7389 O.3       1 ATP        -0.5689
     19 C2'         0.7477    0.1630    0.7858 C.3       1 ATP         0.0660
     20 O2'         0.1373   -0.0577    2.0407 O.3       1 ATP        -0.5800
     21 C1'         1.3733    1.5427    0.6747 C.3       1 ATP         0.4216
     22 N9          0.4520    2.5240    0.1767 N.pl3     1 ATP        -0.5455
     23 C8         -0.6854    2.9365    0.7168 C.ar      1 ATP         0.2820
     24 N7         -1.3118    3.8692    0.0018 N.pl3     1 ATP        -0.4970
     25 C5         -0.5159    4.0659   -1.0727 C.ar      1 ATP        -0.2773
     26 C6         -0.6068    4.8856   -2.1589 C.ar      1 ATP         0.7637
     27 N6         -1.7186    5.7437   -2.2844 N.pl3     1 ATP        -0.9374
     28 N1          0.3541    4.8807   -3.1087 N.ar      1 ATP        -0.7408
     29 C2          1.3913    4.0207   -2.9071 C.ar      1 ATP         0.7215
     30 N3          1.5770    3.1707   -1.8715 N.ar      1 ATP        -0.6797
     31 C4          0.5883    3.2318   -0.9747 C.ar      1 ATP         0.6429
     32 HOG2       -4.6037    1.3623   -4.4249 H         1 ATP         0.4781
     33 HOG3       -2.5986   -0.8505   -6.8201 H         1 ATP         0.4781
     34 HOA2        3.8087   -1.5981   -4.6450 H         1 ATP         0.4931
     35 H5'1        1.2149   -0.0786   -2.0446 H         1 ATP         0.0438
     36 H5'2        2.4640   -1.3459   -2.1539 H         1 ATP         0.0438
     37 H4'         3.8049   -0.1388   -0.4009 H         1 ATP         0.1278
     38 H3'         1.6783   -1.7629    0.2715 H         1 ATP         0.1161
     39 HO3'        2.2232   -1.2979    2.3953 H         1 ATP         0.4111
     40 H2'        -0.0011    0.0027    0.0003 H         1 ATP         0.0477
     41 HO2'       -0.1563   -0.9855    2.0596 H         1 ATP         0.4259
     42 H1'         1.7826    1.9024    1.6451 H         1 ATP         0.1524
     43 H8         -1.0749    2.5601    1.6468 H         1 ATP         0.2610
     44 HN61       -2.4460    5.7038   -1.5992 H         1 ATP         0.4534
     45 HN62       -1.8079    6.3099   -3.1040 H         1 ATP         0.4534
     46 H2          2.1601    4.0194   -3.6712 H         1 ATP         0.0900
     47 H47        -2.1877    4.3195    0.2279 H         1 ATP         0.5046
@<TRIPOS>BOND
     1    1    2 2
     2    1    3 1
     3    1    4 1
     4    1    8 1
     5    3   32 1
     6    4   33 1
     7    5    6 2
     8    5    7 1
     9    5    8 1
    10    5   12 1
    11    9   10 2
    12    9   11 1
    13    9   12 1
    14    9   13 1
    15   11   34 1
    16   13   14 1
    17   14   15 1
    18   14   35 1
    19   14   36 1
    20   15   16 1
    21   15   17 1
    22   15   37 1
    23   16   21 1
    24   17   18 1
    25   17   19 1
    26   17   38 1
    27   18   39 1
    28   19   20 1
    29   19   21 1
    30   19   40 1
    31   20   41 1
    32   21   22 1
    33   21   42 1
    34   22   23 ar
    35   22   31 ar
    36   23   24 ar
    37   23   43 1
    38   24   25 ar
    39   24   47 1
    40   25   26 ar
    41   25   31 ar
    42   26   27 1
    43   26   28 ar
    44   27   44 1
    45   27   45 1
    46   28   29 ar
    47   29   30 ar
    48   29   46 1
    49   30   31 ar
@<TRIPOS>SUBSTRUCTURE
     1 ATP         1 GROUP 0 A     ****
@<TRIPOS>MOLECULE
[[5-(6-amino-7,8-dihydropurin-8-ylium-9-yl)-3,4-dihydroxy-tetrahydrofuran-2-yl]methoxy-hydroxy-phosphoryl] phosphono phosphate
   47    49     1     0     0
SMALL
USER_CHARGES

@<TRIPOS>ATOM
      1 PG          1.9597    4.3417   -7.1908 P.3       1 ATP         1.7526
      2 O1G         1.2585    5.6346   -6.8959 O.2       1 ATP        -0.8534
      3 O2G         1.2975    3.4472   -8.3625 O.3       1 ATP        -0.7661
      4 O3G         3.5030    4.4832   -7.6492 O.3       1 ATP        -0.7661
      5 PB          0.8540    2.6217   -5.0648 P.3       1 ATP         1.6631
      6 O1B         0.1264    3.6959   -4.2874 O.co2     1 ATP        -0.8211
      7 O2B         0.1038    1.6537   -5.9524 O.co2     1 ATP        -0.8211
      8 O3B         2.0405    3.3207   -5.9399 O.3       1 ATP        -0.7954
      9 PA          2.8824    0.6133   -4.3155 P.3       1 ATP         1.7782
     10 O1A         4.0330    1.0401   -5.1801 O.2       1 ATP        -0.8134
     11 O2A         2.0103   -0.6089   -4.9179 O.3       1 ATP        -0.8257
     12 O3A         1.7870    1.7692   -4.0334 O.3       1 ATP        -0.8063
     13 O5'         3.2874    0.1331   -2.8242 O.3       1 ATP        -0.5763
     14 C5'         2.2816   -0.2918   -1.9206 C.3       1 ATP         0.1790
     15 C4'         2.7248    0.0226   -0.4980 C.3       1 ATP         0.1339
     16 O4'         2.4697    1.4219   -0.2462 O.3       1 ATP        -0.4040
     17 C3'         1.9404   -0.7419    0.5596 C.3       1 ATP         0.0906
     18 O3'         2.7418   -0.8086    1.7389 O.3       1 ATP        -0.5689
     19 C2'         0.7477    0.1630    0.7858 C.3       1 ATP         0.0660
     20 O2'         0.1373   -0.0577    2.0407 O.3       1 ATP        -0.5800
     21 C1'         1.3733    1.5427    0.6747 C.3       1 ATP         0.4216
     22 N9          0.4520    2.5240    0.1767 N.pl3     1 ATP        -0.5455
     23 C8         -0.8602    2.5861    0.3496 C.ar      1 ATP         0.2820
     24 N7         -1.4308    3.6326   -0.2443 N.pl3     1 ATP        -0.4970
     25 C5         -0.4080    4.2856   -0.8394 C.ar      1 ATP        -0.2773
     26 C6         -0.3432    5.4196   -1.5943 C.ar      1 ATP         0.7637
     27 N6         -1.5276    6.1333   -1.8702 N.pl3     1 ATP        -0.9374
     28 N1          0.8395    5.8603   -2.0764 N.ar      1 ATP        -0.7408
     29 C2          1.9319    5.1095   -1.7617 C.ar      1 ATP         0.7215
     30 N3          1.9773    3.9761   -1.0249 N.ar      1 ATP        -0.6797
     31 C4          0.7724    3.6031   -0.5836 C.ar      1 ATP         0.6429
     32 HOG2        0.3733    3.1361   -8.2577 H         1 ATP         0.4781
     33 HOG3        3.7125    4.9969   -8.4582 H         1 ATP         0.4781
     34 HOA2        2.4529   -1.4670   -5.0909 H         1 ATP         0.4931
     35 H5'1        1.3494    0.2322   -2.1552 H         1 ATP         0.0438
     36 H5'2        2.1260   -1.3686   -2.0435 H         1 ATP         0.0438
     37 H4'         3.8049   -0.1388   -0.4009 H         1 ATP         0.1278
     38 H3'         1.6783   -1.7629    0.2715 H         1 ATP         0.1161
     39 HO3'        2.2232   -1.2979    2.3953 H         1 ATP         0.4111
     40 H2'        -0.0011    0.0027    0.0003 H         1 ATP         0.0477
     41 HO2'       -0.1563   -0.9855    2.0596 H         1 ATP         0.4259
     42 H1'         1.7826    1.9024    1.6451 H         1 ATP         0.1524
     43 H8         -1.4217    1.8638    0.9164 H         1 ATP         0.2610
     44 HN61       -2.4023    5.7711   -1.5477 H         1 ATP         0.4534
     45 HN62       -1.4857    6.9379   -2.4627 H         1 ATP         0.4534
     46 H2          2.8789    5.4660   -2.1503 H         1 ATP         0.0900
     47 H47        -2.4129    3.8706   -0.2402 H         1 ATP         0.5046
@<TRIPOS>BOND
     1    1    2 2
     2    1    3 1
     3    1    4 1
     4    1    8 1
     5    3   32 1
     6    4   33 1
     7    5    6 2
     8    5    7 1
     9    5    8 1
    10    5   12 1
    11    9   10 2
    12    9   11 1
    13    9   12 1
    14    9   13 1
    15   11   34 1
    16   13   14 1
    17   14   15 1
    18   14   35 1
    19   14   36 1
    20   15   16 1
    21   15   17 1
    22   15   37 1
    23   16   21 1
    24   17   18 1
    25   17   19 1
    26   17   38 1
    27   18   39 1
    28   19   20 1
    29   19   21 1
    30   19   40 1
    31   20   41 1
    32   21   22 1
    33   21   42 1
    34   22   23 ar
    35   22   31 ar
    36   23   24 ar
    37   23   43 1
    38   24   25 ar
    39   24   47 1
    40   25   26 ar
    41   25   31 ar
    42   26   27 1
    43   26   28 ar
    44   27   44 1
    45   27   45 1
    46   28   29 ar
    47   29   30 ar
    48   29   46 1
    49   30   31 ar
@<TRIPOS>SUBSTRUCTURE
     1 ATP         1 GROUP 0 A     ****
@<TRIPOS>MOLECULE
[[5-(6-amino-7,8-dihydropurin-8-ylium-9-yl)-3,4-dihydroxy-tetrahydrofuran-2-yl]methoxy-hydroxy-phosphoryl] phosphono phosphate
   47    49     1     0     0
SMALL
USER_CHARGES

@<TRIPOS>ATOM
      1 PG          3.7535   -3.5187   -7.9844 P.3       1 ATP         1.7526
      2 O1G         2.5536   -3.6476   -8.8756 O.2       1 ATP        -0.8534
      3 O2G         4.4280   -4.9140   -7.5263 O.3       1 ATP        -0.7661
      4 O3G         4.9906   -2.6876   -8.6095 O.3       1 ATP        -0.7661
      5 PB          2.9340   -1.2493   -6.2876 P.3       1 ATP         1.6631
      6 O1B         3.9852   -0.2614   -6.7420 O.co2     1 ATP        -0.8211
      7 O2B         1.5022   -1.1430   -6.7633 O.co2     1 ATP        -0.8211
      8 O3B         3.4721   -2.7608   -6.5843 O.3       1 ATP        -0.7954
      9 PA          2.1463   -2.2799   -3.6368 P.3       1 ATP         1.7782
     10 O1A         2.4483   -3.7410   -3.8024 O.2       1 ATP        -0.8134
     11 O2A         0.5922   -1.8888   -3.8580 O.3       1 ATP        -0.8257
     12 O3A         2.9399   -1.3083   -4.6574 O.3       1 ATP        -0.8063
     13 O5'         2.5233   -1.6622   -2.1894 O.3       1 ATP        -0.5763
     14 C5'         2.2816   -0.2918   -1.9206 C.3       1 ATP         0.1790
     15 C4'         2.7248    0.0226   -0.4980 C.3       1 ATP         0.1339
     16 O4'         2.4697    1.4219   -0.2462 O.3       1 ATP        -0.4040
     17 C3'         1.9404   -0.7419    0.5596 C.3       1 ATP         0.0906
     18 O3'         2.7418   -0.8086    1.7389 O.3       1 ATP        -0.5689
     19 C2'         0.7477    0.1630    0.7858 C.3       1 ATP         0.0660
     20 O2'         0.1373   -0.0577    2.0407 O.3       1 ATP        -0.5800
     21 C1'         1.3733    1.5427    0.6747 C.3       1 ATP         0.4216
     22 N9          0.4520    2.5240    0.1767 N.pl3     1 ATP        -0.5455
     23 C8         -0.2172    2.5216   -0.9668 C.ar      1 ATP         0.2820
     24 N7         -1.0011    3.5855   -1.1321 N.pl3     1 ATP        -0.4970
     25 C5         -0.8184    4.3200   -0.0123 C.ar      1 ATP        -0.2773
     26 C6         -1.3349    5.5079    0.4144 C.ar      1 ATP         0.7637
     27 N6         -2.2567    6.1930   -0.4036 N.pl3     1 ATP        -0.9374
     28 N1         -0.9716    6.0291    1.6069 N.ar      1 ATP        -0.7408
     29 C2         -0.0765    5.3009    2.3312 C.ar      1 ATP         0.7215
     30 N3          0.4933    4.1191    2.0023 N.ar      1 ATP        -0.6797
     31 C4          0.0865    3.6675    0.8123 C.ar      1 ATP         0.6429
     32 HOG2        3.8894   -5.5577   -7.0187 H         1 ATP         0.4781
     33 HOG3        4.8507   -1.7521   -8.8692 H         1 ATP         0.4781
     34 HOA2        0.1748   -2.0769   -4.7254 H         1 ATP         0.4931
     35 H5'1        2.8428    0.3150   -2.6387 H         1 ATP         0.0438
     36 H5'2        1.2124   -0.0896   -2.0417 H         1 ATP         0.0438
     37 H4'         3.8049   -0.1388   -0.4009 H         1 ATP         0.1278
     38 H3'         1.6783   -1.7629    0.2715 H         1 ATP         0.1161
     39 HO3'        3.5554   -1.2733    1.4914 H         1 ATP         0.4111
     40 H2'        -0.0011    0.0027    0.0003 H         1 ATP         0.0477
     41 HO2'       -0.1563   -0.9855    2.0596 H         1 ATP         0.4259
     42 H1'         1.7826    1.9024    1.6451 H         1 ATP         0.1524
     43 H8         -0.1423    1.7373   -1.6999 H         1 ATP         0.2610
     44 HN61       -2.6706    7.0399   -0.0694 H         1 ATP         0.4534
     45 HN62       -2.5527    5.7740   -1.2621 H         1 ATP         0.4534
     46 H2          0.2128    5.7222    3.2871 H         1 ATP         0.0900
     47 H47        -1.5947    3.7835   -1.9255 H         1 ATP         0.5046
@<TRIPOS>BOND
     1    1    2 2
     2    1    3 1
     3    1    4 1
     4    1    8 1
     5    3   32 1
     6    4   33 1
     7    5    6 2
     8    5    7 1
     9    5    8 1
    10    5   12 1
    11    9   10 2
    12    9   11 1
    13    9   12 1
    14    9   13 1
    15   11   34 1
    16   13   14 1
    17   14   15 1
    18   14   35 1
    19   14   36 1
    20   15   16 1
    21   15   17 1
    22   15   37 1
    23   16   21 1
    24   17   18 1
    25   17   19 1
    26   17   38 1
    27   18   39 1
    28   19   20 1
    29   19   21 1
    30   19   40 1
    31   20   41 1
    32   21   22 1
    33   21   42 1
    34   22   23 ar
    35   22   31 ar
    36   23   24 ar
    37   23   43 1
    38   24   25 ar
    39   24   47 1
    40   25   26 ar
    41   25   31 ar
    42   26   27 1
    43   26   28 ar
    44   27   44 1
    45   27   45 1
    46   28   29 ar
    47   29   30 ar
    48   29   46 1
    49   30   31 ar
@<TRIPOS>SUBSTRUCTURE
     1 ATP         1 GROUP 0 A     ****
@<TRIPOS>MOLECULE
[[5-(6-amino-7,8-dihydropurin-8-ylium-9-yl)-3,4-dihydroxy-tetrahydrofuran-2-yl]methoxy-hydroxy-phosphoryl] phosphono phosphate
   47    49     1     0     0
SMALL
USER_CHARGES

@<TRIPOS>ATOM
      1 PG         -1.4812    3.1964   -5.1712 P.3       1 ATP         1.7526
      2 O1G        -1.7929    3.9413   -3.9069 O.2       1 ATP        -0.8534
      3 O2G        -2.7167    2.3766   -5.8137 O.3       1 ATP        -0.7661
      4 O3G        -0.9542    4.1086   -6.3968 O.3       1 ATP        -0.7661
      5 PB          1.2378    2.2201   -4.5753 P.3       1 ATP         1.6631
      6 O1B         1.9767    3.0069   -5.6347 O.co2     1 ATP        -0.8211
      7 O2B         1.2885    2.6277   -3.1196 O.co2     1 ATP        -0.8211
      8 O3B        -0.3245    2.0765   -5.0234 O.3       1 ATP        -0.7954
      9 PA          3.0839   -0.0768   -4.4158 P.3       1 ATP         1.7782
     10 O1A         4.2162    0.4129   -5.2713 O.2       1 ATP        -0.8134
     11 O2A         2.7515   -1.6512   -4.5832 O.3       1 ATP        -0.8257
     12 O3A         1.6665    0.6506   -4.6937 O.3       1 ATP        -0.8063
     13 O5'         3.2874    0.1331   -2.8242 O.3       1 ATP        -0.5763
     14 C5'         2.2816   -0.2918   -1.9206 C.3       1 ATP         0.1790
     15 C4'         2.7248    0.0226   -0.4980 C.3       1 ATP         0.1339
     16 O4'         2.4697    1.4219   -0.2462 O.3       1 ATP        -0.4040
     17 C3'         1.9404   -0.7419    0.5596 C.3       1 ATP         0.0906
     18 O3'         2.7418   -0.8086    1.7389 O.3       1 ATP        -0.5689
     19 C2'         0.7477    0.1630    0.7858 C.3       1 ATP         0.0660
     20 O2'         0.1373   -0.0577    2.0407 O.3       1 ATP        -0.5800
     21 C1'         1.3733    1.5427    0.6747 C.3       1 ATP         0.4216
     22 N9          0.4520    2.5240    0.1767 N.pl3     1 ATP        -0.5455
     23 C8         -0.8252    2.3702   -0.1405 C.ar      1 ATP         0.2820
     24 N7         -1.4086    3.4861   -0.5739 N.pl3     1 ATP        -0.4970
     25 C5         -0.4324    4.4197   -0.5299 C.ar      1 ATP        -0.2773
     26 C6         -0.4006    5.7465   -0.8439 C.ar      1 ATP         0.7637
     27 N6         -1.5714    6.3708   -1.3211 N.pl3     1 ATP        -0.9374
     28 N1          0.7370    6.4615   -0.7020 N.ar      1 ATP        -0.7408
     29 C2          1.8196    5.7785   -0.2355 C.ar      1 ATP         0.7215
     30 N3          1.8948    4.4713    0.1036 N.ar      1 ATP        -0.6797
     31 C4          0.7337    3.8311   -0.0629 C.ar      1 ATP         0.6429
     32 HOG2       -3.5232    2.8662   -6.0820 H         1 ATP         0.4781
     33 HOG3       -0.1315    4.6301   -6.2808 H         1 ATP         0.4781
     34 HOA2        3.4501   -2.3079   -4.3764 H         1 ATP         0.4931
     35 H5'1        1.3494    0.2322   -2.1552 H         1 ATP         0.0438
     36 H5'2        2.1260   -1.3686   -2.0435 H         1 ATP         0.0438
     37 H4'         3.8049   -0.1388   -0.4009 H         1 ATP         0.1278
     38 H3'         1.6783   -1.7629    0.2715 H         1 ATP         0.1161
     39 HO3'        2.2232   -1.2979    2.3953 H         1 ATP         0.4111
     40 H2'        -0.0011    0.0027    0.0003 H         1 ATP         0.0477
     41 HO2'       -0.1563   -0.9855    2.0596 H         1 ATP         0.4259
     42 H1'         1.7826    1.9024    1.6451 H         1 ATP         0.1524
     43 H8         -1.3516    1.4351   -0.0582 H         1 ATP         0.2610
     44 HN61       -2.3936    5.8204   -1.4664 H         1 ATP         0.4534
     45 HN62       -1.5348    7.3319   -1.5955 H         1 ATP         0.4534
     46 H2          2.7305    6.3553   -0.1232 H         1 ATP         0.0900
     47 H47        -2.3700    3.5931   -0.8665 H         1 ATP         0.5046
@<TRIPOS>BOND
     1    1    2 2
     2    1    3 1
     3    1    4 1
     4    1    8 1
     5    3   32 1
     6    4   33 1
     7    5    6 2
     8    5    7 1
     9    5    8 1
    10    5   12 1
    11    9   10 2
    12    9   11 1
    13    9   12 1
    14    9   13 1
    15   11   34 1
    16   13   14 1
    17   14   15 1
    18   14   35 1
    19   14   36 1
    20   15   16 1
    21   15   17 1
    22   15   37 1
    23   16   21 1
    24   17   18 1
    25   17   19 1
    26   17   38 1
    27   18   39 1
    28   19   20 1
    29   19   21 1
    30   19   40 1
    31   20   41 1
    32   21   22 1
    33   21   42 1
    34   22   23 ar
    35   22   31 ar
    36   23   24 ar
    37   23   43 1
    38   24   25 ar
    39   24   47 1
    40   25   26 ar
    41   25   31 ar
    42   26   27 1
    43   26   28 ar
    44   27   44 1
    45   27   45 1
    46   28   29 ar
    47   29   30 ar
    48   29   46 1
    49   30   31 ar
@<TRIPOS>SUBSTRUCTURE
     1 ATP         1 GROUP 0 A     ****
@<TRIPOS>MOLECULE
[[5-(6-amino-7,8-dihydropurin-8-ylium-9-yl)-3,4-dihydroxy-tetrahydrofuran-2-yl]methoxy-hydroxy-phosphoryl] phosphono phosphate
   47    49     1     0     0
SMALL
USER_CHARGES

@<TRIPOS>ATOM
      1 PG          6.7631   -1.4115   -6.1908 P.3       1 ATP         1.7526
      2 O1G         7.8028   -1.0664   -5.1659 O.2       1 ATP        -0.8534
      3 O2G         6.7616   -0.4840   -7.5141 O.3       1 ATP        -0.7661
      4 O3G         6.8488   -2.9134   -6.7814 O.3       1 ATP        -0.7661
      5 PB          4.4065   -0.0426   -5.0622 P.3       1 ATP         1.6631
      6 O1B         5.0136    0.3536   -3.7349 O.co2     1 ATP        -0.8211
      7 O2B         4.2090    0.9717   -6.1667 O.co2     1 ATP        -0.8211
      8 O3B         5.2387   -1.3117   -5.6613 O.3       1 ATP        -0.7954
      9 PA          2.6324   -2.0580   -3.8373 P.3       1 ATP         1.7782
     10 O1A         3.3649   -3.3226   -4.1804 O.2       1 ATP        -0.8134
     11 O2A         1.0213   -2.1722   -3.9291 O.3       1 ATP        -0.8257
     12 O3A         2.9865   -0.7963   -4.7851 O.3       1 ATP        -0.8063
     13 O5'         2.9195   -1.4814   -2.3528 O.3       1 ATP        -0.5763
     14 C5'         2.2816   -0.2918   -1.9206 C.3       1 ATP         0.1790
     15 C4'         2.7248    0.0226   -0.4980 C.3       1 ATP         0.1339
     16 O4'         2.4697    1.4219   -0.2462 O.3       1 ATP        -0.4040
     17 C3'         1.9404   -0.7419    0.5596 C.3       1 ATP         0.0906
     18 O3'         2.7418   -0.8086    1.7389 O.3       1 ATP        -0.5689
     19 C2'         0.7477    0.1630    0.7858 C.3       1 ATP         0.0660
     20 O2'         0.1373   -0.0577    2.0407 O.3       1 ATP        -0.5800
     21 C1'         1.3733    1.5427    0.6747 C.3       1 ATP         0.4216
     22 N9          0.4520    2.5240    0.1767 N.pl3     1 ATP        -0.5455
     23 C8         -0.2172    2.5216   -0.9668 C.ar      1 ATP         0.2820
     24 N7         -1.0011    3.5855   -1.1321 N.pl3     1 ATP        -0.4970
     25 C5         -0.8184    4.3200   -0.0123 C.ar      1 ATP        -0.2773
     26 C6         -1.3349    5.5079    0.4144 C.ar      1 ATP         0.7637
     27 N6         -2.2567    6.1930   -0.4036 N.pl3     1 ATP        -0.9374
     28 N1         -0.9716    6.0291    1.6069 N.ar      1 ATP        -0.7408
     29 C2         -0.0765    5.3009    2.3312 C.ar      1 ATP         0.7215
     30 N3          0.4933    4.1191    2.0023 N.ar      1 ATP        -0.6797
     31 C4          0.0865    3.6675    0.8123 C.ar      1 ATP         0.6429
     32 HOG2        6.6128    0.4807   -7.4178 H         1 ATP         0.4781
     33 HOG3        7.6665   -3.1953   -7.2441 H         1 ATP         0.4781
     34 HOA2        0.5592   -2.8251   -3.3615 H         1 ATP         0.4931
     35 H5'1        2.5577    0.5244   -2.5962 H         1 ATP         0.0438
     36 H5'2        1.1970   -0.4361   -1.9603 H         1 ATP         0.0438
     37 H4'         3.8049   -0.1388   -0.4009 H         1 ATP         0.1278
     38 H3'         1.6783   -1.7629    0.2715 H         1 ATP         0.1161
     39 HO3'        2.2232   -1.2979    2.3953 H         1 ATP         0.4111
     40 H2'        -0.0011    0.0027    0.0003 H         1 ATP         0.0477
     41 HO2'       -0.6141    0.5574    2.1082 H         1 ATP         0.4259
     42 H1'         1.7826    1.9024    1.6451 H         1 ATP         0.1524
     43 H8         -0.1423    1.7373   -1.6999 H         1 ATP         0.2610
     44 HN61       -2.4811    5.8206   -1.3042 H         1 ATP         0.4534
     45 HN62       -2.5986    7.0863   -0.1113 H         1 ATP         0.4534
     46 H2          0.2128    5.7222    3.2871 H         1 ATP         0.0900
     47 H47        -1.5947    3.7835   -1.9255 H         1 ATP         0.5046
@<TRIPOS>BOND
     1    1    2 2
     2    1    3 1
     3    1    4 1
     4    1    8 1
     5    3   32 1
     6    4   33 1
     7    5    6 2
     8    5    7 1
     9    5    8 1
    10    5   12 1
    11    9   10 2
    12    9   11 1
    13    9   12 1
    14    9   13 1
    15   11   34 1
    16   13   14 1
    17   14   15 1
    18   14   35 1
    19   14   36 1
    20   15   16 1
    21   15   17 1
    22   15   37 1
    23   16   21 1
    24   17   18 1
    25   17   19 1
    26   17   38 1
    27   18   39 1
    28   19   20 1
    29   19   21 1
    30   19   40 1
    31   20   41 1
    32   21   22 1
    33   21   42 1
    34   22   23 ar
    35   22   31 ar
    36   23   24 ar
    37   23   43 1
    38   24   25 ar
    39   24   47 1
    40   25   26 ar
    41   25   31 ar
    42   26   27 1
    43   26   28 ar
    44   27   44 1
    45   27   45 1
    46   28   29 ar
    47   29   30 ar
    48   29   46 1
    49   30   31 ar
@<TRIPOS>SUBSTRUCTURE
     1 ATP         1 GROUP 0 A     ****
@<TRIPOS>MOLECULE
[[5-(6-amino-7,8-dihydropurin-8-ylium-9-yl)-3,4-dihydroxy-tetrahydrofuran-2-yl]methoxy-hydroxy-phosphoryl] phosphono phosphate
   47    49     1     0     0
SMALL
USER_CHARGES

@<TRIPOS>ATOM
      1 PG         -1.1012    1.3656   -6.8816 P.3       1 ATP         1.7526
      2 O1G        -2.3404    2.1355   -6.5323 O.2       1 ATP        -0.8534
      3 O2G        -1.3236   -0.2082   -7.1734 O.3       1 ATP        -0.7661
      4 O3G        -0.3130    1.8859   -8.1931 O.3       1 ATP        -0.7661
      5 PB          0.8540    2.6217   -5.0648 P.3       1 ATP         1.6631
      6 O1B         1.7407    3.2490   -6.1172 O.co2     1 ATP        -0.8211
      7 O2B        -0.1183    3.4565   -4.2614 O.co2     1 ATP        -0.8211
      8 O3B         0.0416    1.3771   -5.7379 O.3       1 ATP        -0.7954
      9 PA          2.8824    0.6133   -4.3155 P.3       1 ATP         1.7782
     10 O1A         4.0330    1.0401   -5.1801 O.2       1 ATP        -0.8134
     11 O2A         2.0103   -0.6089   -4.9179 O.3       1 ATP        -0.8257
     12 O3A         1.7870    1.7692   -4.0334 O.3       1 ATP        -0.8063
     13 O5'         3.2874    0.1331   -2.8242 O.3       1 ATP        -0.5763
     14 C5'         2.2816   -0.2918   -1.9206 C.3       1 ATP         0.1790
     15 C4'         2.7248    0.0226   -0.4980 C.3       1 ATP         0.1339
     16 O4'         2.4697    1.4219   -0.2462 O.3       1 ATP        -0.4040
     17 C3'         1.9404   -0.7419    0.5596 C.3       1 ATP         0.0906
     18 O3'         2.7418   -0.8086    1.7389 O.3       1 ATP        -0.5689
     19 C2'         0.7477    0.1630    0.7858 C.3       1 ATP         0.0660
     20 O2'         0.1373   -0.0577    2.0407 O.3       1 ATP        -0.5800
     21 C1'         1.3733    1.5427    0.6747 C.3       1 ATP         0.4216
     22 N9          0.4520    2.5240    0.1767 N.pl3     1 ATP        -0.5455
     23 C8         -0.8602    2.5861    0.3496 C.ar      1 ATP         0.2820
     24 N7         -1.4308    3.6326   -0.2443 N.pl3     1 ATP        -0.4970
     25 C5         -0.4080    4.2856   -0.8394 C.ar      1 ATP        -0.2773
     26 C6         -0.3432    5.4196   -1.5943 C.ar      1 ATP         0.7637
     27 N6         -1.5276    6.1333   -1.8702 N.pl3     1 ATP        -0.9374
     28 N1          0.8395    5.8603   -2.0764 N.ar      1 ATP        -0.7408
     29 C2          1.9319    5.1095   -1.7617 C.ar      1 ATP         0.7215
     30 N3          1.9773    3.9761   -1.0249 N.ar      1 ATP        -0.6797
     31 C4          0.7724    3.6031   -0.5836 C.ar      1 ATP         0.6429
     32 HOG2       -1.6990   -0.7740   -6.4655 H         1 ATP         0.4781
     33 HOG3        0.0291    2.8052   -8.2076 H         1 ATP         0.4781
     34 HOA2        1.5693   -0.4938   -5.7864 H         1 ATP         0.4931
     35 H5'1        1.3494    0.2322   -2.1552 H         1 ATP         0.0438
     36 H5'2        2.1260   -1.3686   -2.0435 H         1 ATP         0.0438
     37 H4'         3.8049   -0.1388   -0.4009 H         1 ATP         0.1278
     38 H3'         1.6783   -1.7629    0.2715 H         1 ATP         0.1161
     39 HO3'        3.5554   -1.2733    1.4914 H         1 ATP         0.4111
     40 H2'        -0.0011    0.0027    0.0003 H         1 ATP         0.0477
     41 HO2'       -0.1563   -0.9855    2.0596 H         1 ATP         0.4259
     42 H1'         1.7826    1.9024    1.6451 H         1 ATP         0.1524
     43 H8         -1.4217    1.8638    0.9164 H         1 ATP         0.2610
     44 HN61       -2.4023    5.7711   -1.5477 H         1 ATP         0.4534
     45 HN62       -1.4857    6.9379   -2.4627 H         1 ATP         0.4534
     46 H2          2.8789    5.4660   -2.1503 H         1 ATP         0.0900
     47 H47        -2.4129    3.8706   -0.2402 H         1 ATP         0.5046
@<TRIPOS>BOND
     1    1    2 2
     2    1    3 1
     3    1    4 1
     4    1    8 1
     5    3   32 1
     6    4   33 1
     7    5    6 2
     8    5    7 1
     9    5    8 1
    10    5   12 1
    11    9   10 2
    12    9   11 1
    13    9   12 1
    14    9   13 1
    15   11   34 1
    16   13   14 1
    17   14   15 1
    18   14   35 1
    19   14   36 1
    20   15   16 1
    21   15   17 1
    22   15   37 1
    23   16   21 1
    24   17   18 1
    25   17   19 1
    26   17   38 1
    27   18   39 1
    28   19   20 1
    29   19   21 1
    30   19   40 1
    31   20   41 1
    32   21   22 1
    33   21   42 1
    34   22   23 ar
    35   22   31 ar
    36   23   24 ar
    37   23   43 1
    38   24   25 ar
    39   24   47 1
    40   25   26 ar
    41   25   31 ar
    42   26   27 1
    43   26   28 ar
    44   27   44 1
    45   27   45 1
    46   28   29 ar
    47   29   30 ar
    48   29   46 1
    49   30   31 ar
@<TRIPOS>SUBSTRUCTURE
     1 ATP         1 GROUP 0 A     ****
@<TRIPOS>MOLECULE
[[5-(6-amino-7,8-dihydropurin-8-ylium-9-yl)-3,4-dihydroxy-tetrahydrofuran-2-yl]methoxy-hydroxy-phosphoryl] phosphono phosphate
   47    49     1     0     0
SMALL
USER_CHARGES

@<TRIPOS>ATOM
      1 PG          2.5203    4.3628   -6.1454 P.3       1 ATP         1.7526
      2 O1G         1.3186    5.0071   -6.7709 O.2       1 ATP        -0.8534
      3 O2G         3.8232    4.2595   -7.0958 O.3       1 ATP        -0.7661
      4 O3G         3.0790    5.0909   -4.8152 O.3       1 ATP        -0.7661
      5 PB          1.2378    2.2201   -4.5753 P.3       1 ATP         1.6631
      6 O1B         1.6089    2.7227   -3.1980 O.co2     1 ATP        -0.8211
      7 O2B        -0.1658    2.3810   -5.1154 O.co2     1 ATP        -0.8211
      8 O3B         2.2887    2.8382   -5.6596 O.3       1 ATP        -0.7954
      9 PA          3.0839   -0.0768   -4.4158 P.3       1 ATP         1.7782
     10 O1A         4.2162    0.4129   -5.2713 O.2       1 ATP        -0.8134
     11 O2A         2.7515   -1.6512   -4.5832 O.3       1 ATP        -0.8257
     12 O3A         1.6665    0.6506   -4.6937 O.3       1 ATP        -0.8063
     13 O5'         3.2874    0.1331   -2.8242 O.3       1 ATP        -0.5763
     14 C5'         2.2816   -0.2918   -1.9206 C.3       1 ATP         0.1790
     15 C4'         2.7248    0.0226   -0.4980 C.3       1 ATP         0.1339
     16 O4'         2.4697    1.4219   -0.2462 O.3       1 ATP        -0.4040
     17 C3'         1.9404   -0.7419    0.5596 C.3       1 ATP         0.0906
     18 O3'         2.7418   -0.8086    1.7389 O.3       1 ATP        -0.5689
     19 C2'         0.7477    0.1630    0.7858 C.3       1 ATP         0.0660
     20 O2'         0.1373   -0.0577    2.0407 O.3       1 ATP        -0.5800
     21 C1'         1.3733    1.5427    0.6747 C.3       1 ATP         0.4216
     22 N9          0.4520    2.5240    0.1767 N.pl3     1 ATP        -0.5455
     23 C8         -0.2172    2.5216   -0.9668 C.ar      1 ATP         0.2820
     24 N7         -1.0011    3.5855   -1.1321 N.pl3     1 ATP        -0.4970
     25 C5         -0.8184    4.3200   -0.0123 C.ar      1 ATP        -0.2773
     26 C6         -1.3349    5.5079    0.4144 C.ar      1 ATP         0.7637
     27 N6         -2.2567    6.1930   -0.4036 N.pl3     1 ATP        -0.9374
     28 N1         -0.9716    6.0291    1.6069 N.ar      1 ATP        -0.7408
     29 C2         -0.0765    5.3009    2.3312 C.ar      1 ATP         0.7215
     30 N3          0.4933    4.1191    2.0023 N.ar      1 ATP        -0.6797
     31 C4          0.0865    3.6675    0.8123 C.ar      1 ATP         0.6429
     32 HOG2        4.2192    5.0840   -7.4499 H         1 ATP         0.4781
     33 HOG3        2.4879    5.1763   -4.0370 H         1 ATP         0.4781
     34 HOA2        2.4892   -1.9892   -5.4658 H         1 ATP         0.4931
     35 H5'1        1.3494    0.2322   -2.1552 H         1 ATP         0.0438
     36 H5'2        2.1260   -1.3686   -2.0435 H         1 ATP         0.0438
     37 H4'         3.8049   -0.1388   -0.4009 H         1 ATP         0.1278
     38 H3'         1.6783   -1.7629    0.2715 H         1 ATP         0.1161
     39 HO3'        3.5554   -1.2733    1.4914 H         1 ATP         0.4111
     40 H2'        -0.0011    0.0027    0.0003 H         1 ATP         0.0477
     41 HO2'       -0.1563   -0.9855    2.0596 H         1 ATP         0.4259
     42 H1'         1.7826    1.9024    1.6451 H         1 ATP         0.1524
     43 H8         -0.1423    1.7373   -1.6999 H         1 ATP         0.2610
     44 HN61       -2.4811    5.8206   -1.3042 H         1 ATP         0.4534
     45 HN62       -2.5986    7.0863   -0.1113 H         1 ATP         0.4534
     46 H2          0.2128    5.7222    3.2871 H         1 ATP         0.0900
     47 H47        -1.5947    3.7835   -1.9255 H         1 ATP         0.5046
@<TRIPOS>BOND
     1    1    2 2
     2    1    3 1
     3    1    4 1
     4    1    8 1
     5    3   32 1
     6    4   33 1
     7    5    6 2
     8    5    7 1
     9    5    8 1
    10    5   12 1
    11    9   10 2
    12    9   11 1
    13    9   12 1
    14    9   13 1
    15   11   34 1
    16   13   14 1
    17   14   15 1
    18   14   35 1
    19   14   36 1
    20   15   16 1
    21   15   17 1
    22   15   37 1
    23   16   21 1
    24   17   18 1
    25   17   19 1
    26   17   38 1
    27   18   39 1
    28   19   20 1
    29   19   21 1
    30   19   40 1
    31   20   41 1
    32   21   22 1
    33   21   42 1
    34   22   23 ar
    35   22   31 ar
    36   23   24 ar
    37   23   43 1
    38   24   25 ar
    39   24   47 1
    40   25   26 ar
    41   25   31 ar
    42   26   27 1
    43   26   28 ar
    44   27   44 1
    45   27   45 1
    46   28   29 ar
    47   29   30 ar
    48   29   46 1
    49   30   31 ar
@<TRIPOS>SUBSTRUCTURE
     1 ATP         1 GROUP 0 A     ****
@<TRIPOS>MOLECULE
[[5-(6-amino-7,8-dihydropurin-8-ylium-9-yl)-3,4-dihydroxy-tetrahydrofuran-2-yl]methoxy-hydroxy-phosphoryl] phosphono phosphate
   47    49     1     0     0
SMALL
USER_CHARGES

@<TRIPOS>ATOM
      1 PG          7.1961    0.7747   -5.8849 P.3       1 ATP         1.7526
      2 O1G         8.2202   -0.1697   -6.4416 O.2       1 ATP        -0.8534
      3 O2G         7.7643    1.8821   -4.8542 O.3       1 ATP        -0.7661
      4 O3G         6.3994    1.6533   -6.9828 O.3       1 ATP        -0.7661
      5 PB          4.9097   -1.0521   -5.5162 P.3       1 ATP         1.6631
      6 O1B         3.9780   -0.4241   -6.5285 O.co2     1 ATP        -0.8211
      7 O2B         5.6312   -2.3476   -5.8142 O.co2     1 ATP        -0.8211
      8 O3B         6.0075    0.0622   -5.0522 O.3       1 ATP        -0.7954
      9 PA          2.8565   -2.1425   -3.6983 P.3       1 ATP         1.7782
     10 O1A         3.0938   -3.6162   -3.8583 O.2       1 ATP        -0.8134
     11 O2A         1.6409   -1.5597   -4.5927 O.3       1 ATP        -0.8257
     12 O3A         4.1154   -1.2102   -4.1001 O.3       1 ATP        -0.8063
     13 O5'         2.5233   -1.6622   -2.1894 O.3       1 ATP        -0.5763
     14 C5'         2.2816   -0.2918   -1.9206 C.3       1 ATP         0.1790
     15 C4'         2.7248    0.0226   -0.4980 C.3       1 ATP         0.1339
     16 O4'         2.4697    1.4219   -0.2462 O.3       1 ATP        -0.4040
     17 C3'         1.9404   -0.7419    0.5596 C.3       1 ATP         0.0906
     18 O3'         2.7418   -0.8086    1.7389 O.3       1 ATP        -0.5689
     19 C2'         0.7477    0.1630    0.7858 C.3       1 ATP         0.0660
     20 O2'         0.1373   -0.0577    2.0407 O.3       1 ATP        -0.5800
     21 C1'         1.3733    1.5427    0.6747 C.3       1 ATP         0.4216
     22 N9          0.4520    2.5240    0.1767 N.pl3     1 ATP        -0.5455
     23 C8         -0.2172    2.5216   -0.9668 C.ar      1 ATP         0.2820
     24 N7         -1.0011    3.5855   -1.1321 N.pl3     1 ATP        -0.4970
     25 C5         -0.8184    4.3200   -0.0123 C.ar      1 ATP        -0.2773
     26 C6         -1.3349    5.5079    0.4144 C.ar      1 ATP         0.7637
     27 N6         -2.2567    6.1930   -0.4036 N.pl3     1 ATP        -0.9374
     28 N1         -0.9716    6.0291    1.6069 N.ar      1 ATP        -0.7408
     29 C2         -0.0765    5.3009    2.3312 C.ar      1 ATP         0.7215
     30 N3          0.4933    4.1191    2.0023 N.ar      1 ATP        -0.6797
     31 C4          0.0865    3.6675    0.8123 C.ar      1 ATP         0.6429
     32 HOG2        8.4479    2.5133   -5.1646 H         1 ATP         0.4781
     33 HOG3        5.8723    1.1909   -7.6688 H         1 ATP         0.4781
     34 HOA2        1.6872   -1.6448   -5.5687 H         1 ATP         0.4931
     35 H5'1        2.8428    0.3150   -2.6387 H         1 ATP         0.0438
     36 H5'2        1.2124   -0.0896   -2.0417 H         1 ATP         0.0438
     37 H4'         3.8049   -0.1388   -0.4009 H         1 ATP         0.1278
     38 H3'         1.6783   -1.7629    0.2715 H         1 ATP         0.1161
     39 HO3'        2.2232   -1.2979    2.3953 H         1 ATP         0.4111
     40 H2'        -0.0011    0.0027    0.0003 H         1 ATP         0.0477
     41 HO2'       -0.6141    0.5574    2.1082 H         1 ATP         0.4259
     42 H1'         1.7826    1.9024    1.6451 H         1 ATP         0.1524
     43 H8         -0.1423    1.7373   -1.6999 H         1 ATP         0.2610
     44 HN61       -2.4811    5.8206   -1.3042 H         1 ATP         0.4534
     45 HN62       -2.5986    7.0863   -0.1113 H         1 ATP         0.4534
     46 H2          0.2128    5.7222    3.2871 H         1 ATP         0.0900
     47 H47        -1.5947    3.7835   -1.9255 H         1 ATP         0.5046
@<TRIPOS>BOND
     1    1    2 2
     2    1    3 1
     3    1    4 1
     4    1    8 1
     5    3   32 1
     6    4   33 1
     7    5    6 2
     8    5    7 1
     9    5    8 1
    10    5   12 1
    11    9   10 2
    12    9   11 1
    13    9   12 1
    14    9   13 1
    15   11   34 1
    16   13   14 1
    17   14   15 1
    18   14   35 1
    19   14   36 1
    20   15   16 1
    21   15   17 1
    22   15   37 1
    23   16   21 1
    24   17   18 1
    25   17   19 1
    26   17   38 1
    27   18   39 1
    28   19   20 1
    29   19   21 1
    30   19   40 1
    31   20   41 1
    32   21   22 1
    33   21   42 1
    34   22   23 ar
    35   22   31 ar
    36   23   24 ar
    37   23   43 1
    38   24   25 ar
    39   24   47 1
    40   25   26 ar
    41   25   31 ar
    42   26   27 1
    43   26   28 ar
    44   27   44 1
    45   27   45 1
    46   28   29 ar
    47   29   30 ar
    48   29   46 1
    49   30   31 ar
@<TRIPOS>SUBSTRUCTURE
     1 ATP         1 GROUP 0 A     ****
@<TRIPOS>MOLECULE
[[5-(6-amino-7,8-dihydropurin-8-ylium-9-yl)-3,4-dihydroxy-tetrahydrofuran-2-yl]methoxy-hydroxy-phosphoryl] phosphono phosphate
   47    49     1     0     0
SMALL
USER_CHARGES

@<TRIPOS>ATOM
      1 PG         -1.3520   -0.9526   -7.1519 P.3       1 ATP         1.7526
      2 O1G        -1.1359   -0.4669   -8.5547 O.2       1 ATP        -0.8534
      3 O2G        -2.5823   -0.2630   -6.3629 O.3       1 ATP        -0.7661
      4 O3G        -1.6495   -2.5346   -7.0081 O.3       1 ATP        -0.7661
      5 PB          1.4373   -1.2760   -6.2486 P.3       1 ATP         1.6631
      6 O1B         1.4237   -2.7777   -6.0694 O.co2     1 ATP        -0.8211
      7 O2B         2.1150   -0.6358   -7.4396 O.co2     1 ATP        -0.8211
      8 O3B        -0.0955   -0.7238   -6.1606 O.3       1 ATP        -0.7954
      9 PA          3.4935   -0.6459   -4.2276 P.3       1 ATP         1.7782
     10 O1A         4.5884   -0.1042   -5.1002 O.2       1 ATP        -0.8134
     11 O2A         3.6754   -2.1988   -3.8124 O.3       1 ATP        -0.8257
     12 O3A         2.0176   -0.5909   -4.8867 O.3       1 ATP        -0.8063
     13 O5'         3.2874    0.1331   -2.8242 O.3       1 ATP        -0.5763
     14 C5'         2.2816   -0.2918   -1.9206 C.3       1 ATP         0.1790
     15 C4'         2.7248    0.0226   -0.4980 C.3       1 ATP         0.1339
     16 O4'         2.4697    1.4219   -0.2462 O.3       1 ATP        -0.4040
     17 C3'         1.9404   -0.7419    0.5596 C.3       1 ATP         0.0906
     18 O3'         2.7418   -0.8086    1.7389 O.3       1 ATP        -0.5689
     19 C2'         0.7477    0.1630    0.7858 C.3       1 ATP         0.0660
     20 O2'         0.1373   -0.0577    2.0407 O.3       1 ATP        -0.5800
     21 C1'         1.3733    1.5427    0.6747 C.3       1 ATP         0.4216
     22 N9          0.4520    2.5240    0.1767 N.pl3     1 ATP        -0.5455
     23 C8         -0.2172    2.5216   -0.9668 C.ar      1 ATP         0.2820
     24 N7         -1.0011    3.5855   -1.1321 N.pl3     1 ATP        -0.4970
     25 C5         -0.8184    4.3200   -0.0123 C.ar      1 ATP        -0.2773
     26 C6         -1.3349    5.5079    0.4144 C.ar      1 ATP         0.7637
     27 N6         -2.2567    6.1930   -0.4036 N.pl3     1 ATP        -0.9374
     28 N1         -0.9716    6.0291    1.6069 N.ar      1 ATP        -0.7408
     29 C2         -0.0765    5.3009    2.3312 C.ar      1 ATP         0.7215
     30 N3          0.4933    4.1191    2.0023 N.ar      1 ATP        -0.6797
     31 C4          0.0865    3.6675    0.8123 C.ar      1 ATP         0.6429
     32 HOG2       -2.5720    0.7077   -6.2225 H         1 ATP         0.4781
     33 HOG3       -0.9770   -3.1746   -7.3247 H         1 ATP         0.4781
     34 HOA2        3.7145   -2.8773   -4.5196 H         1 ATP         0.4931
     35 H5'1        1.3494    0.2322   -2.1552 H         1 ATP         0.0438
     36 H5'2        2.1260   -1.3686   -2.0435 H         1 ATP         0.0438
     37 H4'         3.8049   -0.1388   -0.4009 H         1 ATP         0.1278
     38 H3'         1.6783   -1.7629    0.2715 H         1 ATP         0.1161
     39 HO3'        2.2232   -1.2979    2.3953 H         1 ATP         0.4111
     40 H2'        -0.0011    0.0027    0.0003 H         1 ATP         0.0477
     41 HO2'       -0.1563   -0.9855    2.0596 H         1 ATP         0.4259
     42 H1'         1.7826    1.9024    1.6451 H         1 ATP         0.1524
     43 H8         -0.1423    1.7373   -1.6999 H         1 ATP         0.2610
     44 HN61       -2.4811    5.8206   -1.3042 H         1 ATP         0.4534
     45 HN62       -2.5986    7.0863   -0.1113 H         1 ATP         0.4534
     46 H2          0.2128    5.7222    3.2871 H         1 ATP         0.0900
     47 H47        -1.5947    3.7835   -1.9255 H         1 ATP         0.5046
@<TRIPOS>BOND
     1    1    2 2
     2    1    3 1
     3    1    4 1
     4    1    8 1
     5    3   32 1
     6    4   33 1
     7    5    6 2
     8    5    7 1
     9    5    8 1
    10    5   12 1
    11    9   10 2
    12    9   11 1
    13    9   12 1
    14    9   13 1
    15   11   34 1
    16   13   14 1
    17   14   15 1
    18   14   35 1
    19   14   36 1
    20   15   16 1
    21   15   17 1
    22   15   37 1
    23   16   21 1
    24   17   18 1
    25   17   19 1
    26   17   38 1
    27   18   39 1
    28   19   20 1
    29   19   21 1
    30   19   40 1
    31   20   41 1
    32   21   22 1
    33   21   42 1
    34   22   23 ar
    35   22   31 ar
    36   23   24 ar
    37   23   43 1
    38   24   25 ar
    39   24   47 1
    40   25   26 ar
    41   25   31 ar
    42   26   27 1
    43   26   28 ar
    44   27   44 1
    45   27   45 1
    46   28   29 ar
    47   29   30 ar
    48   29   46 1
    49   30   31 ar
@<TRIPOS>SUBSTRUCTURE
     1 ATP         1 GROUP 0 A     ****
@<TRIPOS>MOLECULE
[[5-(6-amino-7,8-dihydropurin-8-ylium-9-yl)-3,4-dihydroxy-tetrahydrofuran-2-yl]methoxy-hydroxy-phosphoryl] phosphono phosphate
   47    49     1     0     0
SMALL
USER_CHARGES

@<TRIPOS>ATOM
      1 PG          2.5350   -0.7139   -8.9282 P.3       1 ATP         1.7526
      2 O1G         1.2882   -0.3181   -9.6624 O.2       1 ATP        -0.8534
      3 O2G         3.0053   -2.2456   -9.1391 O.3       1 ATP        -0.7661
      4 O3G         3.8549    0.1416   -9.2994 O.3       1 ATP        -0.7661
      5 PB          1.4373   -1.2760   -6.2486 P.3       1 ATP         1.6631
      6 O1B         0.0339   -0.7663   -6.4891 O.co2     1 ATP        -0.8211
      7 O2B         1.7361   -2.7582   -6.2105 O.co2     1 ATP        -0.8211
      8 O3B         2.4430   -0.5679   -7.3207 O.3       1 ATP        -0.7954
      9 PA          3.4935   -0.6459   -4.2276 P.3       1 ATP         1.7782
     10 O1A         4.5884   -0.1042   -5.1002 O.2       1 ATP        -0.8134
     11 O2A         3.6754   -2.1988   -3.8124 O.3       1 ATP        -0.8257
     12 O3A         2.0176   -0.5909   -4.8867 O.3       1 ATP        -0.8063
     13 O5'         3.2874    0.1331   -2.8242 O.3       1 ATP        -0.5763
     14 C5'         2.2816   -0.2918   -1.9206 C.3       1 ATP         0.1790
     15 C4'         2.7248    0.0226   -0.4980 C.3       1 ATP         0.1339
     16 O4'         2.4697    1.4219   -0.2462 O.3       1 ATP        -0.4040
     17 C3'         1.9404   -0.7419    0.5596 C.3       1 ATP         0.0906
     18 O3'         2.7418   -0.8086    1.7389 O.3       1 ATP        -0.5689
     19 C2'         0.7477    0.1630    0.7858 C.3       1 ATP         0.0660
     20 O2'         0.1373   -0.0577    2.0407 O.3       1 ATP        -0.5800
     21 C1'         1.3733    1.5427    0.6747 C.3       1 ATP         0.4216
     22 N9          0.4520    2.5240    0.1767 N.pl3     1 ATP        -0.5455
     23 C8         -0.2172    2.5216   -0.9668 C.ar      1 ATP         0.2820
     24 N7         -1.0011    3.5855   -1.1321 N.pl3     1 ATP        -0.4970
     25 C5         -0.8184    4.3200   -0.0123 C.ar      1 ATP        -0.2773
     26 C6         -1.3349    5.5079    0.4144 C.ar      1 ATP         0.7637
     27 N6         -2.2567    6.1930   -0.4036 N.pl3     1 ATP        -0.9374
     28 N1         -0.9716    6.0291    1.6069 N.ar      1 ATP        -0.7408
     29 C2         -0.0765    5.3009    2.3312 C.ar      1 ATP         0.7215
     30 N3          0.4933    4.1191    2.0023 N.ar      1 ATP        -0.6797
     31 C4          0.0865    3.6675    0.8123 C.ar      1 ATP         0.6429
     32 HOG2        2.3981   -2.9693   -8.8753 H         1 ATP         0.4781
     33 HOG3        4.1765    0.1397  -10.2261 H         1 ATP         0.4781
     34 HOA2        3.7145   -2.8773   -4.5196 H         1 ATP         0.4931
     35 H5'1        1.3494    0.2322   -2.1552 H         1 ATP         0.0438
     36 H5'2        2.1260   -1.3686   -2.0435 H         1 ATP         0.0438
     37 H4'         3.8049   -0.1388   -0.4009 H         1 ATP         0.1278
     38 H3'         1.6783   -1.7629    0.2715 H         1 ATP         0.1161
     39 HO3'        2.2232   -1.2979    2.3953 H         1 ATP         0.4111
     40 H2'        -0.0011    0.0027    0.0003 H         1 ATP         0.0477
     41 HO2'       -0.1563   -0.9855    2.0596 H         1 ATP         0.4259
     42 H1'         1.7826    1.9024    1.6451 H         1 ATP         0.1524
     43 H8         -0.1423    1.7373   -1.6999 H         1 ATP         0.2610
     44 HN61       -2.6706    7.0399   -0.0694 H         1 ATP         0.4534
     45 HN62       -2.5527    5.7740   -1.2621 H         1 ATP         0.4534
     46 H2          0.2128    5.7222    3.2871 H         1 ATP         0.0900
     47 H47        -1.5947    3.7835   -1.9255 H         1 ATP         0.5046
@<TRIPOS>BOND
     1    1    2 2
     2    1    3 1
     3    1    4 1
     4    1    8 1
     5    3   32 1
     6    4   33 1
     7    5    6 2
     8    5    7 1
     9    5    8 1
    10    5   12 1
    11    9   10 2
    12    9   11 1
    13    9   12 1
    14    9   13 1
    15   11   34 1
    16   13   14 1
    17   14   15 1
    18   14   35 1
    19   14   36 1
    20   15   16 1
    21   15   17 1
    22   15   37 1
    23   16   21 1
    24   17   18 1
    25   17   19 1
    26   17   38 1
    27   18   39 1
    28   19   20 1
    29   19   21 1
    30   19   40 1
    31   20   41 1
    32   21   22 1
    33   21   42 1
    34   22   23 ar
    35   22   31 ar
    36   23   24 ar
    37   23   43 1
    38   24   25 ar
    39   24   47 1
    40   25   26 ar
    41   25   31 ar
    42   26   27 1
    43   26   28 ar
    44   27   44 1
    45   27   45 1
    46   28   29 ar
    47   29   30 ar
    48   29   46 1
    49   30   31 ar
@<TRIPOS>SUBSTRUCTURE
     1 ATP         1 GROUP 0 A     ****
@<TRIPOS>MOLECULE
[[5-(6-amino-7,8-dihydropurin-8-ylium-9-yl)-3,4-dihydroxy-tetrahydrofuran-2-yl]methoxy-hydroxy-phosphoryl] phosphono phosphate
   47    49     1     0     0
SMALL
USER_CHARGES

@<TRIPOS>ATOM
      1 PG         -1.5591    0.3942   -6.5758 P.3       1 ATP         1.7526
      2 O1G        -2.3325    1.3562   -5.7233 O.2       1 ATP        -0.8534
      3 O2G        -2.3393   -0.9663   -6.9657 O.3       1 ATP        -0.7661
      4 O3G        -1.0739    0.9747   -8.0040 O.3       1 ATP        -0.7661
      5 PB          1.1370    0.6774   -5.4131 P.3       1 ATP         1.6631
      6 O1B         1.8214    1.2761   -6.6216 O.co2     1 ATP        -0.8211
      7 O2B         0.7595    1.5321   -4.2237 O.co2     1 ATP        -0.8211
      8 O3B        -0.1854   -0.1388   -5.9104 O.3       1 ATP        -0.7954
      9 PA          3.4935   -0.6459   -4.2276 P.3       1 ATP         1.7782
     10 O1A         4.5884   -0.1042   -5.1002 O.2       1 ATP        -0.8134
     11 O2A         3.6754   -2.1988   -3.8124 O.3       1 ATP        -0.8257
     12 O3A         2.0176   -0.5909   -4.8867 O.3       1 ATP        -0.8063
     13 O5'         3.2874    0.1331   -2.8242 O.3       1 ATP        -0.5763
     14 C5'         2.2816   -0.2918   -1.9206 C.3       1 ATP         0.1790
     15 C4'         2.7248    0.0226   -0.4980 C.3       1 ATP         0.1339
     16 O4'         2.4697    1.4219   -0.2462 O.3       1 ATP        -0.4040
     17 C3'         1.9404   -0.7419    0.5596 C.3       1 ATP         0.0906
     18 O3'         2.7418   -0.8086    1.7389 O.3       1 ATP        -0.5689
     19 C2'         0.7477    0.1630    0.7858 C.3       1 ATP         0.0660
     20 O2'         0.1373   -0.0577    2.0407 O.3       1 ATP        -0.5800
     21 C1'         1.3733    1.5427    0.6747 C.3       1 ATP         0.4216
     22 N9          0.4520    2.5240    0.1767 N.pl3     1 ATP        -0.5455
     23 C8          0.1928    2.8484   -1.0815 C.ar      1 ATP         0.2820
     24 N7         -0.7248    3.8048   -1.2110 N.pl3     1 ATP        -0.4970
     25 C5         -1.0765    4.1129    0.0571 C.ar      1 ATP        -0.2773
     26 C6         -1.9614    5.0063    0.5851 C.ar      1 ATP         0.7637
     27 N6         -2.7145    5.8254   -0.2810 N.pl3     1 ATP        -0.9374
     28 N1         -2.1199    5.1113    1.9228 N.ar      1 ATP        -0.7408
     29 C2         -1.3522    4.2822    2.6839 C.ar      1 ATP         0.7215
     30 N3         -0.4501    3.3660    2.2638 N.ar      1 ATP        -0.6797
     31 C4         -0.3487    3.3198    0.9322 C.ar      1 ATP         0.6429
     32 HOG2       -3.1777   -0.9048   -7.4710 H         1 ATP         0.4781
     33 HOG3       -0.4818    1.7565   -8.0220 H         1 ATP         0.4781
     34 HOA2        4.4746   -2.4648   -3.3098 H         1 ATP         0.4931
     35 H5'1        1.3494    0.2322   -2.1552 H         1 ATP         0.0438
     36 H5'2        2.1260   -1.3686   -2.0435 H         1 ATP         0.0438
     37 H4'         3.8049   -0.1388   -0.4009 H         1 ATP         0.1278
     38 H3'         1.6783   -1.7629    0.2715 H         1 ATP         0.1161
     39 HO3'        3.5554   -1.2733    1.4914 H         1 ATP         0.4111
     40 H2'        -0.0011    0.0027    0.0003 H         1 ATP         0.0477
     41 HO2'       -0.1563   -0.9855    2.0596 H         1 ATP         0.4259
     42 H1'         1.7826    1.9024    1.6451 H         1 ATP         0.1524
     43 H8          0.6728    2.3873   -1.9272 H         1 ATP         0.2610
     44 HN61       -2.5537    5.7714   -1.2667 H         1 ATP         0.4534
     45 HN62       -3.3282    6.5126    0.1080 H         1 ATP         0.4534
     46 H2         -1.4818    4.3694    3.7565 H         1 ATP         0.0900
     47 H47        -1.0701    4.2005   -2.0743 H         1 ATP         0.5046
@<TRIPOS>BOND
     1    1    2 2
     2    1    3 1
     3    1    4 1
     4    1    8 1
     5    3   32 1
     6    4   33 1
     7    5    6 2
     8    5    7 1
     9    5    8 1
    10    5   12 1
    11    9   10 2
    12    9   11 1
    13    9   12 1
    14    9   13 1
    15   11   34 1
    16   13   14 1
    17   14   15 1
    18   14   35 1
    19   14   36 1
    20   15   16 1
    21   15   17 1
    22   15   37 1
    23   16   21 1
    24   17   18 1
    25   17   19 1
    26   17   38 1
    27   18   39 1
    28   19   20 1
    29   19   21 1
    30   19   40 1
    31   20   41 1
    32   21   22 1
    33   21   42 1
    34   22   23 ar
    35   22   31 ar
    36   23   24 ar
    37   23   43 1
    38   24   25 ar
    39   24   47 1
    40   25   26 ar
    41   25   31 ar
    42   26   27 1
    43   26   28 ar
    44   27   44 1
    45   27   45 1
    46   28   29 ar
    47   29   30 ar
    48   29   46 1
    49   30   31 ar
@<TRIPOS>SUBSTRUCTURE
     1 ATP         1 GROUP 0 A     ****
@<TRIPOS>MOLECULE
[[5-(6-amino-7,8-dihydropurin-8-ylium-9-yl)-3,4-dihydroxy-tetrahydrofuran-2-yl]methoxy-hydroxy-phosphoryl] phosphono phosphate
   47    49     1     0     0
SMALL
USER_CHARGES

@<TRIPOS>ATOM
      1 PG          0.6875    2.7452   -7.1937 P.3       1 ATP         1.7526
      2 O1G         0.1940    3.8933   -6.3638 O.2       1 ATP        -0.8534
      3 O2G        -0.4234    2.0444   -8.1351 O.3       1 ATP        -0.7661
      4 O3G         1.8837    3.1008   -8.2207 O.3       1 ATP        -0.7661
      5 PB          0.5901    0.5585   -5.2165 P.3       1 ATP         1.6631
      6 O1B         0.2788    1.3966   -3.9966 O.co2     1 ATP        -0.8211
      7 O2B        -0.4785   -0.2769   -5.8858 O.co2     1 ATP        -0.8211
      8 O3B         1.2900    1.5104   -6.3417 O.3       1 ATP        -0.7954
      9 PA          3.3376   -0.0311   -4.3149 P.3       1 ATP         1.7782
     10 O1A         4.1251    0.9098   -5.1800 O.2       1 ATP        -0.8134
     11 O2A         4.0362   -1.4721   -4.0854 O.3       1 ATP        -0.8257
     12 O3A         1.8686   -0.3982   -4.8828 O.3       1 ATP        -0.8063
     13 O5'         3.0190    0.5130   -2.8246 O.3       1 ATP        -0.5763
     14 C5'         2.2816   -0.2918   -1.9206 C.3       1 ATP         0.1790
     15 C4'         2.7248    0.0226   -0.4980 C.3       1 ATP         0.1339
     16 O4'         2.4697    1.4219   -0.2462 O.3       1 ATP        -0.4040
     17 C3'         1.9404   -0.7419    0.5596 C.3       1 ATP         0.0906
     18 O3'         2.7418   -0.8086    1.7389 O.3       1 ATP        -0.5689
     19 C2'         0.7477    0.1630    0.7858 C.3       1 ATP         0.0660
     20 O2'         0.1373   -0.0577    2.0407 O.3       1 ATP        -0.5800
     21 C1'         1.3733    1.5427    0.6747 C.3       1 ATP         0.4216
     22 N9          0.4520    2.5240    0.1767 N.pl3     1 ATP        -0.5455
     23 C8          0.5305    3.2394   -0.9358 C.ar      1 ATP         0.2820
     24 N7         -0.4966    4.0680   -1.1145 N.pl3     1 ATP        -0.4970
     25 C5         -1.2879    3.8664   -0.0375 C.ar      1 ATP        -0.2773
     26 C6         -2.4754    4.4084    0.3577 C.ar      1 ATP         0.7637
     27 N6         -3.0892    5.3882   -0.4495 N.pl3     1 ATP        -0.9374
     28 N1         -3.0632    4.0158    1.5092 N.ar      1 ATP        -0.7408
     29 C2         -2.4008    3.0654    2.2262 C.ar      1 ATP         0.7215
     30 N3         -1.2259    2.4663    1.9260 N.ar      1 ATP        -0.6797
     31 C4         -0.7062    2.9047    0.7757 C.ar      1 ATP         0.6429
     32 HOG2       -1.2151    1.6433   -7.7174 H         1 ATP         0.4781
     33 HOG3        1.7289    3.7778   -8.9134 H         1 ATP         0.4781
     34 HOA2        4.9191   -1.5086   -3.6596 H         1 ATP         0.4931
     35 H5'1        1.2149   -0.0786   -2.0446 H         1 ATP         0.0438
     36 H5'2        2.4640   -1.3459   -2.1539 H         1 ATP         0.0438
     37 H4'         3.8049   -0.1388   -0.4009 H         1 ATP         0.1278
     38 H3'         1.6783   -1.7629    0.2715 H         1 ATP         0.1161
     39 HO3'        3.5554   -1.2733    1.4914 H         1 ATP         0.4111
     40 H2'        -0.0011    0.0027    0.0003 H         1 ATP         0.0477
     41 HO2'        0.8082    0.1199    2.7232 H         1 ATP         0.4259
     42 H1'         1.7826    1.9024    1.6451 H         1 ATP         0.1524
     43 H8          1.3437    3.1645   -1.6367 H         1 ATP         0.2610
     44 HN61       -2.6210    5.7042   -1.2748 H         1 ATP         0.4534
     45 HN62       -3.9356    5.8187   -0.1356 H         1 ATP         0.4534
     46 H2         -2.8752    2.7532    3.1495 H         1 ATP         0.0900
     47 H47        -0.6372    4.7004   -1.8900 H         1 ATP         0.5046
@<TRIPOS>BOND
     1    1    2 2
     2    1    3 1
     3    1    4 1
     4    1    8 1
     5    3   32 1
     6    4   33 1
     7    5    6 2
     8    5    7 1
     9    5    8 1
    10    5   12 1
    11    9   10 2
    12    9   11 1
    13    9   12 1
    14    9   13 1
    15   11   34 1
    16   13   14 1
    17   14   15 1
    18   14   35 1
    19   14   36 1
    20   15   16 1
    21   15   17 1
    22   15   37 1
    23   16   21 1
    24   17   18 1
    25   17   19 1
    26   17   38 1
    27   18   39 1
    28   19   20 1
    29   19   21 1
    30   19   40 1
    31   20   41 1
    32   21   22 1
    33   21   42 1
    34   22   23 ar
    35   22   31 ar
    36   23   24 ar
    37   23   43 1
    38   24   25 ar
    39   24   47 1
    40   25   26 ar
    41   25   31 ar
    42   26   27 1
    43   26   28 ar
    44   27   44 1
    45   27   45 1
    46   28   29 ar
    47   29   30 ar
    48   29   46 1
    49   30   31 ar
@<TRIPOS>SUBSTRUCTURE
     1 ATP         1 GROUP 0 A     ****
@<TRIPOS>MOLECULE
[[5-(6-amino-7,8-dihydropurin-8-ylium-9-yl)-3,4-dihydroxy-tetrahydrofuran-2-yl]methoxy-hydroxy-phosphoryl] phosphono phosphate
   47    49     1     0     0
SMALL
USER_CHARGES

@<TRIPOS>ATOM
      1 PG          1.0339   -4.0496   -7.7233 P.3       1 ATP         1.7526
      2 O1G        -0.4218   -4.3625   -7.9062 O.2       1 ATP        -0.8534
      3 O2G         2.0033   -5.3333   -7.5687 O.3       1 ATP        -0.7661
      4 O3G         1.7134   -3.2044   -8.9215 O.3       1 ATP        -0.7661
      5 PB          0.8687   -1.6731   -5.9837 P.3       1 ATP         1.6631
      6 O1B         1.4500   -0.6673   -6.9521 O.co2     1 ATP        -0.8211
      7 O2B        -0.6172   -1.7242   -5.7059 O.co2     1 ATP        -0.8211
      8 O3B         1.3714   -3.1649   -6.4128 O.3       1 ATP        -0.7954
      9 PA          1.5741   -2.4609   -3.2285 P.3       1 ATP         1.7782
     10 O1A         1.9282   -3.9055   -3.4313 O.2       1 ATP        -0.8134
     11 O2A         0.0703   -2.2105   -2.6868 O.3       1 ATP        -0.8257
     12 O3A         1.6619   -1.5521   -4.5634 O.3       1 ATP        -0.8063
     13 O5'         2.5233   -1.6622   -2.1894 O.3       1 ATP        -0.5763
     14 C5'         2.2816   -0.2918   -1.9206 C.3       1 ATP         0.1790
     15 C4'         2.7248    0.0226   -0.4980 C.3       1 ATP         0.1339
     16 O4'         2.4697    1.4219   -0.2462 O.3       1 ATP        -0.4040
     17 C3'         1.9404   -0.7419    0.5596 C.3       1 ATP         0.0906
     18 O3'         2.7418   -0.8086    1.7389 O.3       1 ATP        -0.5689
     19 C2'         0.7477    0.1630    0.7858 C.3       1 ATP         0.0660
     20 O2'         0.1373   -0.0577    2.0407 O.3       1 ATP        -0.5800
     21 C1'         1.3733    1.5427    0.6747 C.3       1 ATP         0.4216
     22 N9          0.4520    2.5240    0.1767 N.pl3     1 ATP        -0.5455
     23 C8          0.5305    3.2394   -0.9358 C.ar      1 ATP         0.2820
     24 N7         -0.4966    4.0680   -1.1145 N.pl3     1 ATP        -0.4970
     25 C5         -1.2879    3.8664   -0.0375 C.ar      1 ATP        -0.2773
     26 C6         -2.4754    4.4084    0.3577 C.ar      1 ATP         0.7637
     27 N6         -3.0892    5.3882   -0.4495 N.pl3     1 ATP        -0.9374
     28 N1         -3.0632    4.0158    1.5092 N.ar      1 ATP        -0.7408
     29 C2         -2.4008    3.0654    2.2262 C.ar      1 ATP         0.7215
     30 N3         -1.2259    2.4663    1.9260 N.ar      1 ATP        -0.6797
     31 C4         -0.7062    2.9047    0.7757 C.ar      1 ATP         0.6429
     32 HOG2        2.0454   -5.9871   -8.2986 H         1 ATP         0.4781
     33 HOG3        1.3579   -2.3157   -9.1363 H         1 ATP         0.4781
     34 HOA2       -0.1942   -2.5987   -1.8258 H         1 ATP         0.4931
     35 H5'1        2.8428    0.3150   -2.6387 H         1 ATP         0.0438
     36 H5'2        1.2124   -0.0896   -2.0417 H         1 ATP         0.0438
     37 H4'         3.8049   -0.1388   -0.4009 H         1 ATP         0.1278
     38 H3'         1.6783   -1.7629    0.2715 H         1 ATP         0.1161
     39 HO3'        2.2232   -1.2979    2.3953 H         1 ATP         0.4111
     40 H2'        -0.0011    0.0027    0.0003 H         1 ATP         0.0477
     41 HO2'       -0.1563   -0.9855    2.0596 H         1 ATP         0.4259
     42 H1'         1.7826    1.9024    1.6451 H         1 ATP         0.1524
     43 H8          1.3437    3.1645   -1.6367 H         1 ATP         0.2610
     44 HN61       -2.6210    5.7042   -1.2748 H         1 ATP         0.4534
     45 HN62       -3.9356    5.8187   -0.1356 H         1 ATP         0.4534
     46 H2         -2.8752    2.7532    3.1495 H         1 ATP         0.0900
     47 H47        -0.6372    4.7004   -1.8900 H         1 ATP         0.5046
@<TRIPOS>BOND
     1    1    2 2
     2    1    3 1
     3    1    4 1
     4    1    8 1
     5    3   32 1
     6    4   33 1
     7    5    6 2
     8    5    7 1
     9    5    8 1
    10    5   12 1
    11    9   10 2
    12    9   11 1
    13    9   12 1
    14    9   13 1
    15   11   34 1
    16   13   14 1
    17   14   15 1
    18   14   35 1
    19   14   36 1
    20   15   16 1
    21   15   17 1
    22   15   37 1
    23   16   21 1
    24   17   18 1
    25   17   19 1
    26   17   38 1
    27   18   39 1
    28   19   20 1
    29   19   21 1
    30   19   40 1
    31   20   41 1
    32   21   22 1
    33   21   42 1
    34   22   23 ar
    35   22   31 ar
    36   23   24 ar
    37   23   43 1
    38   24   25 ar
    39   24   47 1
    40   25   26 ar
    41   25   31 ar
    42   26   27 1
    43   26   28 ar
    44   27   44 1
    45   27   45 1
    46   28   29 ar
    47   29   30 ar
    48   29   46 1
    49   30   31 ar
@<TRIPOS>SUBSTRUCTURE
     1 ATP         1 GROUP 0 A     ****
@<TRIPOS>MOLECULE
[[5-(6-amino-7,8-dihydropurin-8-ylium-9-yl)-3,4-dihydroxy-tetrahydrofuran-2-yl]methoxy-hydroxy-phosphoryl] phosphono phosphate
   47    49     1     0     0
SMALL
USER_CHARGES

@<TRIPOS>ATOM
      1 PG         -5.9100   -7.2076    0.6968 P.3       1 ATP         1.7526
      2 O1G        -5.8215   -6.6720   -0.7016 O.2       1 ATP        -0.8534
      3 O2G        -7.2731   -6.8524    1.4887 O.3       1 ATP        -0.7661
      4 O3G        -5.8045   -8.8151    0.8274 O.3       1 ATP        -0.7661
      5 PB         -4.3646   -5.1676    2.1635 P.3       1 ATP         1.6631
      6 O1B        -3.8412   -4.4050    0.9669 O.co2     1 ATP        -0.8211
      7 O2B        -5.4943   -4.6208    3.0074 O.co2     1 ATP        -0.8211
      8 O3B        -4.7499   -6.6815    1.6925 O.3       1 ATP        -0.7954
      9 PA         -1.7114   -6.2782    2.8245 P.3       1 ATP         1.7782
     10 O1A        -1.8534   -7.6771    2.2986 O.2       1 ATP        -0.8134
     11 O2A        -0.8887   -6.1658    4.2130 O.3       1 ATP        -0.8257
     12 O3A        -3.1111   -5.5326    3.1416 O.3       1 ATP        -0.8063
     13 O5'        -0.9731   -5.2421    1.8246 O.3       1 ATP        -0.5763
     14 C5'        -0.7840   -3.8935    2.2172 C.3       1 ATP         0.1790
     15 C4'        -0.0724   -3.1466    1.1027 C.3       1 ATP         0.1339
     16 O4'        -0.8674   -3.1929   -0.0945 O.3       1 ATP        -0.4040
     17 C3'         0.1338   -1.6715    1.4027 C.3       1 ATP         0.0906
     18 O3'         1.2893   -1.4445    2.1808 O.3       1 ATP        -0.5689
     19 C2'         0.2158   -1.0724    0.0128 C.3       1 ATP         0.0660
     20 O2'         1.5141   -1.2448   -0.5513 O.3       1 ATP        -0.5800
     21 C1'        -0.7897   -1.9176   -0.7583 C.3       1 ATP         0.4216
     22 N9         -2.1040   -1.3333   -0.7704 N.pl3     1 ATP        -0.5455
     23 C8         -3.0822   -1.4850    0.1102 C.ar      1 ATP         0.2820
     24 N7         -4.1844   -0.7999   -0.1888 N.pl3     1 ATP        -0.4970
     25 C5         -3.8875   -0.1651   -1.3445 C.ar      1 ATP        -0.2773
     26 C6         -4.5941    0.6799   -2.1486 C.ar      1 ATP         0.7637
     27 N6         -5.9138    1.0274   -1.7939 N.pl3     1 ATP        -0.9374
     28 N1         -4.0421    1.1824   -3.2748 N.ar      1 ATP        -0.7408
     29 C2         -2.7637    0.7937   -3.5405 C.ar      1 ATP         0.7215
     30 N3         -1.9788   -0.0343   -2.8140 N.ar      1 ATP        -0.6797
     31 C4         -2.5915   -0.4902   -1.7174 C.ar      1 ATP         0.6429
     32 HOG2       -7.5047   -5.9108    1.6367 H         1 ATP         0.4781
     33 HOG3       -6.4708   -9.3729    0.3723 H         1 ATP         0.4781
     34 HOA2        0.0402   -6.4796    4.2404 H         1 ATP         0.4931
     35 H5'1       -1.7611   -3.4417    2.4168 H         1 ATP         0.0438
     36 H5'2       -0.1868   -3.8712    3.1345 H         1 ATP         0.0438
     37 H4'         0.8886   -3.6448    0.8780 H         1 ATP         0.1278
     38 H3'        -0.7374   -1.2358    1.9870 H         1 ATP         0.1161
     39 HO3'        1.1626   -1.9325    3.0084 H         1 ATP         0.4111
     40 H2'        -0.0384   -0.0310    0.0096 H         1 ATP         0.0477
     41 HO2'        2.1463   -0.7958    0.0370 H         1 ATP         0.4259
     42 H1'        -0.4769   -2.1002   -1.8093 H         1 ATP         0.1524
     43 H8         -3.0031   -2.1011    0.9891 H         1 ATP         0.2610
     44 HN61       -6.3271    0.6117   -0.9836 H         1 ATP         0.4534
     45 HN62       -6.4471    1.6092   -2.4083 H         1 ATP         0.4534
     46 H2         -2.3243    1.1986   -4.4449 H         1 ATP         0.0900
     47 H47        -5.0436   -0.7722    0.3425 H         1 ATP         0.5046
@<TRIPOS>BOND
     1    1    2 2
     2    1    3 1
     3    1    4 1
     4    1    8 1
     5    3   32 1
     6    4   33 1
     7    5    6 2
     8    5    7 1
     9    5    8 1
    10    5   12 1
    11    9   10 2
    12    9   11 1
    13    9   12 1
    14    9   13 1
    15   11   34 1
    16   13   14 1
    17   14   15 1
    18   14   35 1
    19   14   36 1
    20   15   16 1
    21   15   17 1
    22   15   37 1
    23   16   21 1
    24   17   18 1
    25   17   19 1
    26   17   38 1
    27   18   39 1
    28   19   20 1
    29   19   21 1
    30   19   40 1
    31   20   41 1
    32   21   22 1
    33   21   42 1
    34   22   23 ar
    35   22   31 ar
    36   23   24 ar
    37   23   43 1
    38   24   25 ar
    39   24   47 1
    40   25   26 ar
    41   25   31 ar
    42   26   27 1
    43   26   28 ar
    44   27   44 1
    45   27   45 1
    46   28   29 ar
    47   29   30 ar
    48   29   46 1
    49   30   31 ar
@<TRIPOS>SUBSTRUCTURE
     1 ATP         1 GROUP 0 A     ****
@<TRIPOS>MOLECULE
[[5-(6-amino-7,8-dihydropurin-8-ylium-9-yl)-3,4-dihydroxy-tetrahydrofuran-2-yl]methoxy-hydroxy-phosphoryl] phosphono phosphate
   47    49     1     0     0
SMALL
USER_CHARGES

@<TRIPOS>ATOM
      1 PG          7.4662   -3.4636   -3.5426 P.3       1 ATP         1.7526
      2 O1G         7.8521   -3.5407   -2.0950 O.2       1 ATP        -0.8534
      3 O2G         8.5215   -2.7013   -4.5001 O.3       1 ATP        -0.7661
      4 O3G         7.2506   -4.8878   -4.2755 O.3       1 ATP        -0.7661
      5 PB          5.6304   -1.1552   -3.4977 P.3       1 ATP         1.6631
      6 O1B         5.5508   -0.9836   -1.9972 O.co2     1 ATP        -0.8211
      7 O2B         6.4569   -0.2182   -4.3501 O.co2     1 ATP        -0.8211
      8 O3B         6.0753   -2.6901   -3.8269 O.3       1 ATP        -0.7954
      9 PA          2.8565   -2.1425   -3.6983 P.3       1 ATP         1.7782
     10 O1A         3.0938   -3.6162   -3.8583 O.2       1 ATP        -0.8134
     11 O2A         1.6409   -1.5597   -4.5927 O.3       1 ATP        -0.8257
     12 O3A         4.1154   -1.2102   -4.1001 O.3       1 ATP        -0.8063
     13 O5'         2.5233   -1.6622   -2.1894 O.3       1 ATP        -0.5763
     14 C5'         2.2816   -0.2918   -1.9206 C.3       1 ATP         0.1790
     15 C4'         2.7248    0.0226   -0.4980 C.3       1 ATP         0.1339
     16 O4'         2.4697    1.4219   -0.2462 O.3       1 ATP        -0.4040
     17 C3'         1.9404   -0.7419    0.5596 C.3       1 ATP         0.0906
     18 O3'         2.7418   -0.8086    1.7389 O.3       1 ATP        -0.5689
     19 C2'         0.7477    0.1630    0.7858 C.3       1 ATP         0.0660
     20 O2'         0.1373   -0.0577    2.0407 O.3       1 ATP        -0.5800
     21 C1'         1.3733    1.5427    0.6747 C.3       1 ATP         0.4216
     22 N9          0.4520    2.5240    0.1767 N.pl3     1 ATP        -0.5455
     23 C8         -0.2172    2.5216   -0.9668 C.ar      1 ATP         0.2820
     24 N7         -1.0011    3.5855   -1.1321 N.pl3     1 ATP        -0.4970
     25 C5         -0.8184    4.3200   -0.0123 C.ar      1 ATP        -0.2773
     26 C6         -1.3349    5.5079    0.4144 C.ar      1 ATP         0.7637
     27 N6         -2.2567    6.1930   -0.4036 N.pl3     1 ATP        -0.9374
     28 N1         -0.9716    6.0291    1.6069 N.ar      1 ATP        -0.7408
     29 C2         -0.0765    5.3009    2.3312 C.ar      1 ATP         0.7215
     30 N3          0.4933    4.1191    2.0023 N.ar      1 ATP        -0.6797
     31 C4          0.0865    3.6675    0.8123 C.ar      1 ATP         0.6429
     32 HOG2        8.7371   -1.7622   -4.3163 H         1 ATP         0.4781
     33 HOG3        6.5641   -5.4988   -3.9326 H         1 ATP         0.4781
     34 HOA2        0.7381   -1.9183   -4.4569 H         1 ATP         0.4931
     35 H5'1        2.8428    0.3150   -2.6387 H         1 ATP         0.0438
     36 H5'2        1.2124   -0.0896   -2.0417 H         1 ATP         0.0438
     37 H4'         3.8049   -0.1388   -0.4009 H         1 ATP         0.1278
     38 H3'         1.6783   -1.7629    0.2715 H         1 ATP         0.1161
     39 HO3'        2.2232   -1.2979    2.3953 H         1 ATP         0.4111
     40 H2'        -0.0011    0.0027    0.0003 H         1 ATP         0.0477
     41 HO2'       -0.1563   -0.9855    2.0596 H         1 ATP         0.4259
     42 H1'         1.7826    1.9024    1.6451 H         1 ATP         0.1524
     43 H8         -0.1423    1.7373   -1.6999 H         1 ATP         0.2610
     44 HN61       -2.4811    5.8206   -1.3042 H         1 ATP         0.4534
     45 HN62       -2.5986    7.0863   -0.1113 H         1 ATP         0.4534
     46 H2          0.2128    5.7222    3.2871 H         1 ATP         0.0900
     47 H47        -1.5947    3.7835   -1.9255 H         1 ATP         0.5046
@<TRIPOS>BOND
     1    1    2 2
     2    1    3 1
     3    1    4 1
     4    1    8 1
     5    3   32 1
     6    4   33 1
     7    5    6 2
     8    5    7 1
     9    5    8 1
    10    5   12 1
    11    9   10 2
    12    9   11 1
    13    9   12 1
    14    9   13 1
    15   11   34 1
    16   13   14 1
    17   14   15 1
    18   14   35 1
    19   14   36 1
    20   15   16 1
    21   15   17 1
    22   15   37 1
    23   16   21 1
    24   17   18 1
    25   17   19 1
    26   17   38 1
    27   18   39 1
    28   19   20 1
    29   19   21 1
    30   19   40 1
    31   20   41 1
    32   21   22 1
    33   21   42 1
    34   22   23 ar
    35   22   31 ar
    36   23   24 ar
    37   23   43 1
    38   24   25 ar
    39   24   47 1
    40   25   26 ar
    41   25   31 ar
    42   26   27 1
    43   26   28 ar
    44   27   44 1
    45   27   45 1
    46   28   29 ar
    47   29   30 ar
    48   29   46 1
    49   30   31 ar
@<TRIPOS>SUBSTRUCTURE
     1 ATP         1 GROUP 0 A     ****
@<TRIPOS>MOLECULE
[[5-(6-amino-7,8-dihydropurin-8-ylium-9-yl)-3,4-dihydroxy-tetrahydrofuran-2-yl]methoxy-hydroxy-phosphoryl] phosphono phosphate
   47    49     1     0     0
SMALL
USER_CHARGES

@<TRIPOS>ATOM
      1 PG         -0.2209   -1.9213   -7.3872 P.3       1 ATP         1.7526
      2 O1G        -1.7155   -2.0442   -7.3497 O.2       1 ATP        -0.8534
      3 O2G         0.5909   -3.3137   -7.2691 O.3       1 ATP        -0.7661
      4 O3G         0.3820   -1.2443   -8.7252 O.3       1 ATP        -0.7661
      5 PB          0.1649    0.5493   -5.8225 P.3       1 ATP         1.6631
      6 O1B         0.7244    1.4114   -6.9321 O.co2     1 ATP        -0.8211
      7 O2B        -1.2606    0.7153   -5.3451 O.co2     1 ATP        -0.8211
      8 O3B         0.4090   -1.0185   -6.2032 O.3       1 ATP        -0.7954
      9 PA          2.7546    0.3893   -4.4162 P.3       1 ATP         1.7782
     10 O1A         3.5952    1.2918   -5.2721 O.2       1 ATP        -0.8134
     11 O2A         2.9233   -1.1869   -4.7393 O.3       1 ATP        -0.8257
     12 O3A         1.1614    0.6412   -4.5343 O.3       1 ATP        -0.8063
     13 O5'         3.0190    0.5130   -2.8246 O.3       1 ATP        -0.5763
     14 C5'         2.2816   -0.2918   -1.9206 C.3       1 ATP         0.1790
     15 C4'         2.7248    0.0226   -0.4980 C.3       1 ATP         0.1339
     16 O4'         2.4697    1.4219   -0.2462 O.3       1 ATP        -0.4040
     17 C3'         1.9404   -0.7419    0.5596 C.3       1 ATP         0.0906
     18 O3'         2.7418   -0.8086    1.7389 O.3       1 ATP        -0.5689
     19 C2'         0.7477    0.1630    0.7858 C.3       1 ATP         0.0660
     20 O2'         0.1373   -0.0577    2.0407 O.3       1 ATP        -0.5800
     21 C1'         1.3733    1.5427    0.6747 C.3       1 ATP         0.4216
     22 N9          0.4520    2.5240    0.1767 N.pl3     1 ATP        -0.5455
     23 C8         -0.6854    2.9365    0.7168 C.ar      1 ATP         0.2820
     24 N7         -1.3118    3.8692    0.0018 N.pl3     1 ATP        -0.4970
     25 C5         -0.5159    4.0659   -1.0727 C.ar      1 ATP        -0.2773
     26 C6         -0.6068    4.8856   -2.1589 C.ar      1 ATP         0.7637
     27 N6         -1.7186    5.7437   -2.2844 N.pl3     1 ATP        -0.9374
     28 N1          0.3541    4.8807   -3.1087 N.ar      1 ATP        -0.7408
     29 C2          1.3913    4.0207   -2.9071 C.ar      1 ATP         0.7215
     30 N3          1.5770    3.1707   -1.8715 N.ar      1 ATP        -0.6797
     31 C4          0.5883    3.2318   -0.9747 C.ar      1 ATP         0.6429
     32 HOG2        0.4456   -4.0071   -7.9475 H         1 ATP         0.4781
     33 HOG3        0.1145   -0.3291   -8.9558 H         1 ATP         0.4781
     34 HOA2        2.7054   -1.5125   -5.6385 H         1 ATP         0.4931
     35 H5'1        1.2149   -0.0786   -2.0446 H         1 ATP         0.0438
     36 H5'2        2.4640   -1.3459   -2.1539 H         1 ATP         0.0438
     37 H4'         3.8049   -0.1388   -0.4009 H         1 ATP         0.1278
     38 H3'         1.6783   -1.7629    0.2715 H         1 ATP         0.1161
     39 HO3'        2.2232   -1.2979    2.3953 H         1 ATP         0.4111
     40 H2'        -0.0011    0.0027    0.0003 H         1 ATP         0.0477
     41 HO2'       -0.1563   -0.9855    2.0596 H         1 ATP         0.4259
     42 H1'         1.7826    1.9024    1.6451 H         1 ATP         0.1524
     43 H8         -1.0749    2.5601    1.6468 H         1 ATP         0.2610
     44 HN61       -2.4460    5.7038   -1.5992 H         1 ATP         0.4534
     45 HN62       -1.8079    6.3099   -3.1040 H         1 ATP         0.4534
     46 H2          2.1601    4.0194   -3.6712 H         1 ATP         0.0900
     47 H47        -2.1877    4.3195    0.2279 H         1 ATP         0.5046
@<TRIPOS>BOND
     1    1    2 2
     2    1    3 1
     3    1    4 1
     4    1    8 1
     5    3   32 1
     6    4   33 1
     7    5    6 2
     8    5    7 1
     9    5    8 1
    10    5   12 1
    11    9   10 2
    12    9   11 1
    13    9   12 1
    14    9   13 1
    15   11   34 1
    16   13   14 1
    17   14   15 1
    18   14   35 1
    19   14   36 1
    20   15   16 1
    21   15   17 1
    22   15   37 1
    23   16   21 1
    24   17   18 1
    25   17   19 1
    26   17   38 1
    27   18   39 1
    28   19   20 1
    29   19   21 1
    30   19   40 1
    31   20   41 1
    32   21   22 1
    33   21   42 1
    34   22   23 ar
    35   22   31 ar
    36   23   24 ar
    37   23   43 1
    38   24   25 ar
    39   24   47 1
    40   25   26 ar
    41   25   31 ar
    42   26   27 1
    43   26   28 ar
    44   27   44 1
    45   27   45 1
    46   28   29 ar
    47   29   30 ar
    48   29   46 1
    49   30   31 ar
@<TRIPOS>SUBSTRUCTURE
     1 ATP         1 GROUP 0 A     ****
@<TRIPOS>MOLECULE
[[5-(6-amino-7,8-dihydropurin-8-ylium-9-yl)-3,4-dihydroxy-tetrahydrofuran-2-yl]methoxy-hydroxy-phosphoryl] phosphono phosphate
   47    49     1     0     0
SMALL
USER_CHARGES

@<TRIPOS>ATOM
      1 PG          1.4102   -4.1909   -6.6996 P.3       1 ATP         1.7526
      2 O1G         2.1118   -4.2745   -8.0229 O.2       1 ATP        -0.8534
      3 O2G        -0.2036   -4.2410   -6.7679 O.3       1 ATP        -0.7661
      4 O3G         1.7808   -5.3605   -5.6476 O.3       1 ATP        -0.7661
      5 PB          1.4373   -1.2760   -6.2486 P.3       1 ATP         1.6631
      6 O1B         2.3358   -0.8964   -7.4045 O.co2     1 ATP        -0.8211
      7 O2B        -0.0561   -1.0444   -6.3090 O.co2     1 ATP        -0.8211
      8 O3B         1.7084   -2.8386   -5.8653 O.3       1 ATP        -0.7954
      9 PA          3.4935   -0.6459   -4.2276 P.3       1 ATP         1.7782
     10 O1A         4.5884   -0.1042   -5.1002 O.2       1 ATP        -0.8134
     11 O2A         3.6754   -2.1988   -3.8124 O.3       1 ATP        -0.8257
     12 O3A         2.0176   -0.5909   -4.8867 O.3       1 ATP        -0.8063
     13 O5'         3.2874    0.1331   -2.8242 O.3       1 ATP        -0.5763
     14 C5'         2.2816   -0.2918   -1.9206 C.3       1 ATP         0.1790
     15 C4'         2.7248    0.0226   -0.4980 C.3       1 ATP         0.1339
     16 O4'         2.4697    1.4219   -0.2462 O.3       1 ATP        -0.4040
     17 C3'         1.9404   -0.7419    0.5596 C.3       1 ATP         0.0906
     18 O3'         2.7418   -0.8086    1.7389 O.3       1 ATP        -0.5689
     19 C2'         0.7477    0.1630    0.7858 C.3       1 ATP         0.0660
     20 O2'         0.1373   -0.0577    2.0407 O.3       1 ATP        -0.5800
     21 C1'         1.3733    1.5427    0.6747 C.3       1 ATP         0.4216
     22 N9          0.4520    2.5240    0.1767 N.pl3     1 ATP        -0.5455
     23 C8         -0.2172    2.5216   -0.9668 C.ar      1 ATP         0.2820
     24 N7         -1.0011    3.5855   -1.1321 N.pl3     1 ATP        -0.4970
     25 C5         -0.8184    4.3200   -0.0123 C.ar      1 ATP        -0.2773
     26 C6         -1.3349    5.5079    0.4144 C.ar      1 ATP         0.7637
     27 N6         -2.2567    6.1930   -0.4036 N.pl3     1 ATP        -0.9374
     28 N1         -0.9716    6.0291    1.6069 N.ar      1 ATP        -0.7408
     29 C2         -0.0765    5.3009    2.3312 C.ar      1 ATP         0.7215
     30 N3          0.4933    4.1191    2.0023 N.ar      1 ATP        -0.6797
     31 C4          0.0865    3.6675    0.8123 C.ar      1 ATP         0.6429
     32 HOG2       -0.6793   -3.5477   -7.2731 H         1 ATP         0.4781
     33 HOG3        1.6035   -6.2934   -5.8933 H         1 ATP         0.4781
     34 HOA2        4.4746   -2.4648   -3.3098 H         1 ATP         0.4931
     35 H5'1        1.3494    0.2322   -2.1552 H         1 ATP         0.0438
     36 H5'2        2.1260   -1.3686   -2.0435 H         1 ATP         0.0438
     37 H4'         3.8049   -0.1388   -0.4009 H         1 ATP         0.1278
     38 H3'         1.6783   -1.7629    0.2715 H         1 ATP         0.1161
     39 HO3'        3.5554   -1.2733    1.4914 H         1 ATP         0.4111
     40 H2'        -0.0011    0.0027    0.0003 H         1 ATP         0.0477
     41 HO2'       -0.1563   -0.9855    2.0596 H         1 ATP         0.4259
     42 H1'         1.7826    1.9024    1.6451 H         1 ATP         0.1524
     43 H8         -0.1423    1.7373   -1.6999 H         1 ATP         0.2610
     44 HN61       -2.4811    5.8206   -1.3042 H         1 ATP         0.4534
     45 HN62       -2.5986    7.0863   -0.1113 H         1 ATP         0.4534
     46 H2          0.2128    5.7222    3.2871 H         1 ATP         0.0900
     47 H47        -1.5947    3.7835   -1.9255 H         1 ATP         0.5046
@<TRIPOS>BOND
     1    1    2 2
     2    1    3 1
     3    1    4 1
     4    1    8 1
     5    3   32 1
     6    4   33 1
     7    5    6 2
     8    5    7 1
     9    5    8 1
    10    5   12 1
    11    9   10 2
    12    9   11 1
    13    9   12 1
    14    9   13 1
    15   11   34 1
    16   13   14 1
    17   14   15 1
    18   14   35 1
    19   14   36 1
    20   15   16 1
    21   15   17 1
    22   15   37 1
    23   16   21 1
    24   17   18 1
    25   17   19 1
    26   17   38 1
    27   18   39 1
    28   19   20 1
    29   19   21 1
    30   19   40 1
    31   20   41 1
    32   21   22 1
    33   21   42 1
    34   22   23 ar
    35   22   31 ar
    36   23   24 ar
    37   23   43 1
    38   24   25 ar
    39   24   47 1
    40   25   26 ar
    41   25   31 ar
    42   26   27 1
    43   26   28 ar
    44   27   44 1
    45   27   45 1
    46   28   29 ar
    47   29   30 ar
    48   29   46 1
    49   30   31 ar
@<TRIPOS>SUBSTRUCTURE
     1 ATP         1 GROUP 0 A     ****
@<TRIPOS>MOLECULE
[[5-(6-amino-7,8-dihydropurin-8-ylium-9-yl)-3,4-dihydroxy-tetrahydrofuran-2-yl]methoxy-hydroxy-phosphoryl] phosphono phosphate
   47    49     1     0     0
SMALL
USER_CHARGES

@<TRIPOS>ATOM
      1 PG          2.5203    4.3628   -6.1454 P.3       1 ATP         1.7526
      2 O1G         2.9119    5.3127   -5.0524 O.2       1 ATP        -0.8534
      3 O2G         1.1463    4.7234   -6.9159 O.3       1 ATP        -0.7661
      4 O3G         3.5955    4.2073   -7.3419 O.3       1 ATP        -0.7661
      5 PB          1.2378    2.2201   -4.5753 P.3       1 ATP         1.6631
      6 O1B         1.6089    2.7227   -3.1980 O.co2     1 ATP        -0.8211
      7 O2B        -0.1658    2.3810   -5.1154 O.co2     1 ATP        -0.8211
      8 O3B         2.2887    2.8382   -5.6596 O.3       1 ATP        -0.7954
      9 PA          3.0839   -0.0768   -4.4158 P.3       1 ATP         1.7782
     10 O1A         4.2162    0.4129   -5.2713 O.2       1 ATP        -0.8134
     11 O2A         2.7515   -1.6512   -4.5832 O.3       1 ATP        -0.8257
     12 O3A         1.6665    0.6506   -4.6937 O.3       1 ATP        -0.8063
     13 O5'         3.2874    0.1331   -2.8242 O.3       1 ATP        -0.5763
     14 C5'         2.2816   -0.2918   -1.9206 C.3       1 ATP         0.1790
     15 C4'         2.7248    0.0226   -0.4980 C.3       1 ATP         0.1339
     16 O4'         2.4697    1.4219   -0.2462 O.3       1 ATP        -0.4040
     17 C3'         1.9404   -0.7419    0.5596 C.3       1 ATP         0.0906
     18 O3'         2.7418   -0.8086    1.7389 O.3       1 ATP        -0.5689
     19 C2'         0.7477    0.1630    0.7858 C.3       1 ATP         0.0660
     20 O2'         0.1373   -0.0577    2.0407 O.3       1 ATP        -0.5800
     21 C1'         1.3733    1.5427    0.6747 C.3       1 ATP         0.4216
     22 N9          0.4520    2.5240    0.1767 N.pl3     1 ATP        -0.5455
     23 C8         -0.8252    2.3702   -0.1405 C.ar      1 ATP         0.2820
     24 N7         -1.4086    3.4861   -0.5739 N.pl3     1 ATP        -0.4970
     25 C5         -0.4324    4.4197   -0.5299 C.ar      1 ATP        -0.2773
     26 C6         -0.4006    5.7465   -0.8439 C.ar      1 ATP         0.7637
     27 N6         -1.5714    6.3708   -1.3211 N.pl3     1 ATP        -0.9374
     28 N1          0.7370    6.4615   -0.7020 N.ar      1 ATP        -0.7408
     29 C2          1.8196    5.7785   -0.2355 C.ar      1 ATP         0.7215
     30 N3          1.8948    4.4713    0.1036 N.ar      1 ATP        -0.6797
     31 C4          0.7337    3.8311   -0.0629 C.ar      1 ATP         0.6429
     32 HOG2        0.3117    4.7684   -6.4026 H         1 ATP         0.4781
     33 HOG3        4.4976    3.8853   -7.1303 H         1 ATP         0.4781
     34 HOA2        3.4501   -2.3079   -4.3764 H         1 ATP         0.4931
     35 H5'1        1.3494    0.2322   -2.1552 H         1 ATP         0.0438
     36 H5'2        2.1260   -1.3686   -2.0435 H         1 ATP         0.0438
     37 H4'         3.8049   -0.1388   -0.4009 H         1 ATP         0.1278
     38 H3'         1.6783   -1.7629    0.2715 H         1 ATP         0.1161
     39 HO3'        3.5554   -1.2733    1.4914 H         1 ATP         0.4111
     40 H2'        -0.0011    0.0027    0.0003 H         1 ATP         0.0477
     41 HO2'       -0.6141    0.5574    2.1082 H         1 ATP         0.4259
     42 H1'         1.7826    1.9024    1.6451 H         1 ATP         0.1524
     43 H8         -1.3516    1.4351   -0.0582 H         1 ATP         0.2610
     44 HN61       -2.3936    5.8204   -1.4664 H         1 ATP         0.4534
     45 HN62       -1.5348    7.3319   -1.5955 H         1 ATP         0.4534
     46 H2          2.7305    6.3553   -0.1232 H         1 ATP         0.0900
     47 H47        -2.3700    3.5931   -0.8665 H         1 ATP         0.5046
@<TRIPOS>BOND
     1    1    2 2
     2    1    3 1
     3    1    4 1
     4    1    8 1
     5    3   32 1
     6    4   33 1
     7    5    6 2
     8    5    7 1
     9    5    8 1
    10    5   12 1
    11    9   10 2
    12    9   11 1
    13    9   12 1
    14    9   13 1
    15   11   34 1
    16   13   14 1
    17   14   15 1
    18   14   35 1
    19   14   36 1
    20   15   16 1
    21   15   17 1
    22   15   37 1
    23   16   21 1
    24   17   18 1
    25   17   19 1
    26   17   38 1
    27   18   39 1
    28   19   20 1
    29   19   21 1
    30   19   40 1
    31   20   41 1
    32   21   22 1
    33   21   42 1
    34   22   23 ar
    35   22   31 ar
    36   23   24 ar
    37   23   43 1
    38   24   25 ar
    39   24   47 1
    40   25   26 ar
    41   25   31 ar
    42   26   27 1
    43   26   28 ar
    44   27   44 1
    45   27   45 1
    46   28   29 ar
    47   29   30 ar
    48   29   46 1
    49   30   31 ar
@<TRIPOS>SUBSTRUCTURE
     1 ATP         1 GROUP 0 A     ****
@<TRIPOS>MOLECULE
[[5-(6-amino-7,8-dihydropurin-8-ylium-9-yl)-3,4-dihydroxy-tetrahydrofuran-2-yl]methoxy-hydroxy-phosphoryl] phosphono phosphate
   47    49     1     0     0
SMALL
USER_CHARGES

@<TRIPOS>ATOM
      1 PG          0.7529    5.2205   -5.7619 P.3       1 ATP         1.7526
      2 O1G         0.2963    5.0332   -7.1786 O.2       1 ATP        -0.8534
      3 O2G         2.1546    6.0050   -5.5848 O.3       1 ATP        -0.7661
      4 O3G        -0.2639    6.0436   -4.8129 O.3       1 ATP        -0.7661
      5 PB         -0.0502    2.6391   -4.5819 P.3       1 ATP         1.6631
      6 O1B        -1.0927    3.1664   -3.6213 O.co2     1 ATP        -0.8211
      7 O2B        -0.4483    1.9417   -5.8637 O.co2     1 ATP        -0.8211
      8 O3B         0.9868    3.8456   -4.9441 O.3       1 ATP        -0.7954
      9 PA          2.3549    0.9657   -4.2291 P.3       1 ATP         1.7782
     10 O1A         3.2319    1.8157   -5.1020 O.2       1 ATP        -0.8134
     11 O2A         1.8647   -0.4148   -4.9154 O.3       1 ATP        -0.8257
     12 O3A         0.9794    1.6761   -3.7612 O.3       1 ATP        -0.8063
     13 O5'         3.0190    0.5130   -2.8246 O.3       1 ATP        -0.5763
     14 C5'         2.2816   -0.2918   -1.9206 C.3       1 ATP         0.1790
     15 C4'         2.7248    0.0226   -0.4980 C.3       1 ATP         0.1339
     16 O4'         2.4697    1.4219   -0.2462 O.3       1 ATP        -0.4040
     17 C3'         1.9404   -0.7419    0.5596 C.3       1 ATP         0.0906
     18 O3'         2.7418   -0.8086    1.7389 O.3       1 ATP        -0.5689
     19 C2'         0.7477    0.1630    0.7858 C.3       1 ATP         0.0660
     20 O2'         0.1373   -0.0577    2.0407 O.3       1 ATP        -0.5800
     21 C1'         1.3733    1.5427    0.6747 C.3       1 ATP         0.4216
     22 N9          0.4520    2.5240    0.1767 N.pl3     1 ATP        -0.5455
     23 C8          0.5305    3.2394   -0.9358 C.ar      1 ATP         0.2820
     24 N7         -0.4966    4.0680   -1.1145 N.pl3     1 ATP        -0.4970
     25 C5         -1.2879    3.8664   -0.0375 C.ar      1 ATP        -0.2773
     26 C6         -2.4754    4.4084    0.3577 C.ar      1 ATP         0.7637
     27 N6         -3.0892    5.3882   -0.4495 N.pl3     1 ATP        -0.9374
     28 N1         -3.0632    4.0158    1.5092 N.ar      1 ATP        -0.7408
     29 C2         -2.4008    3.0654    2.2262 C.ar      1 ATP         0.7215
     30 N3         -1.2259    2.4663    1.9260 N.ar      1 ATP        -0.6797
     31 C4         -0.7062    2.9047    0.7757 C.ar      1 ATP         0.6429
     32 HOG2        2.2324    6.9211   -5.9265 H         1 ATP         0.4781
     33 HOG3       -1.1694    5.6938   -4.6716 H         1 ATP         0.4781
     34 HOA2        1.3360   -0.3725   -5.7405 H         1 ATP         0.4931
     35 H5'1        1.2149   -0.0786   -2.0446 H         1 ATP         0.0438
     36 H5'2        2.4640   -1.3459   -2.1539 H         1 ATP         0.0438
     37 H4'         3.8049   -0.1388   -0.4009 H         1 ATP         0.1278
     38 H3'         1.6783   -1.7629    0.2715 H         1 ATP         0.1161
     39 HO3'        3.5554   -1.2733    1.4914 H         1 ATP         0.4111
     40 H2'        -0.0011    0.0027    0.0003 H         1 ATP         0.0477
     41 HO2'       -0.1563   -0.9855    2.0596 H         1 ATP         0.4259
     42 H1'         1.7826    1.9024    1.6451 H         1 ATP         0.1524
     43 H8          1.3437    3.1645   -1.6367 H         1 ATP         0.2610
     44 HN61       -2.6210    5.7042   -1.2748 H         1 ATP         0.4534
     45 HN62       -3.9356    5.8187   -0.1356 H         1 ATP         0.4534
     46 H2         -2.8752    2.7532    3.1495 H         1 ATP         0.0900
     47 H47        -0.6372    4.7004   -1.8900 H         1 ATP         0.5046
@<TRIPOS>BOND
     1    1    2 2
     2    1    3 1
     3    1    4 1
     4    1    8 1
     5    3   32 1
     6    4   33 1
     7    5    6 2
     8    5    7 1
     9    5    8 1
    10    5   12 1
    11    9   10 2
    12    9   11 1
    13    9   12 1
    14    9   13 1
    15   11   34 1
    16   13   14 1
    17   14   15 1
    18   14   35 1
    19   14   36 1
    20   15   16 1
    21   15   17 1
    22   15   37 1
    23   16   21 1
    24   17   18 1
    25   17   19 1
    26   17   38 1
    27   18   39 1
    28   19   20 1
    29   19   21 1
    30   19   40 1
    31   20   41 1
    32   21   22 1
    33   21   42 1
    34   22   23 ar
    35   22   31 ar
    36   23   24 ar
    37   23   43 1
    38   24   25 ar
    39   24   47 1
    40   25   26 ar
    41   25   31 ar
    42   26   27 1
    43   26   28 ar
    44   27   44 1
    45   27   45 1
    46   28   29 ar
    47   29   30 ar
    48   29   46 1
    49   30   31 ar
@<TRIPOS>SUBSTRUCTURE
     1 ATP         1 GROUP 0 A     ****
@<TRIPOS>MOLECULE
[[5-(6-amino-7,8-dihydropurin-8-ylium-9-yl)-3,4-dihydroxy-tetrahydrofuran-2-yl]methoxy-hydroxy-phosphoryl] phosphono phosphate
   47    49     1     0     0
SMALL
USER_CHARGES

@<TRIPOS>ATOM
      1 PG          2.6553    2.0495   -8.6953 P.3       1 ATP         1.7526
      2 O1G         1.9721    3.3316   -9.0693 O.2       1 ATP        -0.8534
      3 O2G         2.1068    0.7285   -9.4475 O.3       1 ATP        -0.7661
      4 O3G         4.2469    2.0097   -8.9731 O.3       1 ATP        -0.7661
      5 PB          1.2372    1.3822   -6.1963 P.3       1 ATP         1.6631
      6 O1B         0.4615    2.6721   -6.0482 O.co2     1 ATP        -0.8211
      7 O2B         0.5644    0.1145   -6.6736 O.co2     1 ATP        -0.8211
      8 O3B         2.5461    1.6620   -7.1295 O.3       1 ATP        -0.7954
      9 PA          3.0839   -0.0768   -4.4158 P.3       1 ATP         1.7782
     10 O1A         4.3457   -0.0393   -5.2282 O.2       1 ATP        -0.8134
     11 O2A         2.2462   -1.4549   -4.5445 O.3       1 ATP        -0.8257
     12 O3A         2.0063    1.0688   -4.7923 O.3       1 ATP        -0.8063
     13 O5'         3.2874    0.1331   -2.8242 O.3       1 ATP        -0.5763
     14 C5'         2.2816   -0.2918   -1.9206 C.3       1 ATP         0.1790
     15 C4'         2.7248    0.0226   -0.4980 C.3       1 ATP         0.1339
     16 O4'         2.4697    1.4219   -0.2462 O.3       1 ATP        -0.4040
     17 C3'         1.9404   -0.7419    0.5596 C.3       1 ATP         0.0906
     18 O3'         2.7418   -0.8086    1.7389 O.3       1 ATP        -0.5689
     19 C2'         0.7477    0.1630    0.7858 C.3       1 ATP         0.0660
     20 O2'         0.1373   -0.0577    2.0407 O.3       1 ATP        -0.5800
     21 C1'         1.3733    1.5427    0.6747 C.3       1 ATP         0.4216
     22 N9          0.4520    2.5240    0.1767 N.pl3     1 ATP        -0.5455
     23 C8          0.5305    3.2394   -0.9358 C.ar      1 ATP         0.2820
     24 N7         -0.4966    4.0680   -1.1145 N.pl3     1 ATP        -0.4970
     25 C5         -1.2879    3.8664   -0.0375 C.ar      1 ATP        -0.2773
     26 C6         -2.4754    4.4084    0.3577 C.ar      1 ATP         0.7637
     27 N6         -3.0892    5.3882   -0.4495 N.pl3     1 ATP        -0.9374
     28 N1         -3.0632    4.0158    1.5092 N.ar      1 ATP        -0.7408
     29 C2         -2.4008    3.0654    2.2262 C.ar      1 ATP         0.7215
     30 N3         -1.2259    2.4663    1.9260 N.ar      1 ATP        -0.6797
     31 C4         -0.7062    2.9047    0.7757 C.ar      1 ATP         0.6429
     32 HOG2        1.1657    0.4753   -9.3368 H         1 ATP         0.4781
     33 HOG3        4.5717    2.1325   -9.8905 H         1 ATP         0.4781
     34 HOA2        1.9180   -1.7296   -5.4270 H         1 ATP         0.4931
     35 H5'1        1.3494    0.2322   -2.1552 H         1 ATP         0.0438
     36 H5'2        2.1260   -1.3686   -2.0435 H         1 ATP         0.0438
     37 H4'         3.8049   -0.1388   -0.4009 H         1 ATP         0.1278
     38 H3'         1.6783   -1.7629    0.2715 H         1 ATP         0.1161
     39 HO3'        2.2232   -1.2979    2.3953 H         1 ATP         0.4111
     40 H2'        -0.0011    0.0027    0.0003 H         1 ATP         0.0477
     41 HO2'       -0.1563   -0.9855    2.0596 H         1 ATP         0.4259
     42 H1'         1.7826    1.9024    1.6451 H         1 ATP         0.1524
     43 H8          1.3437    3.1645   -1.6367 H         1 ATP         0.2610
     44 HN61       -2.6210    5.7042   -1.2748 H         1 ATP         0.4534
     45 HN62       -3.9356    5.8187   -0.1356 H         1 ATP         0.4534
     46 H2         -2.8752    2.7532    3.1495 H         1 ATP         0.0900
     47 H47        -0.6372    4.7004   -1.8900 H         1 ATP         0.5046
@<TRIPOS>BOND
     1    1    2 2
     2    1    3 1
     3    1    4 1
     4    1    8 1
     5    3   32 1
     6    4   33 1
     7    5    6 2
     8    5    7 1
     9    5    8 1
    10    5   12 1
    11    9   10 2
    12    9   11 1
    13    9   12 1
    14    9   13 1
    15   11   34 1
    16   13   14 1
    17   14   15 1
    18   14   35 1
    19   14   36 1
    20   15   16 1
    21   15   17 1
    22   15   37 1
    23   16   21 1
    24   17   18 1
    25   17   19 1
    26   17   38 1
    27   18   39 1
    28   19   20 1
    29   19   21 1
    30   19   40 1
    31   20   41 1
    32   21   22 1
    33   21   42 1
    34   22   23 ar
    35   22   31 ar
    36   23   24 ar
    37   23   43 1
    38   24   25 ar
    39   24   47 1
    40   25   26 ar
    41   25   31 ar
    42   26   27 1
    43   26   28 ar
    44   27   44 1
    45   27   45 1
    46   28   29 ar
    47   29   30 ar
    48   29   46 1
    49   30   31 ar
@<TRIPOS>SUBSTRUCTURE
     1 ATP         1 GROUP 0 A     ****
@<TRIPOS>MOLECULE
[[5-(6-amino-7,8-dihydropurin-8-ylium-9-yl)-3,4-dihydroxy-tetrahydrofuran-2-yl]methoxy-hydroxy-phosphoryl] phosphono phosphate
   47    49     1     0     0
SMALL
USER_CHARGES

@<TRIPOS>ATOM
      1 PG          5.1601    4.7975   -4.8845 P.3       1 ATP         1.7526
      2 O1G         4.6055    6.1839   -5.0283 O.2       1 ATP        -0.8534
      3 O2G         6.0238    4.2642   -6.1419 O.3       1 ATP        -0.7661
      4 O3G         6.1493    4.5777   -3.6255 O.3       1 ATP        -0.7661
      5 PB          2.9228    3.4525   -3.5110 P.3       1 ATP         1.6631
      6 O1B         3.6277    3.1603   -2.2052 O.co2     1 ATP        -0.8211
      7 O2B         1.9110    4.5713   -3.6213 O.co2     1 ATP        -0.8211
      8 O3B         4.0444    3.6454   -4.6803 O.3       1 ATP        -0.7954
      9 PA          2.8824    0.6133   -4.3155 P.3       1 ATP         1.7782
     10 O1A         4.0008    0.5891   -5.3166 O.2       1 ATP        -0.8134
     11 O2A         1.6103   -0.3046   -4.7113 O.3       1 ATP        -0.8257
     12 O3A         2.2407    2.0753   -4.0580 O.3       1 ATP        -0.8063
     13 O5'         3.2874    0.1331   -2.8242 O.3       1 ATP        -0.5763
     14 C5'         2.2816   -0.2918   -1.9206 C.3       1 ATP         0.1790
     15 C4'         2.7248    0.0226   -0.4980 C.3       1 ATP         0.1339
     16 O4'         2.4697    1.4219   -0.2462 O.3       1 ATP        -0.4040
     17 C3'         1.9404   -0.7419    0.5596 C.3       1 ATP         0.0906
     18 O3'         2.7418   -0.8086    1.7389 O.3       1 ATP        -0.5689
     19 C2'         0.7477    0.1630    0.7858 C.3       1 ATP         0.0660
     20 O2'         0.1373   -0.0577    2.0407 O.3       1 ATP        -0.5800
     21 C1'         1.3733    1.5427    0.6747 C.3       1 ATP         0.4216
     22 N9          0.4520    2.5240    0.1767 N.pl3     1 ATP        -0.5455
     23 C8         -0.8252    2.3702   -0.1405 C.ar      1 ATP         0.2820
     24 N7         -1.4086    3.4861   -0.5739 N.pl3     1 ATP        -0.4970
     25 C5         -0.4324    4.4197   -0.5299 C.ar      1 ATP        -0.2773
     26 C6         -0.4006    5.7465   -0.8439 C.ar      1 ATP         0.7637
     27 N6         -1.5714    6.3708   -1.3211 N.pl3     1 ATP        -0.9374
     28 N1          0.7370    6.4615   -0.7020 N.ar      1 ATP        -0.7408
     29 C2          1.8196    5.7785   -0.2355 C.ar      1 ATP         0.7215
     30 N3          1.8948    4.4713    0.1036 N.ar      1 ATP        -0.6797
     31 C4          0.7337    3.8311   -0.0629 C.ar      1 ATP         0.6429
     32 HOG2        6.8281    4.7579   -6.4092 H         1 ATP         0.4781
     33 HOG3        5.8071    4.7357   -2.7199 H         1 ATP         0.4781
     34 HOA2        1.7413   -1.2688   -4.8338 H         1 ATP         0.4931
     35 H5'1        1.3494    0.2322   -2.1552 H         1 ATP         0.0438
     36 H5'2        2.1260   -1.3686   -2.0435 H         1 ATP         0.0438
     37 H4'         3.8049   -0.1388   -0.4009 H         1 ATP         0.1278
     38 H3'         1.6783   -1.7629    0.2715 H         1 ATP         0.1161
     39 HO3'        2.2232   -1.2979    2.3953 H         1 ATP         0.4111
     40 H2'        -0.0011    0.0027    0.0003 H         1 ATP         0.0477
     41 HO2'       -0.1563   -0.9855    2.0596 H         1 ATP         0.4259
     42 H1'         1.7826    1.9024    1.6451 H         1 ATP         0.1524
     43 H8         -1.3516    1.4351   -0.0582 H         1 ATP         0.2610
     44 HN61       -2.3936    5.8204   -1.4664 H         1 ATP         0.4534
     45 HN62       -1.5348    7.3319   -1.5955 H         1 ATP         0.4534
     46 H2          2.7305    6.3553   -0.1232 H         1 ATP         0.0900
     47 H47        -2.3700    3.5931   -0.8665 H         1 ATP         0.5046
@<TRIPOS>BOND
     1    1    2 2
     2    1    3 1
     3    1    4 1
     4    1    8 1
     5    3   32 1
     6    4   33 1
     7    5    6 2
     8    5    7 1
     9    5    8 1
    10    5   12 1
    11    9   10 2
    12    9   11 1
    13    9   12 1
    14    9   13 1
    15   11   34 1
    16   13   14 1
    17   14   15 1
    18   14   35 1
    19   14   36 1
    20   15   16 1
    21   15   17 1
    22   15   37 1
    23   16   21 1
    24   17   18 1
    25   17   19 1
    26   17   38 1
    27   18   39 1
    28   19   20 1
    29   19   21 1
    30   19   40 1
    31   20   41 1
    32   21   22 1
    33   21   42 1
    34   22   23 ar
    35   22   31 ar
    36   23   24 ar
    37   23   43 1
    38   24   25 ar
    39   24   47 1
    40   25   26 ar
    41   25   31 ar
    42   26   27 1
    43   26   28 ar
    44   27   44 1
    45   27   45 1
    46   28   29 ar
    47   29   30 ar
    48   29   46 1
    49   30   31 ar
@<TRIPOS>SUBSTRUCTURE
     1 ATP         1 GROUP 0 A     ****
@<TRIPOS>MOLECULE
[[5-(6-amino-7,8-dihydropurin-8-ylium-9-yl)-3,4-dihydroxy-tetrahydrofuran-2-yl]methoxy-hydroxy-phosphoryl] phosphono phosphate
   47    49     1     0     0
SMALL
USER_CHARGES

@<TRIPOS>ATOM
      1 PG          0.4430    5.7290   -4.2482 P.3       1 ATP         1.7526
      2 O1G        -0.9666    5.6315   -4.7520 O.2       1 ATP        -0.8534
      3 O2G         1.4659    6.5339   -5.2059 O.3       1 ATP        -0.7661
      4 O3G         0.6143    6.4566   -2.8153 O.3       1 ATP        -0.7661
      5 PB          1.5062    3.1079   -5.0853 P.3       1 ATP         1.6631
      6 O1B         0.2026    2.4928   -5.5433 O.co2     1 ATP        -0.8211
      7 O2B         2.5281    3.6089   -6.0816 O.co2     1 ATP        -0.8211
      8 O3B         1.1775    4.3057   -4.0273 O.3       1 ATP        -0.7954
      9 PA          2.8824    0.6133   -4.3155 P.3       1 ATP         1.7782
     10 O1A         4.0008    0.5891   -5.3166 O.2       1 ATP        -0.8134
     11 O2A         1.6103   -0.3046   -4.7113 O.3       1 ATP        -0.8257
     12 O3A         2.2407    2.0753   -4.0580 O.3       1 ATP        -0.8063
     13 O5'         3.2874    0.1331   -2.8242 O.3       1 ATP        -0.5763
     14 C5'         2.2816   -0.2918   -1.9206 C.3       1 ATP         0.1790
     15 C4'         2.7248    0.0226   -0.4980 C.3       1 ATP         0.1339
     16 O4'         2.4697    1.4219   -0.2462 O.3       1 ATP        -0.4040
     17 C3'         1.9404   -0.7419    0.5596 C.3       1 ATP         0.0906
     18 O3'         2.7418   -0.8086    1.7389 O.3       1 ATP        -0.5689
     19 C2'         0.7477    0.1630    0.7858 C.3       1 ATP         0.0660
     20 O2'         0.1373   -0.0577    2.0407 O.3       1 ATP        -0.5800
     21 C1'         1.3733    1.5427    0.6747 C.3       1 ATP         0.4216
     22 N9          0.4520    2.5240    0.1767 N.pl3     1 ATP        -0.5455
     23 C8         -0.5899    2.3466   -0.6224 C.ar      1 ATP         0.2820
     24 N7         -1.2514    3.4689   -0.8989 N.pl3     1 ATP        -0.4970
     25 C5         -0.5826    4.4323   -0.2272 C.ar      1 ATP        -0.2773
     26 C6         -0.7636    5.7789   -0.1086 C.ar      1 ATP         0.7637
     27 N6         -1.8382    6.3927   -0.7843 N.pl3     1 ATP        -0.9374
     28 N1          0.0741    6.5233    0.6461 N.ar      1 ATP        -0.7408
     29 C2          1.0845    5.8486    1.2626 C.ar      1 ATP         0.7215
     30 N3          1.3516    4.5236    1.2116 N.ar      1 ATP        -0.6797
     31 C4          0.4827    3.8546    0.4481 C.ar      1 ATP         0.6429
     32 HOG2        1.6182    6.2080   -6.1184 H         1 ATP         0.4781
     33 HOG3        0.3171    7.3861   -2.7165 H         1 ATP         0.4781
     34 HOA2        1.1298   -0.1148   -5.5450 H         1 ATP         0.4931
     35 H5'1        1.3494    0.2322   -2.1552 H         1 ATP         0.0438
     36 H5'2        2.1260   -1.3686   -2.0435 H         1 ATP         0.0438
     37 H4'         3.8049   -0.1388   -0.4009 H         1 ATP         0.1278
     38 H3'         1.6783   -1.7629    0.2715 H         1 ATP         0.1161
     39 HO3'        2.2232   -1.2979    2.3953 H         1 ATP         0.4111
     40 H2'        -0.0011    0.0027    0.0003 H         1 ATP         0.0477
     41 HO2'       -0.6141    0.5574    2.1082 H         1 ATP         0.4259
     42 H1'         1.7826    1.9024    1.6451 H         1 ATP         0.1524
     43 H8         -0.8833    1.3888   -1.0158 H         1 ATP         0.2610
     44 HN61       -2.4225    5.8385   -1.3773 H         1 ATP         0.4534
     45 HN62       -1.9421    7.3862   -0.7348 H         1 ATP         0.4534
     46 H2          1.7546    6.4491    1.8670 H         1 ATP         0.0900
     47 H47        -2.0705    3.5612   -1.4834 H         1 ATP         0.5046
@<TRIPOS>BOND
     1    1    2 2
     2    1    3 1
     3    1    4 1
     4    1    8 1
     5    3   32 1
     6    4   33 1
     7    5    6 2
     8    5    7 1
     9    5    8 1
    10    5   12 1
    11    9   10 2
    12    9   11 1
    13    9   12 1
    14    9   13 1
    15   11   34 1
    16   13   14 1
    17   14   15 1
    18   14   35 1
    19   14   36 1
    20   15   16 1
    21   15   17 1
    22   15   37 1
    23   16   21 1
    24   17   18 1
    25   17   19 1
    26   17   38 1
    27   18   39 1
    28   19   20 1
    29   19   21 1
    30   19   40 1
    31   20   41 1
    32   21   22 1
    33   21   42 1
    34   22   23 ar
    35   22   31 ar
    36   23   24 ar
    37   23   43 1
    38   24   25 ar
    39   24   47 1
    40   25   26 ar
    41   25   31 ar
    42   26   27 1
    43   26   28 ar
    44   27   44 1
    45   27   45 1
    46   28   29 ar
    47   29   30 ar
    48   29   46 1
    49   30   31 ar
@<TRIPOS>SUBSTRUCTURE
     1 ATP         1 GROUP 0 A     ****
@<TRIPOS>MOLECULE
[[5-(6-amino-7,8-dihydropurin-8-ylium-9-yl)-3,4-dihydroxy-tetrahydrofuran-2-yl]methoxy-hydroxy-phosphoryl] phosphono phosphate
   47    49     1     0     0
SMALL
USER_CHARGES

@<TRIPOS>ATOM
      1 PG         -6.7916   -3.7807    3.1052 P.3       1 ATP         1.7526
      2 O1G        -7.8548   -4.7264    2.6300 O.2       1 ATP        -0.8534
      3 O2G        -6.5238   -2.5048    2.1504 O.3       1 ATP        -0.7661
      4 O3G        -7.0556   -3.1190    4.5558 O.3       1 ATP        -0.7661
      5 PB         -4.3646   -5.1676    2.1635 P.3       1 ATP         1.6631
      6 O1B        -5.0221   -6.4539    1.7158 O.co2     1 ATP        -0.8211
      7 O2B        -3.9106   -4.1303    1.1608 O.co2     1 ATP        -0.8211
      8 O3B        -5.3257   -4.4435    3.2653 O.3       1 ATP        -0.7954
      9 PA         -1.7114   -6.2782    2.8245 P.3       1 ATP         1.7782
     10 O1A        -1.8534   -7.6771    2.2986 O.2       1 ATP        -0.8134
     11 O2A        -0.8887   -6.1658    4.2130 O.3       1 ATP        -0.8257
     12 O3A        -3.1111   -5.5326    3.1416 O.3       1 ATP        -0.8063
     13 O5'        -0.9731   -5.2421    1.8246 O.3       1 ATP        -0.5763
     14 C5'        -0.7840   -3.8935    2.2172 C.3       1 ATP         0.1790
     15 C4'        -0.0724   -3.1466    1.1027 C.3       1 ATP         0.1339
     16 O4'        -0.8674   -3.1929   -0.0945 O.3       1 ATP        -0.4040
     17 C3'         0.1338   -1.6715    1.4027 C.3       1 ATP         0.0906
     18 O3'         1.2893   -1.4445    2.1808 O.3       1 ATP        -0.5689
     19 C2'         0.2158   -1.0724    0.0128 C.3       1 ATP         0.0660
     20 O2'         1.5141   -1.2448   -0.5513 O.3       1 ATP        -0.5800
     21 C1'        -0.7897   -1.9176   -0.7583 C.3       1 ATP         0.4216
     22 N9         -2.1040   -1.3333   -0.7704 N.pl3     1 ATP        -0.5455
     23 C8         -2.8739   -1.0133    0.2593 C.ar      1 ATP         0.2820
     24 N7         -4.0439   -0.4818   -0.0902 N.pl3     1 ATP        -0.4970
     25 C5         -4.0184   -0.4615   -1.4414 C.ar      1 ATP        -0.2773
     26 C6         -4.9120   -0.0399   -2.3814 C.ar      1 ATP         0.7637
     27 N6         -6.1459    0.5018   -1.9665 N.pl3     1 ATP        -0.9374
     28 N1         -4.6250   -0.1374   -3.6981 N.ar      1 ATP        -0.7408
     29 C2         -3.4114   -0.6729   -4.0088 C.ar      1 ATP         0.7215
     30 N3         -2.4579   -1.1190   -3.1595 N.ar      1 ATP        -0.6797
     31 C4         -2.8124   -0.9904   -1.8776 C.ar      1 ATP         0.6429
     32 HOG2       -6.2359   -2.6562    1.2250 H         1 ATP         0.4781
     33 HOG3       -7.8611   -2.5755    4.6900 H         1 ATP         0.4781
     34 HOA2        0.0402   -6.4796    4.2404 H         1 ATP         0.4931
     35 H5'1       -1.7611   -3.4417    2.4168 H         1 ATP         0.0438
     36 H5'2       -0.1868   -3.8712    3.1345 H         1 ATP         0.0438
     37 H4'         0.8886   -3.6448    0.8780 H         1 ATP         0.1278
     38 H3'        -0.7374   -1.2358    1.9870 H         1 ATP         0.1161
     39 HO3'        1.3408   -0.4870    2.3219 H         1 ATP         0.4111
     40 H2'        -0.0384   -0.0310    0.0096 H         1 ATP         0.0477
     41 HO2'        2.1463   -0.7958    0.0370 H         1 ATP         0.4259
     42 H1'        -0.4769   -2.1002   -1.8093 H         1 ATP         0.1524
     43 H8         -2.5891   -1.1636    1.2862 H         1 ATP         0.2610
     44 HN61       -6.3657    0.5248   -0.9911 H         1 ATP         0.4534
     45 HN62       -6.8193    0.7669   -2.6568 H         1 ATP         0.4534
     46 H2         -3.1848   -0.7497   -5.0660 H         1 ATP         0.0900
     47 H47        -4.7768   -0.1684    0.5309 H         1 ATP         0.5046
@<TRIPOS>BOND
     1    1    2 2
     2    1    3 1
     3    1    4 1
     4    1    8 1
     5    3   32 1
     6    4   33 1
     7    5    6 2
     8    5    7 1
     9    5    8 1
    10    5   12 1
    11    9   10 2
    12    9   11 1
    13    9   12 1
    14    9   13 1
    15   11   34 1
    16   13   14 1
    17   14   15 1
    18   14   35 1
    19   14   36 1
    20   15   16 1
    21   15   17 1
    22   15   37 1
    23   16   21 1
    24   17   18 1
    25   17   19 1
    26   17   38 1
    27   18   39 1
    28   19   20 1
    29   19   21 1
    30   19   40 1
    31   20   41 1
    32   21   22 1
    33   21   42 1
    34   22   23 ar
    35   22   31 ar
    36   23   24 ar
    37   23   43 1
    38   24   25 ar
    39   24   47 1
    40   25   26 ar
    41   25   31 ar
    42   26   27 1
    43   26   28 ar
    44   27   44 1
    45   27   45 1
    46   28   29 ar
    47   29   30 ar
    48   29   46 1
    49   30   31 ar
@<TRIPOS>SUBSTRUCTURE
     1 ATP         1 GROUP 0 A     ****
@<TRIPOS>MOLECULE
[[5-(6-amino-7,8-dihydropurin-8-ylium-9-yl)-3,4-dihydroxy-tetrahydrofuran-2-yl]methoxy-hydroxy-phosphoryl] phosphono phosphate
   47    49     1     0     0
SMALL
USER_CHARGES

@<TRIPOS>ATOM
      1 PG          0.4955    2.2123   -8.2362 P.3       1 ATP         1.7526
      2 O1G        -0.8732    2.8161   -8.3480 O.2       1 ATP        -0.8534
      3 O2G         0.7631    0.9261   -9.1772 O.3       1 ATP        -0.7661
      4 O3G         1.7187    3.2054   -8.5961 O.3       1 ATP        -0.7661
      5 PB          0.1649    0.5493   -5.8225 P.3       1 ATP         1.6631
      6 O1B        -1.2038    1.0467   -5.4147 O.co2     1 ATP        -0.8211
      7 O2B         0.3436   -0.8023   -6.4777 O.co2     1 ATP        -0.8211
      8 O3B         0.8768    1.6811   -6.7576 O.3       1 ATP        -0.7954
      9 PA          2.7546    0.3893   -4.4162 P.3       1 ATP         1.7782
     10 O1A         3.5952    1.2918   -5.2721 O.2       1 ATP        -0.8134
     11 O2A         2.9233   -1.1869   -4.7393 O.3       1 ATP        -0.8257
     12 O3A         1.1614    0.6412   -4.5343 O.3       1 ATP        -0.8063
     13 O5'         3.0190    0.5130   -2.8246 O.3       1 ATP        -0.5763
     14 C5'         2.2816   -0.2918   -1.9206 C.3       1 ATP         0.1790
     15 C4'         2.7248    0.0226   -0.4980 C.3       1 ATP         0.1339
     16 O4'         2.4697    1.4219   -0.2462 O.3       1 ATP        -0.4040
     17 C3'         1.9404   -0.7419    0.5596 C.3       1 ATP         0.0906
     18 O3'         2.7418   -0.8086    1.7389 O.3       1 ATP        -0.5689
     19 C2'         0.7477    0.1630    0.7858 C.3       1 ATP         0.0660
     20 O2'         0.1373   -0.0577    2.0407 O.3       1 ATP        -0.5800
     21 C1'         1.3733    1.5427    0.6747 C.3       1 ATP         0.4216
     22 N9          0.4520    2.5240    0.1767 N.pl3     1 ATP        -0.5455
     23 C8         -0.8602    2.5861    0.3496 C.ar      1 ATP         0.2820
     24 N7         -1.4308    3.6326   -0.2443 N.pl3     1 ATP        -0.4970
     25 C5         -0.4080    4.2856   -0.8394 C.ar      1 ATP        -0.2773
     26 C6         -0.3432    5.4196   -1.5943 C.ar      1 ATP         0.7637
     27 N6         -1.5276    6.1333   -1.8702 N.pl3     1 ATP        -0.9374
     28 N1          0.8395    5.8603   -2.0764 N.ar      1 ATP        -0.7408
     29 C2          1.9319    5.1095   -1.7617 C.ar      1 ATP         0.7215
     30 N3          1.9773    3.9761   -1.0249 N.ar      1 ATP        -0.6797
     31 C4          0.7724    3.6031   -0.5836 C.ar      1 ATP         0.6429
     32 HOG2        0.2006    0.1304   -9.0650 H         1 ATP         0.4781
     33 HOG3        1.8341    4.0258   -8.0709 H         1 ATP         0.4781
     34 HOA2        3.8087   -1.5981   -4.6450 H         1 ATP         0.4931
     35 H5'1        1.2149   -0.0786   -2.0446 H         1 ATP         0.0438
     36 H5'2        2.4640   -1.3459   -2.1539 H         1 ATP         0.0438
     37 H4'         3.8049   -0.1388   -0.4009 H         1 ATP         0.1278
     38 H3'         1.6783   -1.7629    0.2715 H         1 ATP         0.1161
     39 HO3'        3.5554   -1.2733    1.4914 H         1 ATP         0.4111
     40 H2'        -0.0011    0.0027    0.0003 H         1 ATP         0.0477
     41 HO2'       -0.1563   -0.9855    2.0596 H         1 ATP         0.4259
     42 H1'         1.7826    1.9024    1.6451 H         1 ATP         0.1524
     43 H8         -1.4217    1.8638    0.9164 H         1 ATP         0.2610
     44 HN61       -2.4023    5.7711   -1.5477 H         1 ATP         0.4534
     45 HN62       -1.4857    6.9379   -2.4627 H         1 ATP         0.4534
     46 H2          2.8789    5.4660   -2.1503 H         1 ATP         0.0900
     47 H47        -2.4129    3.8706   -0.2402 H         1 ATP         0.5046
@<TRIPOS>BOND
     1    1    2 2
     2    1    3 1
     3    1    4 1
     4    1    8 1
     5    3   32 1
     6    4   33 1
     7    5    6 2
     8    5    7 1
     9    5    8 1
    10    5   12 1
    11    9   10 2
    12    9   11 1
    13    9   12 1
    14    9   13 1
    15   11   34 1
    16   13   14 1
    17   14   15 1
    18   14   35 1
    19   14   36 1
    20   15   16 1
    21   15   17 1
    22   15   37 1
    23   16   21 1
    24   17   18 1
    25   17   19 1
    26   17   38 1
    27   18   39 1
    28   19   20 1
    29   19   21 1
    30   19   40 1
    31   20   41 1
    32   21   22 1
    33   21   42 1
    34   22   23 ar
    35   22   31 ar
    36   23   24 ar
    37   23   43 1
    38   24   25 ar
    39   24   47 1
    40   25   26 ar
    41   25   31 ar
    42   26   27 1
    43   26   28 ar
    44   27   44 1
    45   27   45 1
    46   28   29 ar
    47   29   30 ar
    48   29   46 1
    49   30   31 ar
@<TRIPOS>SUBSTRUCTURE
     1 ATP         1 GROUP 0 A     ****
@<TRIPOS>MOLECULE
[[5-(6-amino-7,8-dihydropurin-8-ylium-9-yl)-3,4-dihydroxy-tetrahydrofuran-2-yl]methoxy-hydroxy-phosphoryl] phosphono phosphate
   47    49     1     0     0
SMALL
USER_CHARGES

@<TRIPOS>ATOM
      1 PG          6.0855   -4.6657   -4.9819 P.3       1 ATP         1.7526
      2 O1G         6.9720   -4.7649   -3.7757 O.2       1 ATP        -0.8534
      3 O2G         6.8255   -4.2270   -6.3499 O.3       1 ATP        -0.7661
      4 O3G         5.3178   -6.0289   -5.3873 O.3       1 ATP        -0.7661
      5 PB          4.9239   -1.9830   -4.5887 P.3       1 ATP         1.6631
      6 O1B         5.4626   -1.7262   -3.1990 O.co2     1 ATP        -0.8211
      7 O2B         5.5341   -1.3148   -5.8007 O.co2     1 ATP        -0.8211
      8 O3B         4.8830   -3.5937   -4.8456 O.3       1 ATP        -0.7954
      9 PA          2.1463   -2.2799   -3.6368 P.3       1 ATP         1.7782
     10 O1A         1.9958   -3.7731   -3.6708 O.2       1 ATP        -0.8134
     11 O2A         0.8287   -1.4640   -4.1009 O.3       1 ATP        -0.8257
     12 O3A         3.3175   -1.6992   -4.5889 O.3       1 ATP        -0.8063
     13 O5'         2.5233   -1.6622   -2.1894 O.3       1 ATP        -0.5763
     14 C5'         2.2816   -0.2918   -1.9206 C.3       1 ATP         0.1790
     15 C4'         2.7248    0.0226   -0.4980 C.3       1 ATP         0.1339
     16 O4'         2.4697    1.4219   -0.2462 O.3       1 ATP        -0.4040
     17 C3'         1.9404   -0.7419    0.5596 C.3       1 ATP         0.0906
     18 O3'         2.7418   -0.8086    1.7389 O.3       1 ATP        -0.5689
     19 C2'         0.7477    0.1630    0.7858 C.3       1 ATP         0.0660
     20 O2'         0.1373   -0.0577    2.0407 O.3       1 ATP        -0.5800
     21 C1'         1.3733    1.5427    0.6747 C.3       1 ATP         0.4216
     22 N9          0.4520    2.5240    0.1767 N.pl3     1 ATP        -0.5455
     23 C8          0.5305    3.2394   -0.9358 C.ar      1 ATP         0.2820
     24 N7         -0.4966    4.0680   -1.1145 N.pl3     1 ATP        -0.4970
     25 C5         -1.2879    3.8664   -0.0375 C.ar      1 ATP        -0.2773
     26 C6         -2.4754    4.4084    0.3577 C.ar      1 ATP         0.7637
     27 N6         -3.0892    5.3882   -0.4495 N.pl3     1 ATP        -0.9374
     28 N1         -3.0632    4.0158    1.5092 N.ar      1 ATP        -0.7408
     29 C2         -2.4008    3.0654    2.2262 C.ar      1 ATP         0.7215
     30 N3         -1.2259    2.4663    1.9260 N.ar      1 ATP        -0.6797
     31 C4         -0.7062    2.9047    0.7757 C.ar      1 ATP         0.6429
     32 HOG2        7.2831   -3.3602   -6.3854 H         1 ATP         0.4781
     33 HOG3        5.8478   -6.8234   -5.6110 H         1 ATP         0.4781
     34 HOA2       -0.0059   -1.5871   -3.6006 H         1 ATP         0.4931
     35 H5'1        2.8428    0.3150   -2.6387 H         1 ATP         0.0438
     36 H5'2        1.2124   -0.0896   -2.0417 H         1 ATP         0.0438
     37 H4'         3.8049   -0.1388   -0.4009 H         1 ATP         0.1278
     38 H3'         1.6783   -1.7629    0.2715 H         1 ATP         0.1161
     39 HO3'        2.2232   -1.2979    2.3953 H         1 ATP         0.4111
     40 H2'        -0.0011    0.0027    0.0003 H         1 ATP         0.0477
     41 HO2'       -0.1563   -0.9855    2.0596 H         1 ATP         0.4259
     42 H1'         1.7826    1.9024    1.6451 H         1 ATP         0.1524
     43 H8          1.3437    3.1645   -1.6367 H         1 ATP         0.2610
     44 HN61       -2.6210    5.7042   -1.2748 H         1 ATP         0.4534
     45 HN62       -3.9356    5.8187   -0.1356 H         1 ATP         0.4534
     46 H2         -2.8752    2.7532    3.1495 H         1 ATP         0.0900
     47 H47        -0.6372    4.7004   -1.8900 H         1 ATP         0.5046
@<TRIPOS>BOND
     1    1    2 2
     2    1    3 1
     3    1    4 1
     4    1    8 1
     5    3   32 1
     6    4   33 1
     7    5    6 2
     8    5    7 1
     9    5    8 1
    10    5   12 1
    11    9   10 2
    12    9   11 1
    13    9   12 1
    14    9   13 1
    15   11   34 1
    16   13   14 1
    17   14   15 1
    18   14   35 1
    19   14   36 1
    20   15   16 1
    21   15   17 1
    22   15   37 1
    23   16   21 1
    24   17   18 1
    25   17   19 1
    26   17   38 1
    27   18   39 1
    28   19   20 1
    29   19   21 1
    30   19   40 1
    31   20   41 1
    32   21   22 1
    33   21   42 1
    34   22   23 ar
    35   22   31 ar
    36   23   24 ar
    37   23   43 1
    38   24   25 ar
    39   24   47 1
    40   25   26 ar
    41   25   31 ar
    42   26   27 1
    43   26   28 ar
    44   27   44 1
    45   27   45 1
    46   28   29 ar
    47   29   30 ar
    48   29   46 1
    49   30   31 ar
@<TRIPOS>SUBSTRUCTURE
     1 ATP         1 GROUP 0 A     ****
@<TRIPOS>MOLECULE
[[5-(6-amino-7,8-dihydropurin-8-ylium-9-yl)-3,4-dihydroxy-tetrahydrofuran-2-yl]methoxy-hydroxy-phosphoryl] phosphono phosphate
   47    49     1     0     0
SMALL
USER_CHARGES

@<TRIPOS>ATOM
      1 PG          1.7457    1.9299   -8.5633 P.3       1 ATP         1.7526
      2 O1G         1.4787    0.8110   -9.5262 O.2       1 ATP        -0.8534
      3 O2G         3.1201    2.7429   -8.8113 O.3       1 ATP        -0.7661
      4 O3G         0.6213    3.0901   -8.5255 O.3       1 ATP        -0.7661
      5 PB          0.7651    0.7356   -6.0507 P.3       1 ATP         1.6631
      6 O1B        -0.3894    1.6820   -5.8088 O.co2     1 ATP        -0.8211
      7 O2B         0.5327   -0.6672   -6.5665 O.co2     1 ATP        -0.8211
      8 O3B         1.8541    1.4733   -7.0161 O.3       1 ATP        -0.7954
      9 PA          3.0839   -0.0768   -4.4158 P.3       1 ATP         1.7782
     10 O1A         4.2162    0.4129   -5.2713 O.2       1 ATP        -0.8134
     11 O2A         2.7515   -1.6512   -4.5832 O.3       1 ATP        -0.8257
     12 O3A         1.6665    0.6506   -4.6937 O.3       1 ATP        -0.8063
     13 O5'         3.2874    0.1331   -2.8242 O.3       1 ATP        -0.5763
     14 C5'         2.2816   -0.2918   -1.9206 C.3       1 ATP         0.1790
     15 C4'         2.7248    0.0226   -0.4980 C.3       1 ATP         0.1339
     16 O4'         2.4697    1.4219   -0.2462 O.3       1 ATP        -0.4040
     17 C3'         1.9404   -0.7419    0.5596 C.3       1 ATP         0.0906
     18 O3'         2.7418   -0.8086    1.7389 O.3       1 ATP        -0.5689
     19 C2'         0.7477    0.1630    0.7858 C.3       1 ATP         0.0660
     20 O2'         0.1373   -0.0577    2.0407 O.3       1 ATP        -0.5800
     21 C1'         1.3733    1.5427    0.6747 C.3       1 ATP         0.4216
     22 N9          0.4520    2.5240    0.1767 N.pl3     1 ATP        -0.5455
     23 C8         -0.8602    2.5861    0.3496 C.ar      1 ATP         0.2820
     24 N7         -1.4308    3.6326   -0.2443 N.pl3     1 ATP        -0.4970
     25 C5         -0.4080    4.2856   -0.8394 C.ar      1 ATP        -0.2773
     26 C6         -0.3432    5.4196   -1.5943 C.ar      1 ATP         0.7637
     27 N6         -1.5276    6.1333   -1.8702 N.pl3     1 ATP        -0.9374
     28 N1          0.8395    5.8603   -2.0764 N.ar      1 ATP        -0.7408
     29 C2          1.9319    5.1095   -1.7617 C.ar      1 ATP         0.7215
     30 N3          1.9773    3.9761   -1.0249 N.ar      1 ATP        -0.6797
     31 C4          0.7724    3.6031   -0.5836 C.ar      1 ATP         0.6429
     32 HOG2        3.9721    2.2585   -8.7722 H         1 ATP         0.4781
     33 HOG3       -0.2987    2.8517   -8.2827 H         1 ATP         0.4781
     34 HOA2        2.4892   -1.9892   -5.4658 H         1 ATP         0.4931
     35 H5'1        1.3494    0.2322   -2.1552 H         1 ATP         0.0438
     36 H5'2        2.1260   -1.3686   -2.0435 H         1 ATP         0.0438
     37 H4'         3.8049   -0.1388   -0.4009 H         1 ATP         0.1278
     38 H3'         1.6783   -1.7629    0.2715 H         1 ATP         0.1161
     39 HO3'        2.2232   -1.2979    2.3953 H         1 ATP         0.4111
     40 H2'        -0.0011    0.0027    0.0003 H         1 ATP         0.0477
     41 HO2'       -0.1563   -0.9855    2.0596 H         1 ATP         0.4259
     42 H1'         1.7826    1.9024    1.6451 H         1 ATP         0.1524
     43 H8         -1.4217    1.8638    0.9164 H         1 ATP         0.2610
     44 HN61       -2.4023    5.7711   -1.5477 H         1 ATP         0.4534
     45 HN62       -1.4857    6.9379   -2.4627 H         1 ATP         0.4534
     46 H2          2.8789    5.4660   -2.1503 H         1 ATP         0.0900
     47 H47        -2.4129    3.8706   -0.2402 H         1 ATP         0.5046
@<TRIPOS>BOND
     1    1    2 2
     2    1    3 1
     3    1    4 1
     4    1    8 1
     5    3   32 1
     6    4   33 1
     7    5    6 2
     8    5    7 1
     9    5    8 1
    10    5   12 1
    11    9   10 2
    12    9   11 1
    13    9   12 1
    14    9   13 1
    15   11   34 1
    16   13   14 1
    17   14   15 1
    18   14   35 1
    19   14   36 1
    20   15   16 1
    21   15   17 1
    22   15   37 1
    23   16   21 1
    24   17   18 1
    25   17   19 1
    26   17   38 1
    27   18   39 1
    28   19   20 1
    29   19   21 1
    30   19   40 1
    31   20   41 1
    32   21   22 1
    33   21   42 1
    34   22   23 ar
    35   22   31 ar
    36   23   24 ar
    37   23   43 1
    38   24   25 ar
    39   24   47 1
    40   25   26 ar
    41   25   31 ar
    42   26   27 1
    43   26   28 ar
    44   27   44 1
    45   27   45 1
    46   28   29 ar
    47   29   30 ar
    48   29   46 1
    49   30   31 ar
@<TRIPOS>SUBSTRUCTURE
     1 ATP         1 GROUP 0 A     ****
@<TRIPOS>MOLECULE
[[5-(6-amino-7,8-dihydropurin-8-ylium-9-yl)-3,4-dihydroxy-tetrahydrofuran-2-yl]methoxy-hydroxy-phosphoryl] phosphono phosphate
   47    49     1     0     0
SMALL
USER_CHARGES

@<TRIPOS>ATOM
      1 PG         -2.7313    1.0845   -5.6599 P.3       1 ATP         1.7526
      2 O1G        -2.8856    2.1128   -6.7413 O.2       1 ATP        -0.8534
      3 O2G        -3.6272    1.3312   -4.3378 O.3       1 ATP        -0.7661
      4 O3G        -3.1001   -0.4290   -6.0900 O.3       1 ATP        -0.7661
      5 PB          0.1649    0.5493   -5.8225 P.3       1 ATP         1.6631
      6 O1B         0.0837   -0.8925   -6.2722 O.co2     1 ATP        -0.8211
      7 O2B         0.5241    1.6528   -6.7925 O.co2     1 ATP        -0.8211
      8 O3B        -1.2305    0.9446   -5.0751 O.3       1 ATP        -0.7954
      9 PA          2.7546    0.3893   -4.4162 P.3       1 ATP         1.7782
     10 O1A         3.5952    1.2918   -5.2721 O.2       1 ATP        -0.8134
     11 O2A         2.9233   -1.1869   -4.7393 O.3       1 ATP        -0.8257
     12 O3A         1.1614    0.6412   -4.5343 O.3       1 ATP        -0.8063
     13 O5'         3.0190    0.5130   -2.8246 O.3       1 ATP        -0.5763
     14 C5'         2.2816   -0.2918   -1.9206 C.3       1 ATP         0.1790
     15 C4'         2.7248    0.0226   -0.4980 C.3       1 ATP         0.1339
     16 O4'         2.4697    1.4219   -0.2462 O.3       1 ATP        -0.4040
     17 C3'         1.9404   -0.7419    0.5596 C.3       1 ATP         0.0906
     18 O3'         2.7418   -0.8086    1.7389 O.3       1 ATP        -0.5689
     19 C2'         0.7477    0.1630    0.7858 C.3       1 ATP         0.0660
     20 O2'         0.1373   -0.0577    2.0407 O.3       1 ATP        -0.5800
     21 C1'         1.3733    1.5427    0.6747 C.3       1 ATP         0.4216
     22 N9          0.4520    2.5240    0.1767 N.pl3     1 ATP        -0.5455
     23 C8         -0.5899    2.3466   -0.6224 C.ar      1 ATP         0.2820
     24 N7         -1.2514    3.4689   -0.8989 N.pl3     1 ATP        -0.4970
     25 C5         -0.5826    4.4323   -0.2272 C.ar      1 ATP        -0.2773
     26 C6         -0.7636    5.7789   -0.1086 C.ar      1 ATP         0.7637
     27 N6         -1.8382    6.3927   -0.7843 N.pl3     1 ATP        -0.9374
     28 N1          0.0741    6.5233    0.6461 N.ar      1 ATP        -0.7408
     29 C2          1.0845    5.8486    1.2626 C.ar      1 ATP         0.7215
     30 N3          1.3516    4.5236    1.2116 N.ar      1 ATP        -0.6797
     31 C4          0.4827    3.8546    0.4481 C.ar      1 ATP         0.6429
     32 HOG2       -3.5004    2.1581   -3.8257 H         1 ATP         0.4781
     33 HOG3       -2.5986   -0.8505   -6.8201 H         1 ATP         0.4781
     34 HOA2        3.8087   -1.5981   -4.6450 H         1 ATP         0.4931
     35 H5'1        1.2149   -0.0786   -2.0446 H         1 ATP         0.0438
     36 H5'2        2.4640   -1.3459   -2.1539 H         1 ATP         0.0438
     37 H4'         3.8049   -0.1388   -0.4009 H         1 ATP         0.1278
     38 H3'         1.6783   -1.7629    0.2715 H         1 ATP         0.1161
     39 HO3'        2.2232   -1.2979    2.3953 H         1 ATP         0.4111
     40 H2'        -0.0011    0.0027    0.0003 H         1 ATP         0.0477
     41 HO2'       -0.6141    0.5574    2.1082 H         1 ATP         0.4259
     42 H1'         1.7826    1.9024    1.6451 H         1 ATP         0.1524
     43 H8         -0.8833    1.3888   -1.0158 H         1 ATP         0.2610
     44 HN61       -2.4225    5.8385   -1.3773 H         1 ATP         0.4534
     45 HN62       -1.9421    7.3862   -0.7348 H         1 ATP         0.4534
     46 H2          1.7546    6.4491    1.8670 H         1 ATP         0.0900
     47 H47        -2.0705    3.5612   -1.4834 H         1 ATP         0.5046
@<TRIPOS>BOND
     1    1    2 2
     2    1    3 1
     3    1    4 1
     4    1    8 1
     5    3   32 1
     6    4   33 1
     7    5    6 2
     8    5    7 1
     9    5    8 1
    10    5   12 1
    11    9   10 2
    12    9   11 1
    13    9   12 1
    14    9   13 1
    15   11   34 1
    16   13   14 1
    17   14   15 1
    18   14   35 1
    19   14   36 1
    20   15   16 1
    21   15   17 1
    22   15   37 1
    23   16   21 1
    24   17   18 1
    25   17   19 1
    26   17   38 1
    27   18   39 1
    28   19   20 1
    29   19   21 1
    30   19   40 1
    31   20   41 1
    32   21   22 1
    33   21   42 1
    34   22   23 ar
    35   22   31 ar
    36   23   24 ar
    37   23   43 1
    38   24   25 ar
    39   24   47 1
    40   25   26 ar
    41   25   31 ar
    42   26   27 1
    43   26   28 ar
    44   27   44 1
    45   27   45 1
    46   28   29 ar
    47   29   30 ar
    48   29   46 1
    49   30   31 ar
@<TRIPOS>SUBSTRUCTURE
     1 ATP         1 GROUP 0 A     ****
@<TRIPOS>MOLECULE
[[5-(6-amino-7,8-dihydropurin-8-ylium-9-yl)-3,4-dihydroxy-tetrahydrofuran-2-yl]methoxy-hydroxy-phosphoryl] phosphono phosphate
   47    49     1     0     0
SMALL
USER_CHARGES

@<TRIPOS>ATOM
      1 PG         -0.6923    3.5901   -6.5178 P.3       1 ATP         1.7526
      2 O1G        -0.1155    4.2924   -7.7114 O.2       1 ATP        -0.8534
      3 O2G        -1.3023    4.5559   -5.3748 O.3       1 ATP        -0.7661
      4 O3G        -1.9042    2.5697   -6.8373 O.3       1 ATP        -0.7661
      5 PB          1.2372    1.3822   -6.1963 P.3       1 ATP         1.6631
      6 O1B         0.2953    0.2387   -6.5003 O.co2     1 ATP        -0.8211
      7 O2B         2.2555    1.8490   -7.2127 O.co2     1 ATP        -0.8211
      8 O3B         0.3599    2.6681   -5.7074 O.3       1 ATP        -0.7954
      9 PA          3.0839   -0.0768   -4.4158 P.3       1 ATP         1.7782
     10 O1A         4.3457   -0.0393   -5.2282 O.2       1 ATP        -0.8134
     11 O2A         2.2462   -1.4549   -4.5445 O.3       1 ATP        -0.8257
     12 O3A         2.0063    1.0688   -4.7923 O.3       1 ATP        -0.8063
     13 O5'         3.2874    0.1331   -2.8242 O.3       1 ATP        -0.5763
     14 C5'         2.2816   -0.2918   -1.9206 C.3       1 ATP         0.1790
     15 C4'         2.7248    0.0226   -0.4980 C.3       1 ATP         0.1339
     16 O4'         2.4697    1.4219   -0.2462 O.3       1 ATP        -0.4040
     17 C3'         1.9404   -0.7419    0.5596 C.3       1 ATP         0.0906
     18 O3'         2.7418   -0.8086    1.7389 O.3       1 ATP        -0.5689
     19 C2'         0.7477    0.1630    0.7858 C.3       1 ATP         0.0660
     20 O2'         0.1373   -0.0577    2.0407 O.3       1 ATP        -0.5800
     21 C1'         1.3733    1.5427    0.6747 C.3       1 ATP         0.4216
     22 N9          0.4520    2.5240    0.1767 N.pl3     1 ATP        -0.5455
     23 C8         -0.8602    2.5861    0.3496 C.ar      1 ATP         0.2820
     24 N7         -1.4308    3.6326   -0.2443 N.pl3     1 ATP        -0.4970
     25 C5         -0.4080    4.2856   -0.8394 C.ar      1 ATP        -0.2773
     26 C6         -0.3432    5.4196   -1.5943 C.ar      1 ATP         0.7637
     27 N6         -1.5276    6.1333   -1.8702 N.pl3     1 ATP        -0.9374
     28 N1          0.8395    5.8603   -2.0764 N.ar      1 ATP        -0.7408
     29 C2          1.9319    5.1095   -1.7617 C.ar      1 ATP         0.7215
     30 N3          1.9773    3.9761   -1.0249 N.ar      1 ATP        -0.6797
     31 C4          0.7724    3.6031   -0.5836 C.ar      1 ATP         0.6429
     32 HOG2       -0.7123    5.2069   -4.9386 H         1 ATP         0.4781
     33 HOG3       -1.7404    1.8115   -7.4378 H         1 ATP         0.4781
     34 HOA2        1.9180   -1.7296   -5.4270 H         1 ATP         0.4931
     35 H5'1        1.3494    0.2322   -2.1552 H         1 ATP         0.0438
     36 H5'2        2.1260   -1.3686   -2.0435 H         1 ATP         0.0438
     37 H4'         3.8049   -0.1388   -0.4009 H         1 ATP         0.1278
     38 H3'         1.6783   -1.7629    0.2715 H         1 ATP         0.1161
     39 HO3'        2.2232   -1.2979    2.3953 H         1 ATP         0.4111
     40 H2'        -0.0011    0.0027    0.0003 H         1 ATP         0.0477
     41 HO2'       -0.1563   -0.9855    2.0596 H         1 ATP         0.4259
     42 H1'         1.7826    1.9024    1.6451 H         1 ATP         0.1524
     43 H8         -1.4217    1.8638    0.9164 H         1 ATP         0.2610
     44 HN61       -2.4023    5.7711   -1.5477 H         1 ATP         0.4534
     45 HN62       -1.4857    6.9379   -2.4627 H         1 ATP         0.4534
     46 H2          2.8789    5.4660   -2.1503 H         1 ATP         0.0900
     47 H47        -2.4129    3.8706   -0.2402 H         1 ATP         0.5046
@<TRIPOS>BOND
     1    1    2 2
     2    1    3 1
     3    1    4 1
     4    1    8 1
     5    3   32 1
     6    4   33 1
     7    5    6 2
     8    5    7 1
     9    5    8 1
    10    5   12 1
    11    9   10 2
    12    9   11 1
    13    9   12 1
    14    9   13 1
    15   11   34 1
    16   13   14 1
    17   14   15 1
    18   14   35 1
    19   14   36 1
    20   15   16 1
    21   15   17 1
    22   15   37 1
    23   16   21 1
    24   17   18 1
    25   17   19 1
    26   17   38 1
    27   18   39 1
    28   19   20 1
    29   19   21 1
    30   19   40 1
    31   20   41 1
    32   21   22 1
    33   21   42 1
    34   22   23 ar
    35   22   31 ar
    36   23   24 ar
    37   23   43 1
    38   24   25 ar
    39   24   47 1
    40   25   26 ar
    41   25   31 ar
    42   26   27 1
    43   26   28 ar
    44   27   44 1
    45   27   45 1
    46   28   29 ar
    47   29   30 ar
    48   29   46 1
    49   30   31 ar
@<TRIPOS>SUBSTRUCTURE
     1 ATP         1 GROUP 0 A     ****
@<TRIPOS>MOLECULE
[[5-(6-amino-7,8-dihydropurin-8-ylium-9-yl)-3,4-dihydroxy-tetrahydrofuran-2-yl]methoxy-hydroxy-phosphoryl] phosphono phosphate
   47    49     1     0     0
SMALL
USER_CHARGES

@<TRIPOS>ATOM
      1 PG          0.6692    4.5425   -5.6085 P.3       1 ATP         1.7526
      2 O1G        -0.7241    4.8163   -6.0924 O.2       1 ATP        -0.8534
      3 O2G         1.8501    4.9497   -6.6337 O.3       1 ATP        -0.7661
      4 O3G         1.0828    5.2922   -4.2378 O.3       1 ATP        -0.7661
      5 PB          0.2709    1.9711   -4.2191 P.3       1 ATP         1.6631
      6 O1B         0.5827    2.4436   -2.8166 O.co2     1 ATP        -0.8211
      7 O2B        -1.1530    1.7166   -4.6611 O.co2     1 ATP        -0.8211
      8 O3B         0.9742    2.9884   -5.2833 O.3       1 ATP        -0.7954
      9 PA          2.7546    0.3893   -4.4162 P.3       1 ATP         1.7782
     10 O1A         3.5952    1.2918   -5.2721 O.2       1 ATP        -0.8134
     11 O2A         2.9233   -1.1869   -4.7393 O.3       1 ATP        -0.8257
     12 O3A         1.1614    0.6412   -4.5343 O.3       1 ATP        -0.8063
     13 O5'         3.0190    0.5130   -2.8246 O.3       1 ATP        -0.5763
     14 C5'         2.2816   -0.2918   -1.9206 C.3       1 ATP         0.1790
     15 C4'         2.7248    0.0226   -0.4980 C.3       1 ATP         0.1339
     16 O4'         2.4697    1.4219   -0.2462 O.3       1 ATP        -0.4040
     17 C3'         1.9404   -0.7419    0.5596 C.3       1 ATP         0.0906
     18 O3'         2.7418   -0.8086    1.7389 O.3       1 ATP        -0.5689
     19 C2'         0.7477    0.1630    0.7858 C.3       1 ATP         0.0660
     20 O2'         0.1373   -0.0577    2.0407 O.3       1 ATP        -0.5800
     21 C1'         1.3733    1.5427    0.6747 C.3       1 ATP         0.4216
     22 N9          0.4520    2.5240    0.1767 N.pl3     1 ATP        -0.5455
     23 C8         -0.8252    2.3702   -0.1405 C.ar      1 ATP         0.2820
     24 N7         -1.4086    3.4861   -0.5739 N.pl3     1 ATP        -0.4970
     25 C5         -0.4324    4.4197   -0.5299 C.ar      1 ATP        -0.2773
     26 C6         -0.4006    5.7465   -0.8439 C.ar      1 ATP         0.7637
     27 N6         -1.5714    6.3708   -1.3211 N.pl3     1 ATP        -0.9374
     28 N1          0.7370    6.4615   -0.7020 N.ar      1 ATP        -0.7408
     29 C2          1.8196    5.7785   -0.2355 C.ar      1 ATP         0.7215
     30 N3          1.8948    4.4713    0.1036 N.ar      1 ATP        -0.6797
     31 C4          0.7337    3.8311   -0.0629 C.ar      1 ATP         0.6429
     32 HOG2        1.8762    4.5288   -7.5193 H         1 ATP         0.4781
     33 HOG3        0.5651    5.1133   -3.4241 H         1 ATP         0.4781
     34 HOA2        3.8087   -1.5981   -4.6450 H         1 ATP         0.4931
     35 H5'1        1.2149   -0.0786   -2.0446 H         1 ATP         0.0438
     36 H5'2        2.4640   -1.3459   -2.1539 H         1 ATP         0.0438
     37 H4'         3.8049   -0.1388   -0.4009 H         1 ATP         0.1278
     38 H3'         1.6783   -1.7629    0.2715 H         1 ATP         0.1161
     39 HO3'        2.2232   -1.2979    2.3953 H         1 ATP         0.4111
     40 H2'        -0.0011    0.0027    0.0003 H         1 ATP         0.0477
     41 HO2'       -0.6141    0.5574    2.1082 H         1 ATP         0.4259
     42 H1'         1.7826    1.9024    1.6451 H         1 ATP         0.1524
     43 H8         -1.3516    1.4351   -0.0582 H         1 ATP         0.2610
     44 HN61       -2.3936    5.8204   -1.4664 H         1 ATP         0.4534
     45 HN62       -1.5348    7.3319   -1.5955 H         1 ATP         0.4534
     46 H2          2.7305    6.3553   -0.1232 H         1 ATP         0.0900
     47 H47        -2.3700    3.5931   -0.8665 H         1 ATP         0.5046
@<TRIPOS>BOND
     1    1    2 2
     2    1    3 1
     3    1    4 1
     4    1    8 1
     5    3   32 1
     6    4   33 1
     7    5    6 2
     8    5    7 1
     9    5    8 1
    10    5   12 1
    11    9   10 2
    12    9   11 1
    13    9   12 1
    14    9   13 1
    15   11   34 1
    16   13   14 1
    17   14   15 1
    18   14   35 1
    19   14   36 1
    20   15   16 1
    21   15   17 1
    22   15   37 1
    23   16   21 1
    24   17   18 1
    25   17   19 1
    26   17   38 1
    27   18   39 1
    28   19   20 1
    29   19   21 1
    30   19   40 1
    31   20   41 1
    32   21   22 1
    33   21   42 1
    34   22   23 ar
    35   22   31 ar
    36   23   24 ar
    37   23   43 1
    38   24   25 ar
    39   24   47 1
    40   25   26 ar
    41   25   31 ar
    42   26   27 1
    43   26   28 ar
    44   27   44 1
    45   27   45 1
    46   28   29 ar
    47   29   30 ar
    48   29   46 1
    49   30   31 ar
@<TRIPOS>SUBSTRUCTURE
     1 ATP         1 GROUP 0 A     ****
@<TRIPOS>MOLECULE
[[5-(6-amino-7,8-dihydropurin-8-ylium-9-yl)-3,4-dihydroxy-tetrahydrofuran-2-yl]methoxy-hydroxy-phosphoryl] phosphono phosphate
   47    49     1     0     0
SMALL
USER_CHARGES

@<TRIPOS>ATOM
      1 PG          0.8960    4.6389   -6.9492 P.3       1 ATP         1.7526
      2 O1G        -0.0171    4.0738   -7.9967 O.2       1 ATP        -0.8534
      3 O2G         2.3667    5.0618   -7.4687 O.3       1 ATP        -0.7661
      4 O3G         0.3575    5.9721   -6.2114 O.3       1 ATP        -0.7661
      5 PB          0.1997    2.9392   -4.6411 P.3       1 ATP         1.6631
      6 O1B        -0.3968    4.0168   -3.7634 O.co2     1 ATP        -0.8211
      7 O2B        -0.6796    1.9493   -5.3722 O.co2     1 ATP        -0.8211
      8 O3B         1.2067    3.6381   -5.7180 O.3       1 ATP        -0.7954
      9 PA          2.3549    0.9657   -4.2291 P.3       1 ATP         1.7782
     10 O1A         3.3321    1.3922   -5.2859 O.2       1 ATP        -0.8134
     11 O2A         1.4086   -0.2755   -4.6549 O.3       1 ATP        -0.8257
     12 O3A         1.3092    2.1133   -3.7762 O.3       1 ATP        -0.8063
     13 O5'         3.0190    0.5130   -2.8246 O.3       1 ATP        -0.5763
     14 C5'         2.2816   -0.2918   -1.9206 C.3       1 ATP         0.1790
     15 C4'         2.7248    0.0226   -0.4980 C.3       1 ATP         0.1339
     16 O4'         2.4697    1.4219   -0.2462 O.3       1 ATP        -0.4040
     17 C3'         1.9404   -0.7419    0.5596 C.3       1 ATP         0.0906
     18 O3'         2.7418   -0.8086    1.7389 O.3       1 ATP        -0.5689
     19 C2'         0.7477    0.1630    0.7858 C.3       1 ATP         0.0660
     20 O2'         0.1373   -0.0577    2.0407 O.3       1 ATP        -0.5800
     21 C1'         1.3733    1.5427    0.6747 C.3       1 ATP         0.4216
     22 N9          0.4520    2.5240    0.1767 N.pl3     1 ATP        -0.5455
     23 C8         -0.5899    2.3466   -0.6224 C.ar      1 ATP         0.2820
     24 N7         -1.2514    3.4689   -0.8989 N.pl3     1 ATP        -0.4970
     25 C5         -0.5826    4.4323   -0.2272 C.ar      1 ATP        -0.2773
     26 C6         -0.7636    5.7789   -0.1086 C.ar      1 ATP         0.7637
     27 N6         -1.8382    6.3927   -0.7843 N.pl3     1 ATP        -0.9374
     28 N1          0.0741    6.5233    0.6461 N.ar      1 ATP        -0.7408
     29 C2          1.0845    5.8486    1.2626 C.ar      1 ATP         0.7215
     30 N3          1.3516    4.5236    1.2116 N.ar      1 ATP        -0.6797
     31 C4          0.4827    3.8546    0.4481 C.ar      1 ATP         0.6429
     32 HOG2        2.4449    5.7439   -8.1691 H         1 ATP         0.4781
     33 HOG3       -0.4893    5.9322   -5.7178 H         1 ATP         0.4781
     34 HOA2        0.8220   -0.1786   -5.4350 H         1 ATP         0.4931
     35 H5'1        1.2149   -0.0786   -2.0446 H         1 ATP         0.0438
     36 H5'2        2.4640   -1.3459   -2.1539 H         1 ATP         0.0438
     37 H4'         3.8049   -0.1388   -0.4009 H         1 ATP         0.1278
     38 H3'         1.6783   -1.7629    0.2715 H         1 ATP         0.1161
     39 HO3'        2.2232   -1.2979    2.3953 H         1 ATP         0.4111
     40 H2'        -0.0011    0.0027    0.0003 H         1 ATP         0.0477
     41 HO2'       -0.6141    0.5574    2.1082 H         1 ATP         0.4259
     42 H1'         1.7826    1.9024    1.6451 H         1 ATP         0.1524
     43 H8         -0.8833    1.3888   -1.0158 H         1 ATP         0.2610
     44 HN61       -2.4225    5.8385   -1.3773 H         1 ATP         0.4534
     45 HN62       -1.9421    7.3862   -0.7348 H         1 ATP         0.4534
     46 H2          1.7546    6.4491    1.8670 H         1 ATP         0.0900
     47 H47        -2.0705    3.5612   -1.4834 H         1 ATP         0.5046
@<TRIPOS>BOND
     1    1    2 2
     2    1    3 1
     3    1    4 1
     4    1    8 1
     5    3   32 1
     6    4   33 1
     7    5    6 2
     8    5    7 1
     9    5    8 1
    10    5   12 1
    11    9   10 2
    12    9   11 1
    13    9   12 1
    14    9   13 1
    15   11   34 1
    16   13   14 1
    17   14   15 1
    18   14   35 1
    19   14   36 1
    20   15   16 1
    21   15   17 1
    22   15   37 1
    23   16   21 1
    24   17   18 1
    25   17   19 1
    26   17   38 1
    27   18   39 1
    28   19   20 1
    29   19   21 1
    30   19   40 1
    31   20   41 1
    32   21   22 1
    33   21   42 1
    34   22   23 ar
    35   22   31 ar
    36   23   24 ar
    37   23   43 1
    38   24   25 ar
    39   24   47 1
    40   25   26 ar
    41   25   31 ar
    42   26   27 1
    43   26   28 ar
    44   27   44 1
    45   27   45 1
    46   28   29 ar
    47   29   30 ar
    48   29   46 1
    49   30   31 ar
@<TRIPOS>SUBSTRUCTURE
     1 ATP         1 GROUP 0 A     ****
@<TRIPOS>MOLECULE
[[5-(6-amino-7,8-dihydropurin-8-ylium-9-yl)-3,4-dihydroxy-tetrahydrofuran-2-yl]methoxy-hydroxy-phosphoryl] phosphono phosphate
   47    49     1     0     0
SMALL
USER_CHARGES

@<TRIPOS>ATOM
      1 PG         -1.9689   -0.4773   -6.2555 P.3       1 ATP         1.7526
      2 O1G        -2.1439    0.3826   -7.4723 O.2       1 ATP        -0.8534
      3 O2G        -2.7823    0.0047   -4.9450 O.3       1 ATP        -0.7661
      4 O3G        -2.4155   -2.0205   -6.4318 O.3       1 ATP        -0.7661
      5 PB          0.5901    0.5585   -5.2165 P.3       1 ATP         1.6631
      6 O1B         0.9425    1.4501   -6.3862 O.co2     1 ATP        -0.8211
      7 O2B         0.0670    1.1373   -3.9207 O.co2     1 ATP        -0.8211
      8 O3B        -0.4447   -0.5941   -5.7290 O.3       1 ATP        -0.7954
      9 PA          3.3376   -0.0311   -4.3149 P.3       1 ATP         1.7782
     10 O1A         4.1251    0.9098   -5.1800 O.2       1 ATP        -0.8134
     11 O2A         4.0362   -1.4721   -4.0854 O.3       1 ATP        -0.8257
     12 O3A         1.8686   -0.3982   -4.8828 O.3       1 ATP        -0.8063
     13 O5'         3.0190    0.5130   -2.8246 O.3       1 ATP        -0.5763
     14 C5'         2.2816   -0.2918   -1.9206 C.3       1 ATP         0.1790
     15 C4'         2.7248    0.0226   -0.4980 C.3       1 ATP         0.1339
     16 O4'         2.4697    1.4219   -0.2462 O.3       1 ATP        -0.4040
     17 C3'         1.9404   -0.7419    0.5596 C.3       1 ATP         0.0906
     18 O3'         2.7418   -0.8086    1.7389 O.3       1 ATP        -0.5689
     19 C2'         0.7477    0.1630    0.7858 C.3       1 ATP         0.0660
     20 O2'         0.1373   -0.0577    2.0407 O.3       1 ATP        -0.5800
     21 C1'         1.3733    1.5427    0.6747 C.3       1 ATP         0.4216
     22 N9          0.4520    2.5240    0.1767 N.pl3     1 ATP        -0.5455
     23 C8         -0.8602    2.5861    0.3496 C.ar      1 ATP         0.2820
     24 N7         -1.4308    3.6326   -0.2443 N.pl3     1 ATP        -0.4970
     25 C5         -0.4080    4.2856   -0.8394 C.ar      1 ATP        -0.2773
     26 C6         -0.3432    5.4196   -1.5943 C.ar      1 ATP         0.7637
     27 N6         -1.5276    6.1333   -1.8702 N.pl3     1 ATP        -0.9374
     28 N1          0.8395    5.8603   -2.0764 N.ar      1 ATP        -0.7408
     29 C2          1.9319    5.1095   -1.7617 C.ar      1 ATP         0.7215
     30 N3          1.9773    3.9761   -1.0249 N.ar      1 ATP        -0.6797
     31 C4          0.7724    3.6031   -0.5836 C.ar      1 ATP         0.6429
     32 HOG2       -2.5978    0.8927   -4.5715 H         1 ATP         0.4781
     33 HOG3       -3.3460   -2.2211   -6.6688 H         1 ATP         0.4781
     34 HOA2        4.9191   -1.5086   -3.6596 H         1 ATP         0.4931
     35 H5'1        1.2149   -0.0786   -2.0446 H         1 ATP         0.0438
     36 H5'2        2.4640   -1.3459   -2.1539 H         1 ATP         0.0438
     37 H4'         3.8049   -0.1388   -0.4009 H         1 ATP         0.1278
     38 H3'         1.6783   -1.7629    0.2715 H         1 ATP         0.1161
     39 HO3'        2.2232   -1.2979    2.3953 H         1 ATP         0.4111
     40 H2'        -0.0011    0.0027    0.0003 H         1 ATP         0.0477
     41 HO2'       -0.1563   -0.9855    2.0596 H         1 ATP         0.4259
     42 H1'         1.7826    1.9024    1.6451 H         1 ATP         0.1524
     43 H8         -1.4217    1.8638    0.9164 H         1 ATP         0.2610
     44 HN61       -1.4731    6.9898   -2.3837 H         1 ATP         0.4534
     45 HN62       -2.3893    5.8226   -1.4686 H         1 ATP         0.4534
     46 H2          2.8789    5.4660   -2.1503 H         1 ATP         0.0900
     47 H47        -2.4129    3.8706   -0.2402 H         1 ATP         0.5046
@<TRIPOS>BOND
     1    1    2 2
     2    1    3 1
     3    1    4 1
     4    1    8 1
     5    3   32 1
     6    4   33 1
     7    5    6 2
     8    5    7 1
     9    5    8 1
    10    5   12 1
    11    9   10 2
    12    9   11 1
    13    9   12 1
    14    9   13 1
    15   11   34 1
    16   13   14 1
    17   14   15 1
    18   14   35 1
    19   14   36 1
    20   15   16 1
    21   15   17 1
    22   15   37 1
    23   16   21 1
    24   17   18 1
    25   17   19 1
    26   17   38 1
    27   18   39 1
    28   19   20 1
    29   19   21 1
    30   19   40 1
    31   20   41 1
    32   21   22 1
    33   21   42 1
    34   22   23 ar
    35   22   31 ar
    36   23   24 ar
    37   23   43 1
    38   24   25 ar
    39   24   47 1
    40   25   26 ar
    41   25   31 ar
    42   26   27 1
    43   26   28 ar
    44   27   44 1
    45   27   45 1
    46   28   29 ar
    47   29   30 ar
    48   29   46 1
    49   30   31 ar
@<TRIPOS>SUBSTRUCTURE
     1 ATP         1 GROUP 0 A     ****
@<TRIPOS>MOLECULE
[[5-(6-amino-7,8-dihydropurin-8-ylium-9-yl)-3,4-dihydroxy-tetrahydrofuran-2-yl]methoxy-hydroxy-phosphoryl] phosphono phosphate
   47    49     1     0     0
SMALL
USER_CHARGES

@<TRIPOS>ATOM
      1 PG         -0.3128   -1.6445   -7.4198 P.3       1 ATP         1.7526
      2 O1G         0.1949   -1.4181   -8.8131 O.2       1 ATP        -0.8534
      3 O2G        -1.8428   -1.1940   -7.1594 O.3       1 ATP        -0.7661
      4 O3G        -0.2791   -3.1792   -6.9145 O.3       1 ATP        -0.7661
      5 PB          0.7651    0.7356   -6.0507 P.3       1 ATP         1.6631
      6 O1B         1.6324    1.2479   -7.1789 O.co2     1 ATP        -0.8211
      7 O2B        -0.5539    1.3954   -5.7156 O.co2     1 ATP        -0.8211
      8 O3B         0.5098   -0.8610   -6.2694 O.3       1 ATP        -0.7954
      9 PA          3.0839   -0.0768   -4.4158 P.3       1 ATP         1.7782
     10 O1A         4.2162    0.4129   -5.2713 O.2       1 ATP        -0.8134
     11 O2A         2.7515   -1.6512   -4.5832 O.3       1 ATP        -0.8257
     12 O3A         1.6665    0.6506   -4.6937 O.3       1 ATP        -0.8063
     13 O5'         3.2874    0.1331   -2.8242 O.3       1 ATP        -0.5763
     14 C5'         2.2816   -0.2918   -1.9206 C.3       1 ATP         0.1790
     15 C4'         2.7248    0.0226   -0.4980 C.3       1 ATP         0.1339
     16 O4'         2.4697    1.4219   -0.2462 O.3       1 ATP        -0.4040
     17 C3'         1.9404   -0.7419    0.5596 C.3       1 ATP         0.0906
     18 O3'         2.7418   -0.8086    1.7389 O.3       1 ATP        -0.5689
     19 C2'         0.7477    0.1630    0.7858 C.3       1 ATP         0.0660
     20 O2'         0.1373   -0.0577    2.0407 O.3       1 ATP        -0.5800
     21 C1'         1.3733    1.5427    0.6747 C.3       1 ATP         0.4216
     22 N9          0.4520    2.5240    0.1767 N.pl3     1 ATP        -0.5455
     23 C8         -0.8602    2.5861    0.3496 C.ar      1 ATP         0.2820
     24 N7         -1.4308    3.6326   -0.2443 N.pl3     1 ATP        -0.4970
     25 C5         -0.4080    4.2856   -0.8394 C.ar      1 ATP        -0.2773
     26 C6         -0.3432    5.4196   -1.5943 C.ar      1 ATP         0.7637
     27 N6         -1.5276    6.1333   -1.8702 N.pl3     1 ATP        -0.9374
     28 N1          0.8395    5.8603   -2.0764 N.ar      1 ATP        -0.7408
     29 C2          1.9319    5.1095   -1.7617 C.ar      1 ATP         0.7215
     30 N3          1.9773    3.9761   -1.0249 N.ar      1 ATP        -0.6797
     31 C4          0.7724    3.6031   -0.5836 C.ar      1 ATP         0.6429
     32 HOG2       -2.0911   -0.2550   -7.2960 H         1 ATP         0.4781
     33 HOG3       -0.7905   -3.8535   -7.4104 H         1 ATP         0.4781
     34 HOA2        3.4501   -2.3079   -4.3764 H         1 ATP         0.4931
     35 H5'1        1.3494    0.2322   -2.1552 H         1 ATP         0.0438
     36 H5'2        2.1260   -1.3686   -2.0435 H         1 ATP         0.0438
     37 H4'         3.8049   -0.1388   -0.4009 H         1 ATP         0.1278
     38 H3'         1.6783   -1.7629    0.2715 H         1 ATP         0.1161
     39 HO3'        3.5554   -1.2733    1.4914 H         1 ATP         0.4111
     40 H2'        -0.0011    0.0027    0.0003 H         1 ATP         0.0477
     41 HO2'       -0.1563   -0.9855    2.0596 H         1 ATP         0.4259
     42 H1'         1.7826    1.9024    1.6451 H         1 ATP         0.1524
     43 H8         -1.4217    1.8638    0.9164 H         1 ATP         0.2610
     44 HN61       -1.4731    6.9898   -2.3837 H         1 ATP         0.4534
     45 HN62       -2.3893    5.8226   -1.4686 H         1 ATP         0.4534
     46 H2          2.8789    5.4660   -2.1503 H         1 ATP         0.0900
     47 H47        -2.4129    3.8706   -0.2402 H         1 ATP         0.5046
@<TRIPOS>BOND
     1    1    2 2
     2    1    3 1
     3    1    4 1
     4    1    8 1
     5    3   32 1
     6    4   33 1
     7    5    6 2
     8    5    7 1
     9    5    8 1
    10    5   12 1
    11    9   10 2
    12    9   11 1
    13    9   12 1
    14    9   13 1
    15   11   34 1
    16   13   14 1
    17   14   15 1
    18   14   35 1
    19   14   36 1
    20   15   16 1
    21   15   17 1
    22   15   37 1
    23   16   21 1
    24   17   18 1
    25   17   19 1
    26   17   38 1
    27   18   39 1
    28   19   20 1
    29   19   21 1
    30   19   40 1
    31   20   41 1
    32   21   22 1
    33   21   42 1
    34   22   23 ar
    35   22   31 ar
    36   23   24 ar
    37   23   43 1
    38   24   25 ar
    39   24   47 1
    40   25   26 ar
    41   25   31 ar
    42   26   27 1
    43   26   28 ar
    44   27   44 1
    45   27   45 1
    46   28   29 ar
    47   29   30 ar
    48   29   46 1
    49   30   31 ar
@<TRIPOS>SUBSTRUCTURE
     1 ATP         1 GROUP 0 A     ****
@<TRIPOS>MOLECULE
[[5-(6-amino-7,8-dihydropurin-8-ylium-9-yl)-3,4-dihydroxy-tetrahydrofuran-2-yl]methoxy-hydroxy-phosphoryl] phosphono phosphate
   47    49     1     0     0
SMALL
USER_CHARGES

@<TRIPOS>ATOM
      1 PG         -0.2209   -1.9213   -7.3872 P.3       1 ATP         1.7526
      2 O1G        -1.7155   -2.0442   -7.3497 O.2       1 ATP        -0.8534
      3 O2G         0.5909   -3.3137   -7.2691 O.3       1 ATP        -0.7661
      4 O3G         0.3820   -1.2443   -8.7252 O.3       1 ATP        -0.7661
      5 PB          0.1649    0.5493   -5.8225 P.3       1 ATP         1.6631
      6 O1B         0.7244    1.4114   -6.9321 O.co2     1 ATP        -0.8211
      7 O2B        -1.2606    0.7153   -5.3451 O.co2     1 ATP        -0.8211
      8 O3B         0.4090   -1.0185   -6.2032 O.3       1 ATP        -0.7954
      9 PA          2.7546    0.3893   -4.4162 P.3       1 ATP         1.7782
     10 O1A         3.5952    1.2918   -5.2721 O.2       1 ATP        -0.8134
     11 O2A         2.9233   -1.1869   -4.7393 O.3       1 ATP        -0.8257
     12 O3A         1.1614    0.6412   -4.5343 O.3       1 ATP        -0.8063
     13 O5'         3.0190    0.5130   -2.8246 O.3       1 ATP        -0.5763
     14 C5'         2.2816   -0.2918   -1.9206 C.3       1 ATP         0.1790
     15 C4'         2.7248    0.0226   -0.4980 C.3       1 ATP         0.1339
     16 O4'         2.4697    1.4219   -0.2462 O.3       1 ATP        -0.4040
     17 C3'         1.9404   -0.7419    0.5596 C.3       1 ATP         0.0906
     18 O3'         2.7418   -0.8086    1.7389 O.3       1 ATP        -0.5689
     19 C2'         0.7477    0.1630    0.7858 C.3       1 ATP         0.0660
     20 O2'         0.1373   -0.0577    2.0407 O.3       1 ATP        -0.5800
     21 C1'         1.3733    1.5427    0.6747 C.3       1 ATP         0.4216
     22 N9          0.4520    2.5240    0.1767 N.pl3     1 ATP        -0.5455
     23 C8         -0.5899    2.3466   -0.6224 C.ar      1 ATP         0.2820
     24 N7         -1.2514    3.4689   -0.8989 N.pl3     1 ATP        -0.4970
     25 C5         -0.5826    4.4323   -0.2272 C.ar      1 ATP        -0.2773
     26 C6         -0.7636    5.7789   -0.1086 C.ar      1 ATP         0.7637
     27 N6         -1.8382    6.3927   -0.7843 N.pl3     1 ATP        -0.9374
     28 N1          0.0741    6.5233    0.6461 N.ar      1 ATP        -0.7408
     29 C2          1.0845    5.8486    1.2626 C.ar      1 ATP         0.7215
     30 N3          1.3516    4.5236    1.2116 N.ar      1 ATP        -0.6797
     31 C4          0.4827    3.8546    0.4481 C.ar      1 ATP         0.6429
     32 HOG2        0.4456   -4.0071   -7.9475 H         1 ATP         0.4781
     33 HOG3        0.1145   -0.3291   -8.9558 H         1 ATP         0.4781
     34 HOA2        2.7054   -1.5125   -5.6385 H         1 ATP         0.4931
     35 H5'1        1.2149   -0.0786   -2.0446 H         1 ATP         0.0438
     36 H5'2        2.4640   -1.3459   -2.1539 H         1 ATP         0.0438
     37 H4'         3.8049   -0.1388   -0.4009 H         1 ATP         0.1278
     38 H3'         1.6783   -1.7629    0.2715 H         1 ATP         0.1161
     39 HO3'        2.2232   -1.2979    2.3953 H         1 ATP         0.4111
     40 H2'        -0.0011    0.0027    0.0003 H         1 ATP         0.0477
     41 HO2'       -0.6141    0.5574    2.1082 H         1 ATP         0.4259
     42 H1'         1.7826    1.9024    1.6451 H         1 ATP         0.1524
     43 H8         -0.8833    1.3888   -1.0158 H         1 ATP         0.2610
     44 HN61       -2.4225    5.8385   -1.3773 H         1 ATP         0.4534
     45 HN62       -1.9421    7.3862   -0.7348 H         1 ATP         0.4534
     46 H2          1.7546    6.4491    1.8670 H         1 ATP         0.0900
     47 H47        -2.0705    3.5612   -1.4834 H         1 ATP         0.5046
@<TRIPOS>BOND
     1    1    2 2
     2    1    3 1
     3    1    4 1
     4    1    8 1
     5    3   32 1
     6    4   33 1
     7    5    6 2
     8    5    7 1
     9    5    8 1
    10    5   12 1
    11    9   10 2
    12    9   11 1
    13    9   12 1
    14    9   13 1
    15   11   34 1
    16   13   14 1
    17   14   15 1
    18   14   35 1
    19   14   36 1
    20   15   16 1
    21   15   17 1
    22   15   37 1
    23   16   21 1
    24   17   18 1
    25   17   19 1
    26   17   38 1
    27   18   39 1
    28   19   20 1
    29   19   21 1
    30   19   40 1
    31   20   41 1
    32   21   22 1
    33   21   42 1
    34   22   23 ar
    35   22   31 ar
    36   23   24 ar
    37   23   43 1
    38   24   25 ar
    39   24   47 1
    40   25   26 ar
    41   25   31 ar
    42   26   27 1
    43   26   28 ar
    44   27   44 1
    45   27   45 1
    46   28   29 ar
    47   29   30 ar
    48   29   46 1
    49   30   31 ar
@<TRIPOS>SUBSTRUCTURE
     1 ATP         1 GROUP 0 A     ****
@<TRIPOS>MOLECULE
[[5-(6-amino-7,8-dihydropurin-8-ylium-9-yl)-3,4-dihydroxy-tetrahydrofuran-2-yl]methoxy-hydroxy-phosphoryl] phosphono phosphate
   47    49     1     0     0
SMALL
USER_CHARGES

@<TRIPOS>ATOM
      1 PG         -1.4812    3.1964   -5.1712 P.3       1 ATP         1.7526
      2 O1G        -1.1769    4.2797   -6.1633 O.2       1 ATP        -0.8534
      3 O2G        -1.7160    3.6955   -3.6522 O.3       1 ATP        -0.7661
      4 O3G        -2.8014    2.3205   -5.4900 O.3       1 ATP        -0.7661
      5 PB          1.2378    2.2201   -4.5753 P.3       1 ATP         1.6631
      6 O1B         1.9767    3.0069   -5.6347 O.co2     1 ATP        -0.8211
      7 O2B         1.2885    2.6277   -3.1196 O.co2     1 ATP        -0.8211
      8 O3B        -0.3245    2.0765   -5.0234 O.3       1 ATP        -0.7954
      9 PA          3.0839   -0.0768   -4.4158 P.3       1 ATP         1.7782
     10 O1A         4.2162    0.4129   -5.2713 O.2       1 ATP        -0.8134
     11 O2A         2.7515   -1.6512   -4.5832 O.3       1 ATP        -0.8257
     12 O3A         1.6665    0.6506   -4.6937 O.3       1 ATP        -0.8063
     13 O5'         3.2874    0.1331   -2.8242 O.3       1 ATP        -0.5763
     14 C5'         2.2816   -0.2918   -1.9206 C.3       1 ATP         0.1790
     15 C4'         2.7248    0.0226   -0.4980 C.3       1 ATP         0.1339
     16 O4'         2.4697    1.4219   -0.2462 O.3       1 ATP        -0.4040
     17 C3'         1.9404   -0.7419    0.5596 C.3       1 ATP         0.0906
     18 O3'         2.7418   -0.8086    1.7389 O.3       1 ATP        -0.5689
     19 C2'         0.7477    0.1630    0.7858 C.3       1 ATP         0.0660
     20 O2'         0.1373   -0.0577    2.0407 O.3       1 ATP        -0.5800
     21 C1'         1.3733    1.5427    0.6747 C.3       1 ATP         0.4216
     22 N9          0.4520    2.5240    0.1767 N.pl3     1 ATP        -0.5455
     23 C8         -0.8252    2.3702   -0.1405 C.ar      1 ATP         0.2820
     24 N7         -1.4086    3.4861   -0.5739 N.pl3     1 ATP        -0.4970
     25 C5         -0.4324    4.4197   -0.5299 C.ar      1 ATP        -0.2773
     26 C6         -0.4006    5.7465   -0.8439 C.ar      1 ATP         0.7637
     27 N6         -1.5714    6.3708   -1.3211 N.pl3     1 ATP        -0.9374
     28 N1          0.7370    6.4615   -0.7020 N.ar      1 ATP        -0.7408
     29 C2          1.8196    5.7785   -0.2355 C.ar      1 ATP         0.7215
     30 N3          1.8948    4.4713    0.1036 N.ar      1 ATP        -0.6797
     31 C4          0.7337    3.8311   -0.0629 C.ar      1 ATP         0.6429
     32 HOG2       -1.9185    3.0309   -2.9599 H         1 ATP         0.4781
     33 HOG3       -2.8465    1.8192   -6.3320 H         1 ATP         0.4781
     34 HOA2        2.4892   -1.9892   -5.4658 H         1 ATP         0.4931
     35 H5'1        1.3494    0.2322   -2.1552 H         1 ATP         0.0438
     36 H5'2        2.1260   -1.3686   -2.0435 H         1 ATP         0.0438
     37 H4'         3.8049   -0.1388   -0.4009 H         1 ATP         0.1278
     38 H3'         1.6783   -1.7629    0.2715 H         1 ATP         0.1161
     39 HO3'        3.5554   -1.2733    1.4914 H         1 ATP         0.4111
     40 H2'        -0.0011    0.0027    0.0003 H         1 ATP         0.0477
     41 HO2'       -0.6141    0.5574    2.1082 H         1 ATP         0.4259
     42 H1'         1.7826    1.9024    1.6451 H         1 ATP         0.1524
     43 H8         -1.3516    1.4351   -0.0582 H         1 ATP         0.2610
     44 HN61       -2.3936    5.8204   -1.4664 H         1 ATP         0.4534
     45 HN62       -1.5348    7.3319   -1.5955 H         1 ATP         0.4534
     46 H2          2.7305    6.3553   -0.1232 H         1 ATP         0.0900
     47 H47        -2.3700    3.5931   -0.8665 H         1 ATP         0.5046
@<TRIPOS>BOND
     1    1    2 2
     2    1    3 1
     3    1    4 1
     4    1    8 1
     5    3   32 1
     6    4   33 1
     7    5    6 2
     8    5    7 1
     9    5    8 1
    10    5   12 1
    11    9   10 2
    12    9   11 1
    13    9   12 1
    14    9   13 1
    15   11   34 1
    16   13   14 1
    17   14   15 1
    18   14   35 1
    19   14   36 1
    20   15   16 1
    21   15   17 1
    22   15   37 1
    23   16   21 1
    24   17   18 1
    25   17   19 1
    26   17   38 1
    27   18   39 1
    28   19   20 1
    29   19   21 1
    30   19   40 1
    31   20   41 1
    32   21   22 1
    33   21   42 1
    34   22   23 ar
    35   22   31 ar
    36   23   24 ar
    37   23   43 1
    38   24   25 ar
    39   24   47 1
    40   25   26 ar
    41   25   31 ar
    42   26   27 1
    43   26   28 ar
    44   27   44 1
    45   27   45 1
    46   28   29 ar
    47   29   30 ar
    48   29   46 1
    49   30   31 ar
@<TRIPOS>SUBSTRUCTURE
     1 ATP         1 GROUP 0 A     ****
@<TRIPOS>MOLECULE
[[5-(6-amino-7,8-dihydropurin-8-ylium-9-yl)-3,4-dihydroxy-tetrahydrofuran-2-yl]methoxy-hydroxy-phosphoryl] phosphono phosphate
   47    49     1     0     0
SMALL
USER_CHARGES

@<TRIPOS>ATOM
      1 PG         -1.3979   -1.6287   -6.9881 P.3       1 ATP         1.7526
      2 O1G        -1.3425   -3.0958   -7.2966 O.2       1 ATP        -0.8534
      3 O2G        -1.3329   -0.6490   -8.2716 O.3       1 ATP        -0.7661
      4 O3G        -2.7237   -1.1385   -6.2046 O.3       1 ATP        -0.7661
      5 PB          1.4182   -1.1116   -6.2790 P.3       1 ATP         1.6631
      6 O1B         1.8953   -2.5467   -6.2674 O.co2     1 ATP        -0.8211
      7 O2B         1.7526   -0.1847   -7.4265 O.co2     1 ATP        -0.8211
      8 O3B        -0.1968   -1.0942   -6.0472 O.3       1 ATP        -0.7954
      9 PA          3.3376   -0.0311   -4.3149 P.3       1 ATP         1.7782
     10 O1A         4.1251    0.9098   -5.1800 O.2       1 ATP        -0.8134
     11 O2A         4.0362   -1.4721   -4.0854 O.3       1 ATP        -0.8257
     12 O3A         1.8686   -0.3982   -4.8828 O.3       1 ATP        -0.8063
     13 O5'         3.0190    0.5130   -2.8246 O.3       1 ATP        -0.5763
     14 C5'         2.2816   -0.2918   -1.9206 C.3       1 ATP         0.1790
     15 C4'         2.7248    0.0226   -0.4980 C.3       1 ATP         0.1339
     16 O4'         2.4697    1.4219   -0.2462 O.3       1 ATP        -0.4040
     17 C3'         1.9404   -0.7419    0.5596 C.3       1 ATP         0.0906
     18 O3'         2.7418   -0.8086    1.7389 O.3       1 ATP        -0.5689
     19 C2'         0.7477    0.1630    0.7858 C.3       1 ATP         0.0660
     20 O2'         0.1373   -0.0577    2.0407 O.3       1 ATP        -0.5800
     21 C1'         1.3733    1.5427    0.6747 C.3       1 ATP         0.4216
     22 N9          0.4520    2.5240    0.1767 N.pl3     1 ATP        -0.5455
     23 C8         -0.8602    2.5861    0.3496 C.ar      1 ATP         0.2820
     24 N7         -1.4308    3.6326   -0.2443 N.pl3     1 ATP        -0.4970
     25 C5         -0.4080    4.2856   -0.8394 C.ar      1 ATP        -0.2773
     26 C6         -0.3432    5.4196   -1.5943 C.ar      1 ATP         0.7637
     27 N6         -1.5276    6.1333   -1.8702 N.pl3     1 ATP        -0.9374
     28 N1          0.8395    5.8603   -2.0764 N.ar      1 ATP        -0.7408
     29 C2          1.9319    5.1095   -1.7617 C.ar      1 ATP         0.7215
     30 N3          1.9773    3.9761   -1.0249 N.ar      1 ATP        -0.6797
     31 C4          0.7724    3.6031   -0.5836 C.ar      1 ATP         0.6429
     32 HOG2       -0.5468   -0.6850   -8.8571 H         1 ATP         0.4781
     33 HOG3       -3.6000   -1.2733   -6.6243 H         1 ATP         0.4781
     34 HOA2        4.9191   -1.5086   -3.6596 H         1 ATP         0.4931
     35 H5'1        1.2149   -0.0786   -2.0446 H         1 ATP         0.0438
     36 H5'2        2.4640   -1.3459   -2.1539 H         1 ATP         0.0438
     37 H4'         3.8049   -0.1388   -0.4009 H         1 ATP         0.1278
     38 H3'         1.6783   -1.7629    0.2715 H         1 ATP         0.1161
     39 HO3'        2.2232   -1.2979    2.3953 H         1 ATP         0.4111
     40 H2'        -0.0011    0.0027    0.0003 H         1 ATP         0.0477
     41 HO2'       -0.1563   -0.9855    2.0596 H         1 ATP         0.4259
     42 H1'         1.7826    1.9024    1.6451 H         1 ATP         0.1524
     43 H8         -1.4217    1.8638    0.9164 H         1 ATP         0.2610
     44 HN61       -2.4023    5.7711   -1.5477 H         1 ATP         0.4534
     45 HN62       -1.4857    6.9379   -2.4627 H         1 ATP         0.4534
     46 H2          2.8789    5.4660   -2.1503 H         1 ATP         0.0900
     47 H47        -2.4129    3.8706   -0.2402 H         1 ATP         0.5046
@<TRIPOS>BOND
     1    1    2 2
     2    1    3 1
     3    1    4 1
     4    1    8 1
     5    3   32 1
     6    4   33 1
     7    5    6 2
     8    5    7 1
     9    5    8 1
    10    5   12 1
    11    9   10 2
    12    9   11 1
    13    9   12 1
    14    9   13 1
    15   11   34 1
    16   13   14 1
    17   14   15 1
    18   14   35 1
    19   14   36 1
    20   15   16 1
    21   15   17 1
    22   15   37 1
    23   16   21 1
    24   17   18 1
    25   17   19 1
    26   17   38 1
    27   18   39 1
    28   19   20 1
    29   19   21 1
    30   19   40 1
    31   20   41 1
    32   21   22 1
    33   21   42 1
    34   22   23 ar
    35   22   31 ar
    36   23   24 ar
    37   23   43 1
    38   24   25 ar
    39   24   47 1
    40   25   26 ar
    41   25   31 ar
    42   26   27 1
    43   26   28 ar
    44   27   44 1
    45   27   45 1
    46   28   29 ar
    47   29   30 ar
    48   29   46 1
    49   30   31 ar
@<TRIPOS>SUBSTRUCTURE
     1 ATP         1 GROUP 0 A     ****
@<TRIPOS>MOLECULE
[[5-(6-amino-7,8-dihydropurin-8-ylium-9-yl)-3,4-dihydroxy-tetrahydrofuran-2-yl]methoxy-hydroxy-phosphoryl] phosphono phosphate
   47    49     1     0     0
SMALL
USER_CHARGES

@<TRIPOS>ATOM
      1 PG         -2.7313    1.0845   -5.6599 P.3       1 ATP         1.7526
      2 O1G        -3.2811   -0.1696   -6.2725 O.2       1 ATP        -0.8534
      3 O2G        -2.6288    2.3534   -6.6554 O.3       1 ATP        -0.7661
      4 O3G        -3.5641    1.6588   -4.3996 O.3       1 ATP        -0.7661
      5 PB          0.1649    0.5493   -5.8225 P.3       1 ATP         1.6631
      6 O1B         0.0837   -0.8925   -6.2722 O.co2     1 ATP        -0.8211
      7 O2B         0.5241    1.6528   -6.7925 O.co2     1 ATP        -0.8211
      8 O3B        -1.2305    0.9446   -5.0751 O.3       1 ATP        -0.7954
      9 PA          2.7546    0.3893   -4.4162 P.3       1 ATP         1.7782
     10 O1A         3.5952    1.2918   -5.2721 O.2       1 ATP        -0.8134
     11 O2A         2.9233   -1.1869   -4.7393 O.3       1 ATP        -0.8257
     12 O3A         1.1614    0.6412   -4.5343 O.3       1 ATP        -0.8063
     13 O5'         3.0190    0.5130   -2.8246 O.3       1 ATP        -0.5763
     14 C5'         2.2816   -0.2918   -1.9206 C.3       1 ATP         0.1790
     15 C4'         2.7248    0.0226   -0.4980 C.3       1 ATP         0.1339
     16 O4'         2.4697    1.4219   -0.2462 O.3       1 ATP        -0.4040
     17 C3'         1.9404   -0.7419    0.5596 C.3       1 ATP         0.0906
     18 O3'         2.7418   -0.8086    1.7389 O.3       1 ATP        -0.5689
     19 C2'         0.7477    0.1630    0.7858 C.3       1 ATP         0.0660
     20 O2'         0.1373   -0.0577    2.0407 O.3       1 ATP        -0.5800
     21 C1'         1.3733    1.5427    0.6747 C.3       1 ATP         0.4216
     22 N9          0.4520    2.5240    0.1767 N.pl3     1 ATP        -0.5455
     23 C8         -0.8252    2.3702   -0.1405 C.ar      1 ATP         0.2820
     24 N7         -1.4086    3.4861   -0.5739 N.pl3     1 ATP        -0.4970
     25 C5         -0.4324    4.4197   -0.5299 C.ar      1 ATP        -0.2773
     26 C6         -0.4006    5.7465   -0.8439 C.ar      1 ATP         0.7637
     27 N6         -1.5714    6.3708   -1.3211 N.pl3     1 ATP        -0.9374
     28 N1          0.7370    6.4615   -0.7020 N.ar      1 ATP        -0.7408
     29 C2          1.8196    5.7785   -0.2355 C.ar      1 ATP         0.7215
     30 N3          1.8948    4.4713    0.1036 N.ar      1 ATP        -0.6797
     31 C4          0.7337    3.8311   -0.0629 C.ar      1 ATP         0.6429
     32 HOG2       -3.4471    2.6958   -7.0740 H         1 ATP         0.4781
     33 HOG3       -3.6703    1.0946   -3.6042 H         1 ATP         0.4781
     34 HOA2        2.7054   -1.5125   -5.6385 H         1 ATP         0.4931
     35 H5'1        1.2149   -0.0786   -2.0446 H         1 ATP         0.0438
     36 H5'2        2.4640   -1.3459   -2.1539 H         1 ATP         0.0438
     37 H4'         3.8049   -0.1388   -0.4009 H         1 ATP         0.1278
     38 H3'         1.6783   -1.7629    0.2715 H         1 ATP         0.1161
     39 HO3'        2.2232   -1.2979    2.3953 H         1 ATP         0.4111
     40 H2'        -0.0011    0.0027    0.0003 H         1 ATP         0.0477
     41 HO2'       -0.1563   -0.9855    2.0596 H         1 ATP         0.4259
     42 H1'         1.7826    1.9024    1.6451 H         1 ATP         0.1524
     43 H8         -1.3516    1.4351   -0.0582 H         1 ATP         0.2610
     44 HN61       -2.3936    5.8204   -1.4664 H         1 ATP         0.4534
     45 HN62       -1.5348    7.3319   -1.5955 H         1 ATP         0.4534
     46 H2          2.7305    6.3553   -0.1232 H         1 ATP         0.0900
     47 H47        -2.3700    3.5931   -0.8665 H         1 ATP         0.5046
@<TRIPOS>BOND
     1    1    2 2
     2    1    3 1
     3    1    4 1
     4    1    8 1
     5    3   32 1
     6    4   33 1
     7    5    6 2
     8    5    7 1
     9    5    8 1
    10    5   12 1
    11    9   10 2
    12    9   11 1
    13    9   12 1
    14    9   13 1
    15   11   34 1
    16   13   14 1
    17   14   15 1
    18   14   35 1
    19   14   36 1
    20   15   16 1
    21   15   17 1
    22   15   37 1
    23   16   21 1
    24   17   18 1
    25   17   19 1
    26   17   38 1
    27   18   39 1
    28   19   20 1
    29   19   21 1
    30   19   40 1
    31   20   41 1
    32   21   22 1
    33   21   42 1
    34   22   23 ar
    35   22   31 ar
    36   23   24 ar
    37   23   43 1
    38   24   25 ar
    39   24   47 1
    40   25   26 ar
    41   25   31 ar
    42   26   27 1
    43   26   28 ar
    44   27   44 1
    45   27   45 1
    46   28   29 ar
    47   29   30 ar
    48   29   46 1
    49   30   31 ar
@<TRIPOS>SUBSTRUCTURE
     1 ATP         1 GROUP 0 A     ****
@<TRIPOS>MOLECULE
[[5-(6-amino-7,8-dihydropurin-8-ylium-9-yl)-3,4-dihydroxy-tetrahydrofuran-2-yl]methoxy-hydroxy-phosphoryl] phosphono phosphate
   47    49     1     0     0
SMALL
USER_CHARGES

@<TRIPOS>ATOM
      1 PG          4.5328    0.6874   -7.8350 P.3       1 ATP         1.7526
      2 O1G         3.4699    1.2979   -8.6999 O.2       1 ATP        -0.8534
      3 O2G         5.4075   -0.4785   -8.5329 O.3       1 ATP        -0.7661
      4 O3G         5.6483    1.7180   -7.2824 O.3       1 ATP        -0.7661
      5 PB          2.9340   -1.2493   -6.2876 P.3       1 ATP         1.6631
      6 O1B         1.5650   -0.8057   -6.7529 O.co2     1 ATP        -0.8211
      7 O2B         3.5702   -2.5138   -6.8204 O.co2     1 ATP        -0.8211
      8 O3B         3.9811   -0.0139   -6.4867 O.3       1 ATP        -0.7954
      9 PA          2.1463   -2.2799   -3.6368 P.3       1 ATP         1.7782
     10 O1A         2.4483   -3.7410   -3.8024 O.2       1 ATP        -0.8134
     11 O2A         0.5922   -1.8888   -3.8580 O.3       1 ATP        -0.8257
     12 O3A         2.9399   -1.3083   -4.6574 O.3       1 ATP        -0.8063
     13 O5'         2.5233   -1.6622   -2.1894 O.3       1 ATP        -0.5763
     14 C5'         2.2816   -0.2918   -1.9206 C.3       1 ATP         0.1790
     15 C4'         2.7248    0.0226   -0.4980 C.3       1 ATP         0.1339
     16 O4'         2.4697    1.4219   -0.2462 O.3       1 ATP        -0.4040
     17 C3'         1.9404   -0.7419    0.5596 C.3       1 ATP         0.0906
     18 O3'         2.7418   -0.8086    1.7389 O.3       1 ATP        -0.5689
     19 C2'         0.7477    0.1630    0.7858 C.3       1 ATP         0.0660
     20 O2'         0.1373   -0.0577    2.0407 O.3       1 ATP        -0.5800
     21 C1'         1.3733    1.5427    0.6747 C.3       1 ATP         0.4216
     22 N9          0.4520    2.5240    0.1767 N.pl3     1 ATP        -0.5455
     23 C8         -0.8602    2.5861    0.3496 C.ar      1 ATP         0.2820
     24 N7         -1.4308    3.6326   -0.2443 N.pl3     1 ATP        -0.4970
     25 C5         -0.4080    4.2856   -0.8394 C.ar      1 ATP        -0.2773
     26 C6         -0.3432    5.4196   -1.5943 C.ar      1 ATP         0.7637
     27 N6         -1.5276    6.1333   -1.8702 N.pl3     1 ATP        -0.9374
     28 N1          0.8395    5.8603   -2.0764 N.ar      1 ATP        -0.7408
     29 C2          1.9319    5.1095   -1.7617 C.ar      1 ATP         0.7215
     30 N3          1.9773    3.9761   -1.0249 N.ar      1 ATP        -0.6797
     31 C4          0.7724    3.6031   -0.5836 C.ar      1 ATP         0.6429
     32 HOG2        4.9515   -1.2828   -8.8603 H         1 ATP         0.4781
     33 HOG3        6.1960    2.2149   -7.9270 H         1 ATP         0.4781
     34 HOA2       -0.0862   -2.2949   -3.2777 H         1 ATP         0.4931
     35 H5'1        2.8428    0.3150   -2.6387 H         1 ATP         0.0438
     36 H5'2        1.2124   -0.0896   -2.0417 H         1 ATP         0.0438
     37 H4'         3.8049   -0.1388   -0.4009 H         1 ATP         0.1278
     38 H3'         1.6783   -1.7629    0.2715 H         1 ATP         0.1161
     39 HO3'        2.2232   -1.2979    2.3953 H         1 ATP         0.4111
     40 H2'        -0.0011    0.0027    0.0003 H         1 ATP         0.0477
     41 HO2'       -0.1563   -0.9855    2.0596 H         1 ATP         0.4259
     42 H1'         1.7826    1.9024    1.6451 H         1 ATP         0.1524
     43 H8         -1.4217    1.8638    0.9164 H         1 ATP         0.2610
     44 HN61       -2.4023    5.7711   -1.5477 H         1 ATP         0.4534
     45 HN62       -1.4857    6.9379   -2.4627 H         1 ATP         0.4534
     46 H2          2.8789    5.4660   -2.1503 H         1 ATP         0.0900
     47 H47        -2.4129    3.8706   -0.2402 H         1 ATP         0.5046
@<TRIPOS>BOND
     1    1    2 2
     2    1    3 1
     3    1    4 1
     4    1    8 1
     5    3   32 1
     6    4   33 1
     7    5    6 2
     8    5    7 1
     9    5    8 1
    10    5   12 1
    11    9   10 2
    12    9   11 1
    13    9   12 1
    14    9   13 1
    15   11   34 1
    16   13   14 1
    17   14   15 1
    18   14   35 1
    19   14   36 1
    20   15   16 1
    21   15   17 1
    22   15   37 1
    23   16   21 1
    24   17   18 1
    25   17   19 1
    26   17   38 1
    27   18   39 1
    28   19   20 1
    29   19   21 1
    30   19   40 1
    31   20   41 1
    32   21   22 1
    33   21   42 1
    34   22   23 ar
    35   22   31 ar
    36   23   24 ar
    37   23   43 1
    38   24   25 ar
    39   24   47 1
    40   25   26 ar
    41   25   31 ar
    42   26   27 1
    43   26   28 ar
    44   27   44 1
    45   27   45 1
    46   28   29 ar
    47   29   30 ar
    48   29   46 1
    49   30   31 ar
@<TRIPOS>SUBSTRUCTURE
     1 ATP         1 GROUP 0 A     ****
@<TRIPOS>MOLECULE
[[5-(6-amino-7,8-dihydropurin-8-ylium-9-yl)-3,4-dihydroxy-tetrahydrofuran-2-yl]methoxy-hydroxy-phosphoryl] phosphono phosphate
   47    49     1     0     0
SMALL
USER_CHARGES

@<TRIPOS>ATOM
      1 PG          6.3855   -3.2371   -5.6696 P.3       1 ATP         1.7526
      2 O1G         7.0405   -2.6168   -6.8682 O.2       1 ATP        -0.8534
      3 O2G         6.0765   -4.8186   -5.7911 O.3       1 ATP        -0.7661
      4 O3G         7.2191   -3.1194   -4.2901 O.3       1 ATP        -0.7661
      5 PB          4.5401   -1.0774   -4.8751 P.3       1 ATP         1.6631
      6 O1B         5.1697   -0.7483   -3.5400 O.co2     1 ATP        -0.8211
      7 O2B         4.7411   -0.1821   -6.0775 O.co2     1 ATP        -0.8211
      8 O3B         4.9488   -2.6027   -5.2856 O.3       1 ATP        -0.7954
      9 PA          2.1463   -2.2799   -3.6368 P.3       1 ATP         1.7782
     10 O1A         2.4483   -3.7410   -3.8024 O.2       1 ATP        -0.8134
     11 O2A         0.5922   -1.8888   -3.8580 O.3       1 ATP        -0.8257
     12 O3A         2.9399   -1.3083   -4.6574 O.3       1 ATP        -0.8063
     13 O5'         2.5233   -1.6622   -2.1894 O.3       1 ATP        -0.5763
     14 C5'         2.2816   -0.2918   -1.9206 C.3       1 ATP         0.1790
     15 C4'         2.7248    0.0226   -0.4980 C.3       1 ATP         0.1339
     16 O4'         2.4697    1.4219   -0.2462 O.3       1 ATP        -0.4040
     17 C3'         1.9404   -0.7419    0.5596 C.3       1 ATP         0.0906
     18 O3'         2.7418   -0.8086    1.7389 O.3       1 ATP        -0.5689
     19 C2'         0.7477    0.1630    0.7858 C.3       1 ATP         0.0660
     20 O2'         0.1373   -0.0577    2.0407 O.3       1 ATP        -0.5800
     21 C1'         1.3733    1.5427    0.6747 C.3       1 ATP         0.4216
     22 N9          0.4520    2.5240    0.1767 N.pl3     1 ATP        -0.5455
     23 C8         -0.8602    2.5861    0.3496 C.ar      1 ATP         0.2820
     24 N7         -1.4308    3.6326   -0.2443 N.pl3     1 ATP        -0.4970
     25 C5         -0.4080    4.2856   -0.8394 C.ar      1 ATP        -0.2773
     26 C6         -0.3432    5.4196   -1.5943 C.ar      1 ATP         0.7637
     27 N6         -1.5276    6.1333   -1.8702 N.pl3     1 ATP        -0.9374
     28 N1          0.8395    5.8603   -2.0764 N.ar      1 ATP        -0.7408
     29 C2          1.9319    5.1095   -1.7617 C.ar      1 ATP         0.7215
     30 N3          1.9773    3.9761   -1.0249 N.ar      1 ATP        -0.6797
     31 C4          0.7724    3.6031   -0.5836 C.ar      1 ATP         0.6429
     32 HOG2        6.8228   -5.4386   -5.9351 H         1 ATP         0.4781
     33 HOG3        7.4376   -2.2286   -3.9422 H         1 ATP         0.4781
     34 HOA2       -0.0862   -2.2949   -3.2777 H         1 ATP         0.4931
     35 H5'1        2.8428    0.3150   -2.6387 H         1 ATP         0.0438
     36 H5'2        1.2124   -0.0896   -2.0417 H         1 ATP         0.0438
     37 H4'         3.8049   -0.1388   -0.4009 H         1 ATP         0.1278
     38 H3'         1.6783   -1.7629    0.2715 H         1 ATP         0.1161
     39 HO3'        2.2232   -1.2979    2.3953 H         1 ATP         0.4111
     40 H2'        -0.0011    0.0027    0.0003 H         1 ATP         0.0477
     41 HO2'       -0.1563   -0.9855    2.0596 H         1 ATP         0.4259
     42 H1'         1.7826    1.9024    1.6451 H         1 ATP         0.1524
     43 H8         -1.4217    1.8638    0.9164 H         1 ATP         0.2610
     44 HN61       -2.4023    5.7711   -1.5477 H         1 ATP         0.4534
     45 HN62       -1.4857    6.9379   -2.4627 H         1 ATP         0.4534
     46 H2          2.8789    5.4660   -2.1503 H         1 ATP         0.0900
     47 H47        -2.4129    3.8706   -0.2402 H         1 ATP         0.5046
@<TRIPOS>BOND
     1    1    2 2
     2    1    3 1
     3    1    4 1
     4    1    8 1
     5    3   32 1
     6    4   33 1
     7    5    6 2
     8    5    7 1
     9    5    8 1
    10    5   12 1
    11    9   10 2
    12    9   11 1
    13    9   12 1
    14    9   13 1
    15   11   34 1
    16   13   14 1
    17   14   15 1
    18   14   35 1
    19   14   36 1
    20   15   16 1
    21   15   17 1
    22   15   37 1
    23   16   21 1
    24   17   18 1
    25   17   19 1
    26   17   38 1
    27   18   39 1
    28   19   20 1
    29   19   21 1
    30   19   40 1
    31   20   41 1
    32   21   22 1
    33   21   42 1
    34   22   23 ar
    35   22   31 ar
    36   23   24 ar
    37   23   43 1
    38   24   25 ar
    39   24   47 1
    40   25   26 ar
    41   25   31 ar
    42   26   27 1
    43   26   28 ar
    44   27   44 1
    45   27   45 1
    46   28   29 ar
    47   29   30 ar
    48   29   46 1
    49   30   31 ar
@<TRIPOS>SUBSTRUCTURE
     1 ATP         1 GROUP 0 A     ****
@<TRIPOS>MOLECULE
[[5-(6-amino-7,8-dihydropurin-8-ylium-9-yl)-3,4-dihydroxy-tetrahydrofuran-2-yl]methoxy-hydroxy-phosphoryl] phosphono phosphate
   47    49     1     0     0
SMALL
USER_CHARGES

@<TRIPOS>ATOM
      1 PG          0.6875    2.7452   -7.1937 P.3       1 ATP         1.7526
      2 O1G        -0.4873    2.3923   -8.0574 O.2       1 ATP        -0.8534
      3 O2G         1.9759    3.3219   -7.9804 O.3       1 ATP        -0.7661
      4 O3G         0.4012    3.8653   -6.0644 O.3       1 ATP        -0.7661
      5 PB          0.5901    0.5585   -5.2165 P.3       1 ATP         1.6631
      6 O1B         0.2788    1.3966   -3.9966 O.co2     1 ATP        -0.8211
      7 O2B        -0.4785   -0.2769   -5.8858 O.co2     1 ATP        -0.8211
      8 O3B         1.2900    1.5104   -6.3417 O.3       1 ATP        -0.7954
      9 PA          3.3376   -0.0311   -4.3149 P.3       1 ATP         1.7782
     10 O1A         4.1251    0.9098   -5.1800 O.2       1 ATP        -0.8134
     11 O2A         4.0362   -1.4721   -4.0854 O.3       1 ATP        -0.8257
     12 O3A         1.8686   -0.3982   -4.8828 O.3       1 ATP        -0.8063
     13 O5'         3.0190    0.5130   -2.8246 O.3       1 ATP        -0.5763
     14 C5'         2.2816   -0.2918   -1.9206 C.3       1 ATP         0.1790
     15 C4'         2.7248    0.0226   -0.4980 C.3       1 ATP         0.1339
     16 O4'         2.4697    1.4219   -0.2462 O.3       1 ATP        -0.4040
     17 C3'         1.9404   -0.7419    0.5596 C.3       1 ATP         0.0906
     18 O3'         2.7418   -0.8086    1.7389 O.3       1 ATP        -0.5689
     19 C2'         0.7477    0.1630    0.7858 C.3       1 ATP         0.0660
     20 O2'         0.1373   -0.0577    2.0407 O.3       1 ATP        -0.5800
     21 C1'         1.3733    1.5427    0.6747 C.3       1 ATP         0.4216
     22 N9          0.4520    2.5240    0.1767 N.pl3     1 ATP        -0.5455
     23 C8         -0.5899    2.3466   -0.6224 C.ar      1 ATP         0.2820
     24 N7         -1.2514    3.4689   -0.8989 N.pl3     1 ATP        -0.4970
     25 C5         -0.5826    4.4323   -0.2272 C.ar      1 ATP        -0.2773
     26 C6         -0.7636    5.7789   -0.1086 C.ar      1 ATP         0.7637
     27 N6         -1.8382    6.3927   -0.7843 N.pl3     1 ATP        -0.9374
     28 N1          0.0741    6.5233    0.6461 N.ar      1 ATP        -0.7408
     29 C2          1.0845    5.8486    1.2626 C.ar      1 ATP         0.7215
     30 N3          1.3516    4.5236    1.2116 N.ar      1 ATP        -0.6797
     31 C4          0.4827    3.8546    0.4481 C.ar      1 ATP         0.6429
     32 HOG2        1.8816    4.1432   -8.5083 H         1 ATP         0.4781
     33 HOG3       -0.2832    3.6891   -5.3841 H         1 ATP         0.4781
     34 HOA2        4.9191   -1.5086   -3.6596 H         1 ATP         0.4931
     35 H5'1        1.2149   -0.0786   -2.0446 H         1 ATP         0.0438
     36 H5'2        2.4640   -1.3459   -2.1539 H         1 ATP         0.0438
     37 H4'         3.8049   -0.1388   -0.4009 H         1 ATP         0.1278
     38 H3'         1.6783   -1.7629    0.2715 H         1 ATP         0.1161
     39 HO3'        2.2232   -1.2979    2.3953 H         1 ATP         0.4111
     40 H2'        -0.0011    0.0027    0.0003 H         1 ATP         0.0477
     41 HO2'       -0.6141    0.5574    2.1082 H         1 ATP         0.4259
     42 H1'         1.7826    1.9024    1.6451 H         1 ATP         0.1524
     43 H8         -0.8833    1.3888   -1.0158 H         1 ATP         0.2610
     44 HN61       -2.4225    5.8385   -1.3773 H         1 ATP         0.4534
     45 HN62       -1.9421    7.3862   -0.7348 H         1 ATP         0.4534
     46 H2          1.7546    6.4491    1.8670 H         1 ATP         0.0900
     47 H47        -2.0705    3.5612   -1.4834 H         1 ATP         0.5046
@<TRIPOS>BOND
     1    1    2 2
     2    1    3 1
     3    1    4 1
     4    1    8 1
     5    3   32 1
     6    4   33 1
     7    5    6 2
     8    5    7 1
     9    5    8 1
    10    5   12 1
    11    9   10 2
    12    9   11 1
    13    9   12 1
    14    9   13 1
    15   11   34 1
    16   13   14 1
    17   14   15 1
    18   14   35 1
    19   14   36 1
    20   15   16 1
    21   15   17 1
    22   15   37 1
    23   16   21 1
    24   17   18 1
    25   17   19 1
    26   17   38 1
    27   18   39 1
    28   19   20 1
    29   19   21 1
    30   19   40 1
    31   20   41 1
    32   21   22 1
    33   21   42 1
    34   22   23 ar
    35   22   31 ar
    36   23   24 ar
    37   23   43 1
    38   24   25 ar
    39   24   47 1
    40   25   26 ar
    41   25   31 ar
    42   26   27 1
    43   26   28 ar
    44   27   44 1
    45   27   45 1
    46   28   29 ar
    47   29   30 ar
    48   29   46 1
    49   30   31 ar
@<TRIPOS>SUBSTRUCTURE
     1 ATP         1 GROUP 0 A     ****
@<TRIPOS>MOLECULE
[[5-(6-amino-7,8-dihydropurin-8-ylium-9-yl)-3,4-dihydroxy-tetrahydrofuran-2-yl]methoxy-hydroxy-phosphoryl] phosphono phosphate
   47    49     1     0     0
SMALL
USER_CHARGES

@<TRIPOS>ATOM
      1 PG          1.2917    0.1930   -8.2286 P.3       1 ATP         1.7526
      2 O1G         1.5944   -0.7702   -9.3382 O.2       1 ATP        -0.8534
      3 O2G         2.1574    1.5575   -8.2417 O.3       1 ATP        -0.7661
      4 O3G        -0.2366    0.7150   -8.1665 O.3       1 ATP        -0.7661
      5 PB          0.8687   -1.6731   -5.9837 P.3       1 ATP         1.6631
      6 O1B        -0.5970   -1.3840   -5.7480 O.co2     1 ATP        -0.8211
      7 O2B         1.3147   -2.9389   -6.6813 O.co2     1 ATP        -0.8211
      8 O3B         1.5397   -0.3942   -6.7428 O.3       1 ATP        -0.7954
      9 PA          1.5741   -2.4609   -3.2285 P.3       1 ATP         1.7782
     10 O1A         1.9282   -3.9055   -3.4313 O.2       1 ATP        -0.8134
     11 O2A         0.0703   -2.2105   -2.6868 O.3       1 ATP        -0.8257
     12 O3A         1.6619   -1.5521   -4.5634 O.3       1 ATP        -0.8063
     13 O5'         2.5233   -1.6622   -2.1894 O.3       1 ATP        -0.5763
     14 C5'         2.2816   -0.2918   -1.9206 C.3       1 ATP         0.1790
     15 C4'         2.7248    0.0226   -0.4980 C.3       1 ATP         0.1339
     16 O4'         2.4697    1.4219   -0.2462 O.3       1 ATP        -0.4040
     17 C3'         1.9404   -0.7419    0.5596 C.3       1 ATP         0.0906
     18 O3'         2.7418   -0.8086    1.7389 O.3       1 ATP        -0.5689
     19 C2'         0.7477    0.1630    0.7858 C.3       1 ATP         0.0660
     20 O2'         0.1373   -0.0577    2.0407 O.3       1 ATP        -0.5800
     21 C1'         1.3733    1.5427    0.6747 C.3       1 ATP         0.4216
     22 N9          0.4520    2.5240    0.1767 N.pl3     1 ATP        -0.5455
     23 C8         -0.8602    2.5861    0.3496 C.ar      1 ATP         0.2820
     24 N7         -1.4308    3.6326   -0.2443 N.pl3     1 ATP        -0.4970
     25 C5         -0.4080    4.2856   -0.8394 C.ar      1 ATP        -0.2773
     26 C6         -0.3432    5.4196   -1.5943 C.ar      1 ATP         0.7637
     27 N6         -1.5276    6.1333   -1.8702 N.pl3     1 ATP        -0.9374
     28 N1          0.8395    5.8603   -2.0764 N.ar      1 ATP        -0.7408
     29 C2          1.9319    5.1095   -1.7617 C.ar      1 ATP         0.7215
     30 N3          1.9773    3.9761   -1.0249 N.ar      1 ATP        -0.6797
     31 C4          0.7724    3.6031   -0.5836 C.ar      1 ATP         0.6429
     32 HOG2        2.0985    2.1497   -9.0214 H         1 ATP         0.4781
     33 HOG3       -0.9571    0.0604   -8.0460 H         1 ATP         0.4781
     34 HOA2       -0.1942   -2.5987   -1.8258 H         1 ATP         0.4931
     35 H5'1        2.8428    0.3150   -2.6387 H         1 ATP         0.0438
     36 H5'2        1.2124   -0.0896   -2.0417 H         1 ATP         0.0438
     37 H4'         3.8049   -0.1388   -0.4009 H         1 ATP         0.1278
     38 H3'         1.6783   -1.7629    0.2715 H         1 ATP         0.1161
     39 HO3'        2.2232   -1.2979    2.3953 H         1 ATP         0.4111
     40 H2'        -0.0011    0.0027    0.0003 H         1 ATP         0.0477
     41 HO2'       -0.1563   -0.9855    2.0596 H         1 ATP         0.4259
     42 H1'         1.7826    1.9024    1.6451 H         1 ATP         0.1524
     43 H8         -1.4217    1.8638    0.9164 H         1 ATP         0.2610
     44 HN61       -2.4023    5.7711   -1.5477 H         1 ATP         0.4534
     45 HN62       -1.4857    6.9379   -2.4627 H         1 ATP         0.4534
     46 H2          2.8789    5.4660   -2.1503 H         1 ATP         0.0900
     47 H47        -2.4129    3.8706   -0.2402 H         1 ATP         0.5046
@<TRIPOS>BOND
     1    1    2 2
     2    1    3 1
     3    1    4 1
     4    1    8 1
     5    3   32 1
     6    4   33 1
     7    5    6 2
     8    5    7 1
     9    5    8 1
    10    5   12 1
    11    9   10 2
    12    9   11 1
    13    9   12 1
    14    9   13 1
    15   11   34 1
    16   13   14 1
    17   14   15 1
    18   14   35 1
    19   14   36 1
    20   15   16 1
    21   15   17 1
    22   15   37 1
    23   16   21 1
    24   17   18 1
    25   17   19 1
    26   17   38 1
    27   18   39 1
    28   19   20 1
    29   19   21 1
    30   19   40 1
    31   20   41 1
    32   21   22 1
    33   21   42 1
    34   22   23 ar
    35   22   31 ar
    36   23   24 ar
    37   23   43 1
    38   24   25 ar
    39   24   47 1
    40   25   26 ar
    41   25   31 ar
    42   26   27 1
    43   26   28 ar
    44   27   44 1
    45   27   45 1
    46   28   29 ar
    47   29   30 ar
    48   29   46 1
    49   30   31 ar
@<TRIPOS>SUBSTRUCTURE
     1 ATP         1 GROUP 0 A     ****
@<TRIPOS>MOLECULE
[[5-(6-amino-7,8-dihydropurin-8-ylium-9-yl)-3,4-dihydroxy-tetrahydrofuran-2-yl]methoxy-hydroxy-phosphoryl] phosphono phosphate
   47    49     1     0     0
SMALL
USER_CHARGES

@<TRIPOS>ATOM
      1 PG          2.0446    0.0082   -8.9350 P.3       1 ATP         1.7526
      2 O1G         2.7051   -1.1710   -9.5857 O.2       1 ATP        -0.8534
      3 O2G         2.6965    1.4454   -9.2830 O.3       1 ATP        -0.7661
      4 O3G         0.4807    0.2060   -9.2913 O.3       1 ATP        -0.7661
      5 PB          1.4182   -1.1116   -6.2790 P.3       1 ATP         1.6631
      6 O1B        -0.0897   -1.0637   -6.3849 O.co2     1 ATP        -0.8211
      7 O2B         2.1720   -2.4150   -6.4221 O.co2     1 ATP        -0.8211
      8 O3B         2.0514   -0.0252   -7.3186 O.3       1 ATP        -0.7954
      9 PA          3.3376   -0.0311   -4.3149 P.3       1 ATP         1.7782
     10 O1A         4.1251    0.9098   -5.1800 O.2       1 ATP        -0.8134
     11 O2A         4.0362   -1.4721   -4.0854 O.3       1 ATP        -0.8257
     12 O3A         1.8686   -0.3982   -4.8828 O.3       1 ATP        -0.8063
     13 O5'         3.0190    0.5130   -2.8246 O.3       1 ATP        -0.5763
     14 C5'         2.2816   -0.2918   -1.9206 C.3       1 ATP         0.1790
     15 C4'         2.7248    0.0226   -0.4980 C.3       1 ATP         0.1339
     16 O4'         2.4697    1.4219   -0.2462 O.3       1 ATP        -0.4040
     17 C3'         1.9404   -0.7419    0.5596 C.3       1 ATP         0.0906
     18 O3'         2.7418   -0.8086    1.7389 O.3       1 ATP        -0.5689
     19 C2'         0.7477    0.1630    0.7858 C.3       1 ATP         0.0660
     20 O2'         0.1373   -0.0577    2.0407 O.3       1 ATP        -0.5800
     21 C1'         1.3733    1.5427    0.6747 C.3       1 ATP         0.4216
     22 N9          0.4520    2.5240    0.1767 N.pl3     1 ATP        -0.5455
     23 C8         -0.8602    2.5861    0.3496 C.ar      1 ATP         0.2820
     24 N7         -1.4308    3.6326   -0.2443 N.pl3     1 ATP        -0.4970
     25 C5         -0.4080    4.2856   -0.8394 C.ar      1 ATP        -0.2773
     26 C6         -0.3432    5.4196   -1.5943 C.ar      1 ATP         0.7637
     27 N6         -1.5276    6.1333   -1.8702 N.pl3     1 ATP        -0.9374
     28 N1          0.8395    5.8603   -2.0764 N.ar      1 ATP        -0.7408
     29 C2          1.9319    5.1095   -1.7617 C.ar      1 ATP         0.7215
     30 N3          1.9773    3.9761   -1.0249 N.ar      1 ATP        -0.6797
     31 C4          0.7724    3.6031   -0.5836 C.ar      1 ATP         0.6429
     32 HOG2        2.7227    1.7411  -10.2178 H         1 ATP         0.4781
     33 HOG3       -0.1516   -0.5092   -9.0654 H         1 ATP         0.4781
     34 HOA2        4.9191   -1.5086   -3.6596 H         1 ATP         0.4931
     35 H5'1        1.2149   -0.0786   -2.0446 H         1 ATP         0.0438
     36 H5'2        2.4640   -1.3459   -2.1539 H         1 ATP         0.0438
     37 H4'         3.8049   -0.1388   -0.4009 H         1 ATP         0.1278
     38 H3'         1.6783   -1.7629    0.2715 H         1 ATP         0.1161
     39 HO3'        2.2232   -1.2979    2.3953 H         1 ATP         0.4111
     40 H2'        -0.0011    0.0027    0.0003 H         1 ATP         0.0477
     41 HO2'       -0.1563   -0.9855    2.0596 H         1 ATP         0.4259
     42 H1'         1.7826    1.9024    1.6451 H         1 ATP         0.1524
     43 H8         -1.4217    1.8638    0.9164 H         1 ATP         0.2610
     44 HN61       -1.4731    6.9898   -2.3837 H         1 ATP         0.4534
     45 HN62       -2.3893    5.8226   -1.4686 H         1 ATP         0.4534
     46 H2          2.8789    5.4660   -2.1503 H         1 ATP         0.0900
     47 H47        -2.4129    3.8706   -0.2402 H         1 ATP         0.5046
@<TRIPOS>BOND
     1    1    2 2
     2    1    3 1
     3    1    4 1
     4    1    8 1
     5    3   32 1
     6    4   33 1
     7    5    6 2
     8    5    7 1
     9    5    8 1
    10    5   12 1
    11    9   10 2
    12    9   11 1
    13    9   12 1
    14    9   13 1
    15   11   34 1
    16   13   14 1
    17   14   15 1
    18   14   35 1
    19   14   36 1
    20   15   16 1
    21   15   17 1
    22   15   37 1
    23   16   21 1
    24   17   18 1
    25   17   19 1
    26   17   38 1
    27   18   39 1
    28   19   20 1
    29   19   21 1
    30   19   40 1
    31   20   41 1
    32   21   22 1
    33   21   42 1
    34   22   23 ar
    35   22   31 ar
    36   23   24 ar
    37   23   43 1
    38   24   25 ar
    39   24   47 1
    40   25   26 ar
    41   25   31 ar
    42   26   27 1
    43   26   28 ar
    44   27   44 1
    45   27   45 1
    46   28   29 ar
    47   29   30 ar
    48   29   46 1
    49   30   31 ar
@<TRIPOS>SUBSTRUCTURE
     1 ATP         1 GROUP 0 A     ****
@<TRIPOS>MOLECULE
[[5-(6-amino-7,8-dihydropurin-8-ylium-9-yl)-3,4-dihydroxy-tetrahydrofuran-2-yl]methoxy-hydroxy-phosphoryl] phosphono phosphate
   47    49     1     0     0
SMALL
USER_CHARGES

@<TRIPOS>ATOM
      1 PG          3.7535   -3.5187   -7.9844 P.3       1 ATP         1.7526
      2 O1G         4.7813   -2.8586   -8.8551 O.2       1 ATP        -0.8534
      3 O2G         2.2817   -3.6596   -8.6367 O.3       1 ATP        -0.7661
      4 O3G         4.1078   -5.0259   -7.5209 O.3       1 ATP        -0.7661
      5 PB          2.9340   -1.2493   -6.2876 P.3       1 ATP         1.6631
      6 O1B         3.9852   -0.2614   -6.7420 O.co2     1 ATP        -0.8211
      7 O2B         1.5022   -1.1430   -6.7633 O.co2     1 ATP        -0.8211
      8 O3B         3.4721   -2.7608   -6.5843 O.3       1 ATP        -0.7954
      9 PA          2.1463   -2.2799   -3.6368 P.3       1 ATP         1.7782
     10 O1A         2.4483   -3.7410   -3.8024 O.2       1 ATP        -0.8134
     11 O2A         0.5922   -1.8888   -3.8580 O.3       1 ATP        -0.8257
     12 O3A         2.9399   -1.3083   -4.6574 O.3       1 ATP        -0.8063
     13 O5'         2.5233   -1.6622   -2.1894 O.3       1 ATP        -0.5763
     14 C5'         2.2816   -0.2918   -1.9206 C.3       1 ATP         0.1790
     15 C4'         2.7248    0.0226   -0.4980 C.3       1 ATP         0.1339
     16 O4'         2.4697    1.4219   -0.2462 O.3       1 ATP        -0.4040
     17 C3'         1.9404   -0.7419    0.5596 C.3       1 ATP         0.0906
     18 O3'         2.7418   -0.8086    1.7389 O.3       1 ATP        -0.5689
     19 C2'         0.7477    0.1630    0.7858 C.3       1 ATP         0.0660
     20 O2'         0.1373   -0.0577    2.0407 O.3       1 ATP        -0.5800
     21 C1'         1.3733    1.5427    0.6747 C.3       1 ATP         0.4216
     22 N9          0.4520    2.5240    0.1767 N.pl3     1 ATP        -0.5455
     23 C8         -0.8602    2.5861    0.3496 C.ar      1 ATP         0.2820
     24 N7         -1.4308    3.6326   -0.2443 N.pl3     1 ATP        -0.4970
     25 C5         -0.4080    4.2856   -0.8394 C.ar      1 ATP        -0.2773
     26 C6         -0.3432    5.4196   -1.5943 C.ar      1 ATP         0.7637
     27 N6         -1.5276    6.1333   -1.8702 N.pl3     1 ATP        -0.9374
     28 N1          0.8395    5.8603   -2.0764 N.ar      1 ATP        -0.7408
     29 C2          1.9319    5.1095   -1.7617 C.ar      1 ATP         0.7215
     30 N3          1.9773    3.9761   -1.0249 N.ar      1 ATP        -0.6797
     31 C4          0.7724    3.6031   -0.5836 C.ar      1 ATP         0.6429
     32 HOG2        1.8017   -2.8476   -8.9055 H         1 ATP         0.4781
     33 HOG3        4.2402   -5.7146   -8.2068 H         1 ATP         0.4781
     34 HOA2       -0.0862   -2.2949   -3.2777 H         1 ATP         0.4931
     35 H5'1        2.8428    0.3150   -2.6387 H         1 ATP         0.0438
     36 H5'2        1.2124   -0.0896   -2.0417 H         1 ATP         0.0438
     37 H4'         3.8049   -0.1388   -0.4009 H         1 ATP         0.1278
     38 H3'         1.6783   -1.7629    0.2715 H         1 ATP         0.1161
     39 HO3'        2.2232   -1.2979    2.3953 H         1 ATP         0.4111
     40 H2'        -0.0011    0.0027    0.0003 H         1 ATP         0.0477
     41 HO2'       -0.1563   -0.9855    2.0596 H         1 ATP         0.4259
     42 H1'         1.7826    1.9024    1.6451 H         1 ATP         0.1524
     43 H8         -1.4217    1.8638    0.9164 H         1 ATP         0.2610
     44 HN61       -2.4023    5.7711   -1.5477 H         1 ATP         0.4534
     45 HN62       -1.4857    6.9379   -2.4627 H         1 ATP         0.4534
     46 H2          2.8789    5.4660   -2.1503 H         1 ATP         0.0900
     47 H47        -2.4129    3.8706   -0.2402 H         1 ATP         0.5046
@<TRIPOS>BOND
     1    1    2 2
     2    1    3 1
     3    1    4 1
     4    1    8 1
     5    3   32 1
     6    4   33 1
     7    5    6 2
     8    5    7 1
     9    5    8 1
    10    5   12 1
    11    9   10 2
    12    9   11 1
    13    9   12 1
    14    9   13 1
    15   11   34 1
    16   13   14 1
    17   14   15 1
    18   14   35 1
    19   14   36 1
    20   15   16 1
    21   15   17 1
    22   15   37 1
    23   16   21 1
    24   17   18 1
    25   17   19 1
    26   17   38 1
    27   18   39 1
    28   19   20 1
    29   19   21 1
    30   19   40 1
    31   20   41 1
    32   21   22 1
    33   21   42 1
    34   22   23 ar
    35   22   31 ar
    36   23   24 ar
    37   23   43 1
    38   24   25 ar
    39   24   47 1
    40   25   26 ar
    41   25   31 ar
    42   26   27 1
    43   26   28 ar
    44   27   44 1
    45   27   45 1
    46   28   29 ar
    47   29   30 ar
    48   29   46 1
    49   30   31 ar
@<TRIPOS>SUBSTRUCTURE
     1 ATP         1 GROUP 0 A     ****
@<TRIPOS>MOLECULE
[[5-(6-amino-7,8-dihydropurin-8-ylium-9-yl)-3,4-dihydroxy-tetrahydrofuran-2-yl]methoxy-hydroxy-phosphoryl] phosphono phosphate
   47    49     1     0     0
SMALL
USER_CHARGES

@<TRIPOS>ATOM
      1 PG          2.2741   -3.8274   -7.0491 P.3       1 ATP         1.7526
      2 O1G         2.8482   -3.5631   -8.4096 O.2       1 ATP        -0.8534
      3 O2G         0.7592   -4.3900   -7.0349 O.3       1 ATP        -0.7661
      4 O3G         3.0852   -4.9021   -6.1553 O.3       1 ATP        -0.7661
      5 PB          1.4182   -1.1116   -6.2790 P.3       1 ATP         1.6631
      6 O1B         2.0466   -0.3620   -7.4325 O.co2     1 ATP        -0.8211
      7 O2B        -0.0712   -1.3706   -6.2322 O.co2     1 ATP        -0.8211
      8 O3B         2.2013   -2.5301   -6.0870 O.3       1 ATP        -0.7954
      9 PA          3.3376   -0.0311   -4.3149 P.3       1 ATP         1.7782
     10 O1A         4.1251    0.9098   -5.1800 O.2       1 ATP        -0.8134
     11 O2A         4.0362   -1.4721   -4.0854 O.3       1 ATP        -0.8257
     12 O3A         1.8686   -0.3982   -4.8828 O.3       1 ATP        -0.8063
     13 O5'         3.0190    0.5130   -2.8246 O.3       1 ATP        -0.5763
     14 C5'         2.2816   -0.2918   -1.9206 C.3       1 ATP         0.1790
     15 C4'         2.7248    0.0226   -0.4980 C.3       1 ATP         0.1339
     16 O4'         2.4697    1.4219   -0.2462 O.3       1 ATP        -0.4040
     17 C3'         1.9404   -0.7419    0.5596 C.3       1 ATP         0.0906
     18 O3'         2.7418   -0.8086    1.7389 O.3       1 ATP        -0.5689
     19 C2'         0.7477    0.1630    0.7858 C.3       1 ATP         0.0660
     20 O2'         0.1373   -0.0577    2.0407 O.3       1 ATP        -0.5800
     21 C1'         1.3733    1.5427    0.6747 C.3       1 ATP         0.4216
     22 N9          0.4520    2.5240    0.1767 N.pl3     1 ATP        -0.5455
     23 C8         -0.8602    2.5861    0.3496 C.ar      1 ATP         0.2820
     24 N7         -1.4308    3.6326   -0.2443 N.pl3     1 ATP        -0.4970
     25 C5         -0.4080    4.2856   -0.8394 C.ar      1 ATP        -0.2773
     26 C6         -0.3432    5.4196   -1.5943 C.ar      1 ATP         0.7637
     27 N6         -1.5276    6.1333   -1.8702 N.pl3     1 ATP        -0.9374
     28 N1          0.8395    5.8603   -2.0764 N.ar      1 ATP        -0.7408
     29 C2          1.9319    5.1095   -1.7617 C.ar      1 ATP         0.7215
     30 N3          1.9773    3.9761   -1.0249 N.ar      1 ATP        -0.6797
     31 C4          0.7724    3.6031   -0.5836 C.ar      1 ATP         0.6429
     32 HOG2        0.0469   -3.8460   -7.4334 H         1 ATP         0.4781
     33 HOG3        3.1910   -5.8169   -6.4932 H         1 ATP         0.4781
     34 HOA2        4.2259   -2.0366   -4.8648 H         1 ATP         0.4931
     35 H5'1        1.2149   -0.0786   -2.0446 H         1 ATP         0.0438
     36 H5'2        2.4640   -1.3459   -2.1539 H         1 ATP         0.0438
     37 H4'         3.8049   -0.1388   -0.4009 H         1 ATP         0.1278
     38 H3'         1.6783   -1.7629    0.2715 H         1 ATP         0.1161
     39 HO3'        2.2232   -1.2979    2.3953 H         1 ATP         0.4111
     40 H2'        -0.0011    0.0027    0.0003 H         1 ATP         0.0477
     41 HO2'       -0.1563   -0.9855    2.0596 H         1 ATP         0.4259
     42 H1'         1.7826    1.9024    1.6451 H         1 ATP         0.1524
     43 H8         -1.4217    1.8638    0.9164 H         1 ATP         0.2610
     44 HN61       -2.4023    5.7711   -1.5477 H         1 ATP         0.4534
     45 HN62       -1.4857    6.9379   -2.4627 H         1 ATP         0.4534
     46 H2          2.8789    5.4660   -2.1503 H         1 ATP         0.0900
     47 H47        -2.4129    3.8706   -0.2402 H         1 ATP         0.5046
@<TRIPOS>BOND
     1    1    2 2
     2    1    3 1
     3    1    4 1
     4    1    8 1
     5    3   32 1
     6    4   33 1
     7    5    6 2
     8    5    7 1
     9    5    8 1
    10    5   12 1
    11    9   10 2
    12    9   11 1
    13    9   12 1
    14    9   13 1
    15   11   34 1
    16   13   14 1
    17   14   15 1
    18   14   35 1
    19   14   36 1
    20   15   16 1
    21   15   17 1
    22   15   37 1
    23   16   21 1
    24   17   18 1
    25   17   19 1
    26   17   38 1
    27   18   39 1
    28   19   20 1
    29   19   21 1
    30   19   40 1
    31   20   41 1
    32   21   22 1
    33   21   42 1
    34   22   23 ar
    35   22   31 ar
    36   23   24 ar
    37   23   43 1
    38   24   25 ar
    39   24   47 1
    40   25   26 ar
    41   25   31 ar
    42   26   27 1
    43   26   28 ar
    44   27   44 1
    45   27   45 1
    46   28   29 ar
    47   29   30 ar
    48   29   46 1
    49   30   31 ar
@<TRIPOS>SUBSTRUCTURE
     1 ATP         1 GROUP 0 A     ****
@<TRIPOS>MOLECULE
[[5-(6-amino-7,8-dihydropurin-8-ylium-9-yl)-3,4-dihydroxy-tetrahydrofuran-2-yl]methoxy-hydroxy-phosphoryl] phosphono phosphate
   47    49     1     0     0
SMALL
USER_CHARGES

@<TRIPOS>ATOM
      1 PG          5.6400    0.8059   -6.8611 P.3       1 ATP         1.7526
      2 O1G         6.5756   -0.0954   -7.6113 O.2       1 ATP        -0.8534
      3 O2G         6.3276    1.7228   -5.7219 O.3       1 ATP        -0.7661
      4 O3G         4.8336    1.8721   -7.7693 O.3       1 ATP        -0.7661
      5 PB          4.5401   -1.0774   -4.8751 P.3       1 ATP         1.6631
      6 O1B         5.1420   -2.3458   -5.4376 O.co2     1 ATP        -0.8211
      7 O2B         5.1084   -0.4241   -3.6350 O.co2     1 ATP        -0.8211
      8 O3B         4.4620    0.0376   -6.0638 O.3       1 ATP        -0.7954
      9 PA          2.1463   -2.2799   -3.6368 P.3       1 ATP         1.7782
     10 O1A         2.4483   -3.7410   -3.8024 O.2       1 ATP        -0.8134
     11 O2A         0.5922   -1.8888   -3.8580 O.3       1 ATP        -0.8257
     12 O3A         2.9399   -1.3083   -4.6574 O.3       1 ATP        -0.8063
     13 O5'         2.5233   -1.6622   -2.1894 O.3       1 ATP        -0.5763
     14 C5'         2.2816   -0.2918   -1.9206 C.3       1 ATP         0.1790
     15 C4'         2.7248    0.0226   -0.4980 C.3       1 ATP         0.1339
     16 O4'         2.4697    1.4219   -0.2462 O.3       1 ATP        -0.4040
     17 C3'         1.9404   -0.7419    0.5596 C.3       1 ATP         0.0906
     18 O3'         2.7418   -0.8086    1.7389 O.3       1 ATP        -0.5689
     19 C2'         0.7477    0.1630    0.7858 C.3       1 ATP         0.0660
     20 O2'         0.1373   -0.0577    2.0407 O.3       1 ATP        -0.5800
     21 C1'         1.3733    1.5427    0.6747 C.3       1 ATP         0.4216
     22 N9          0.4520    2.5240    0.1767 N.pl3     1 ATP        -0.5455
     23 C8         -0.8602    2.5861    0.3496 C.ar      1 ATP         0.2820
     24 N7         -1.4308    3.6326   -0.2443 N.pl3     1 ATP        -0.4970
     25 C5         -0.4080    4.2856   -0.8394 C.ar      1 ATP        -0.2773
     26 C6         -0.3432    5.4196   -1.5943 C.ar      1 ATP         0.7637
     27 N6         -1.5276    6.1333   -1.8702 N.pl3     1 ATP        -0.9374
     28 N1          0.8395    5.8603   -2.0764 N.ar      1 ATP        -0.7408
     29 C2          1.9319    5.1095   -1.7617 C.ar      1 ATP         0.7215
     30 N3          1.9773    3.9761   -1.0249 N.ar      1 ATP        -0.6797
     31 C4          0.7724    3.6031   -0.5836 C.ar      1 ATP         0.6429
     32 HOG2        6.7973    1.2857   -4.9799 H         1 ATP         0.4781
     33 HOG3        5.3405    2.5268   -8.2952 H         1 ATP         0.4781
     34 HOA2       -0.0862   -2.2949   -3.2777 H         1 ATP         0.4931
     35 H5'1        2.8428    0.3150   -2.6387 H         1 ATP         0.0438
     36 H5'2        1.2124   -0.0896   -2.0417 H         1 ATP         0.0438
     37 H4'         3.8049   -0.1388   -0.4009 H         1 ATP         0.1278
     38 H3'         1.6783   -1.7629    0.2715 H         1 ATP         0.1161
     39 HO3'        2.2232   -1.2979    2.3953 H         1 ATP         0.4111
     40 H2'        -0.0011    0.0027    0.0003 H         1 ATP         0.0477
     41 HO2'       -0.1563   -0.9855    2.0596 H         1 ATP         0.4259
     42 H1'         1.7826    1.9024    1.6451 H         1 ATP         0.1524
     43 H8         -1.4217    1.8638    0.9164 H         1 ATP         0.2610
     44 HN61       -2.4023    5.7711   -1.5477 H         1 ATP         0.4534
     45 HN62       -1.4857    6.9379   -2.4627 H         1 ATP         0.4534
     46 H2          2.8789    5.4660   -2.1503 H         1 ATP         0.0900
     47 H47        -2.4129    3.8706   -0.2402 H         1 ATP         0.5046
@<TRIPOS>BOND
     1    1    2 2
     2    1    3 1
     3    1    4 1
     4    1    8 1
     5    3   32 1
     6    4   33 1
     7    5    6 2
     8    5    7 1
     9    5    8 1
    10    5   12 1
    11    9   10 2
    12    9   11 1
    13    9   12 1
    14    9   13 1
    15   11   34 1
    16   13   14 1
    17   14   15 1
    18   14   35 1
    19   14   36 1
    20   15   16 1
    21   15   17 1
    22   15   37 1
    23   16   21 1
    24   17   18 1
    25   17   19 1
    26   17   38 1
    27   18   39 1
    28   19   20 1
    29   19   21 1
    30   19   40 1
    31   20   41 1
    32   21   22 1
    33   21   42 1
    34   22   23 ar
    35   22   31 ar
    36   23   24 ar
    37   23   43 1
    38   24   25 ar
    39   24   47 1
    40   25   26 ar
    41   25   31 ar
    42   26   27 1
    43   26   28 ar
    44   27   44 1
    45   27   45 1
    46   28   29 ar
    47   29   30 ar
    48   29   46 1
    49   30   31 ar
@<TRIPOS>SUBSTRUCTURE
     1 ATP         1 GROUP 0 A     ****
@<TRIPOS>MOLECULE
[[5-(6-amino-7,8-dihydropurin-8-ylium-9-yl)-3,4-dihydroxy-tetrahydrofuran-2-yl]methoxy-hydroxy-phosphoryl] phosphono phosphate
   47    49     1     0     0
SMALL
USER_CHARGES

@<TRIPOS>ATOM
      1 PG          0.4982   -0.7417   -7.8720 P.3       1 ATP         1.7526
      2 O1G         0.5235   -1.9157   -8.8055 O.2       1 ATP        -0.8534
      3 O2G         1.0882    0.6358   -8.4768 O.3       1 ATP        -0.7661
      4 O3G        -0.9660   -0.3215   -7.3321 O.3       1 ATP        -0.7661
      5 PB          2.9340   -1.2493   -6.2876 P.3       1 ATP         1.6631
      6 O1B         3.2465   -2.6280   -6.8249 O.co2     1 ATP        -0.8211
      7 O2B         3.7243   -0.0384   -6.7314 O.co2     1 ATP        -0.8211
      8 O3B         1.3462   -0.9472   -6.5109 O.3       1 ATP        -0.7954
      9 PA          2.1463   -2.2799   -3.6368 P.3       1 ATP         1.7782
     10 O1A         2.4483   -3.7410   -3.8024 O.2       1 ATP        -0.8134
     11 O2A         0.5922   -1.8888   -3.8580 O.3       1 ATP        -0.8257
     12 O3A         2.9399   -1.3083   -4.6574 O.3       1 ATP        -0.8063
     13 O5'         2.5233   -1.6622   -2.1894 O.3       1 ATP        -0.5763
     14 C5'         2.2816   -0.2918   -1.9206 C.3       1 ATP         0.1790
     15 C4'         2.7248    0.0226   -0.4980 C.3       1 ATP         0.1339
     16 O4'         2.4697    1.4219   -0.2462 O.3       1 ATP        -0.4040
     17 C3'         1.9404   -0.7419    0.5596 C.3       1 ATP         0.0906
     18 O3'         2.7418   -0.8086    1.7389 O.3       1 ATP        -0.5689
     19 C2'         0.7477    0.1630    0.7858 C.3       1 ATP         0.0660
     20 O2'         0.1373   -0.0577    2.0407 O.3       1 ATP        -0.5800
     21 C1'         1.3733    1.5427    0.6747 C.3       1 ATP         0.4216
     22 N9          0.4520    2.5240    0.1767 N.pl3     1 ATP        -0.5455
     23 C8         -0.8602    2.5861    0.3496 C.ar      1 ATP         0.2820
     24 N7         -1.4308    3.6326   -0.2443 N.pl3     1 ATP        -0.4970
     25 C5         -0.4080    4.2856   -0.8394 C.ar      1 ATP        -0.2773
     26 C6         -0.3432    5.4196   -1.5943 C.ar      1 ATP         0.7637
     27 N6         -1.5276    6.1333   -1.8702 N.pl3     1 ATP        -0.9374
     28 N1          0.8395    5.8603   -2.0764 N.ar      1 ATP        -0.7408
     29 C2          1.9319    5.1095   -1.7617 C.ar      1 ATP         0.7215
     30 N3          1.9773    3.9761   -1.0249 N.ar      1 ATP        -0.6797
     31 C4          0.7724    3.6031   -0.5836 C.ar      1 ATP         0.6429
     32 HOG2        2.0209    0.6607   -8.7793 H         1 ATP         0.4781
     33 HOG3       -1.6533   -0.0580   -7.9806 H         1 ATP         0.4781
     34 HOA2        0.1748   -2.0769   -4.7254 H         1 ATP         0.4931
     35 H5'1        2.8428    0.3150   -2.6387 H         1 ATP         0.0438
     36 H5'2        1.2124   -0.0896   -2.0417 H         1 ATP         0.0438
     37 H4'         3.8049   -0.1388   -0.4009 H         1 ATP         0.1278
     38 H3'         1.6783   -1.7629    0.2715 H         1 ATP         0.1161
     39 HO3'        2.2232   -1.2979    2.3953 H         1 ATP         0.4111
     40 H2'        -0.0011    0.0027    0.0003 H         1 ATP         0.0477
     41 HO2'       -0.1563   -0.9855    2.0596 H         1 ATP         0.4259
     42 H1'         1.7826    1.9024    1.6451 H         1 ATP         0.1524
     43 H8         -1.4217    1.8638    0.9164 H         1 ATP         0.2610
     44 HN61       -2.4023    5.7711   -1.5477 H         1 ATP         0.4534
     45 HN62       -1.4857    6.9379   -2.4627 H         1 ATP         0.4534
     46 H2          2.8789    5.4660   -2.1503 H         1 ATP         0.0900
     47 H47        -2.4129    3.8706   -0.2402 H         1 ATP         0.5046
@<TRIPOS>BOND
     1    1    2 2
     2    1    3 1
     3    1    4 1
     4    1    8 1
     5    3   32 1
     6    4   33 1
     7    5    6 2
     8    5    7 1
     9    5    8 1
    10    5   12 1
    11    9   10 2
    12    9   11 1
    13    9   12 1
    14    9   13 1
    15   11   34 1
    16   13   14 1
    17   14   15 1
    18   14   35 1
    19   14   36 1
    20   15   16 1
    21   15   17 1
    22   15   37 1
    23   16   21 1
    24   17   18 1
    25   17   19 1
    26   17   38 1
    27   18   39 1
    28   19   20 1
    29   19   21 1
    30   19   40 1
    31   20   41 1
    32   21   22 1
    33   21   42 1
    34   22   23 ar
    35   22   31 ar
    36   23   24 ar
    37   23   43 1
    38   24   25 ar
    39   24   47 1
    40   25   26 ar
    41   25   31 ar
    42   26   27 1
    43   26   28 ar
    44   27   44 1
    45   27   45 1
    46   28   29 ar
    47   29   30 ar
    48   29   46 1
    49   30   31 ar
@<TRIPOS>SUBSTRUCTURE
     1 ATP         1 GROUP 0 A     ****
@<TRIPOS>MOLECULE
[[5-(6-amino-7,8-dihydropurin-8-ylium-9-yl)-3,4-dihydroxy-tetrahydrofuran-2-yl]methoxy-hydroxy-phosphoryl] phosphono phosphate
   47    49     1     0     0
SMALL
USER_CHARGES

@<TRIPOS>ATOM
      1 PG          1.2917    0.1930   -8.2286 P.3       1 ATP         1.7526
      2 O1G        -0.1187    0.6259   -8.5004 O.2       1 ATP        -0.8534
      3 O2G         1.8545   -0.9758   -9.1923 O.3       1 ATP        -0.7661
      4 O3G         2.4064    1.3564   -8.3542 O.3       1 ATP        -0.7661
      5 PB          0.8687   -1.6731   -5.9837 P.3       1 ATP         1.6631
      6 O1B        -0.5970   -1.3840   -5.7480 O.co2     1 ATP        -0.8211
      7 O2B         1.3147   -2.9389   -6.6813 O.co2     1 ATP        -0.8211
      8 O3B         1.5397   -0.3942   -6.7428 O.3       1 ATP        -0.7954
      9 PA          1.5741   -2.4609   -3.2285 P.3       1 ATP         1.7782
     10 O1A         1.9282   -3.9055   -3.4313 O.2       1 ATP        -0.8134
     11 O2A         0.0703   -2.2105   -2.6868 O.3       1 ATP        -0.8257
     12 O3A         1.6619   -1.5521   -4.5634 O.3       1 ATP        -0.8063
     13 O5'         2.5233   -1.6622   -2.1894 O.3       1 ATP        -0.5763
     14 C5'         2.2816   -0.2918   -1.9206 C.3       1 ATP         0.1790
     15 C4'         2.7248    0.0226   -0.4980 C.3       1 ATP         0.1339
     16 O4'         2.4697    1.4219   -0.2462 O.3       1 ATP        -0.4040
     17 C3'         1.9404   -0.7419    0.5596 C.3       1 ATP         0.0906
     18 O3'         2.7418   -0.8086    1.7389 O.3       1 ATP        -0.5689
     19 C2'         0.7477    0.1630    0.7858 C.3       1 ATP         0.0660
     20 O2'         0.1373   -0.0577    2.0407 O.3       1 ATP        -0.5800
     21 C1'         1.3733    1.5427    0.6747 C.3       1 ATP         0.4216
     22 N9          0.4520    2.5240    0.1767 N.pl3     1 ATP        -0.5455
     23 C8         -0.3477    3.3274    0.8626 C.ar      1 ATP         0.2820
     24 N7         -1.0836    4.1323    0.0983 N.pl3     1 ATP        -0.4970
     25 C5         -0.7273    3.8194   -1.1674 C.ar      1 ATP        -0.2773
     26 C6         -1.1208    4.2877   -2.3863 C.ar      1 ATP         0.7637
     27 N6         -2.0932    5.3066   -2.4528 N.pl3     1 ATP        -0.9374
     28 N1         -0.5892    3.7853   -3.5223 N.ar      1 ATP        -0.7408
     29 C2          0.3427    2.8040   -3.3648 C.ar      1 ATP         0.7215
     30 N3          0.8012    2.2709   -2.2093 N.ar      1 ATP        -0.6797
     31 C4          0.2307    2.8167   -1.1312 C.ar      1 ATP         0.6429
     32 HOG2        1.8936   -0.8162  -10.1593 H         1 ATP         0.4781
     33 HOG3        2.3383    2.1436   -7.7728 H         1 ATP         0.4781
     34 HOA2       -0.1942   -2.5987   -1.8258 H         1 ATP         0.4931
     35 H5'1        2.8428    0.3150   -2.6387 H         1 ATP         0.0438
     36 H5'2        1.2124   -0.0896   -2.0417 H         1 ATP         0.0438
     37 H4'         3.8049   -0.1388   -0.4009 H         1 ATP         0.1278
     38 H3'         1.6783   -1.7629    0.2715 H         1 ATP         0.1161
     39 HO3'        2.2232   -1.2979    2.3953 H         1 ATP         0.4111
     40 H2'        -0.0011    0.0027    0.0003 H         1 ATP         0.0477
     41 HO2'       -0.6141    0.5574    2.1082 H         1 ATP         0.4259
     42 H1'         1.7826    1.9024    1.6451 H         1 ATP         0.1524
     43 H8         -0.4040    3.3373    1.9373 H         1 ATP         0.2610
     44 HN61       -2.5133    5.6366   -1.6073 H         1 ATP         0.4534
     45 HN62       -2.4153    5.6161   -3.3477 H         1 ATP         0.4534
     46 H2          0.7668    2.4032   -4.2782 H         1 ATP         0.0900
     47 H47        -1.7549    4.8194    0.4122 H         1 ATP         0.5046
@<TRIPOS>BOND
     1    1    2 2
     2    1    3 1
     3    1    4 1
     4    1    8 1
     5    3   32 1
     6    4   33 1
     7    5    6 2
     8    5    7 1
     9    5    8 1
    10    5   12 1
    11    9   10 2
    12    9   11 1
    13    9   12 1
    14    9   13 1
    15   11   34 1
    16   13   14 1
    17   14   15 1
    18   14   35 1
    19   14   36 1
    20   15   16 1
    21   15   17 1
    22   15   37 1
    23   16   21 1
    24   17   18 1
    25   17   19 1
    26   17   38 1
    27   18   39 1
    28   19   20 1
    29   19   21 1
    30   19   40 1
    31   20   41 1
    32   21   22 1
    33   21   42 1
    34   22   23 ar
    35   22   31 ar
    36   23   24 ar
    37   23   43 1
    38   24   25 ar
    39   24   47 1
    40   25   26 ar
    41   25   31 ar
    42   26   27 1
    43   26   28 ar
    44   27   44 1
    45   27   45 1
    46   28   29 ar
    47   29   30 ar
    48   29   46 1
    49   30   31 ar
@<TRIPOS>SUBSTRUCTURE
     1 ATP         1 GROUP 0 A     ****
@<TRIPOS>MOLECULE
[[5-(6-amino-7,8-dihydropurin-8-ylium-9-yl)-3,4-dihydroxy-tetrahydrofuran-2-yl]methoxy-hydroxy-phosphoryl] phosphono phosphate
   47    49     1     0     0
SMALL
USER_CHARGES

@<TRIPOS>ATOM
      1 PG         -2.0687   -1.5211   -6.2061 P.3       1 ATP         1.7526
      2 O1G        -2.2144   -0.4431   -7.2391 O.2       1 ATP        -0.8534
      3 O2G        -3.1588   -1.4883   -5.0136 O.3       1 ATP        -0.7661
      4 O3G        -2.1684   -3.0330   -6.7684 O.3       1 ATP        -0.7661
      5 PB          0.8687   -1.6731   -5.9837 P.3       1 ATP         1.6631
      6 O1B         1.0443   -3.0762   -6.5204 O.co2     1 ATP        -0.8211
      7 O2B         1.2020   -0.4641   -6.8292 O.co2     1 ATP        -0.8211
      8 O3B        -0.6548   -1.5136   -5.4220 O.3       1 ATP        -0.7954
      9 PA          1.5741   -2.4609   -3.2285 P.3       1 ATP         1.7782
     10 O1A         1.9282   -3.9055   -3.4313 O.2       1 ATP        -0.8134
     11 O2A         0.0703   -2.2105   -2.6868 O.3       1 ATP        -0.8257
     12 O3A         1.6619   -1.5521   -4.5634 O.3       1 ATP        -0.8063
     13 O5'         2.5233   -1.6622   -2.1894 O.3       1 ATP        -0.5763
     14 C5'         2.2816   -0.2918   -1.9206 C.3       1 ATP         0.1790
     15 C4'         2.7248    0.0226   -0.4980 C.3       1 ATP         0.1339
     16 O4'         2.4697    1.4219   -0.2462 O.3       1 ATP        -0.4040
     17 C3'         1.9404   -0.7419    0.5596 C.3       1 ATP         0.0906
     18 O3'         2.7418   -0.8086    1.7389 O.3       1 ATP        -0.5689
     19 C2'         0.7477    0.1630    0.7858 C.3       1 ATP         0.0660
     20 O2'         0.1373   -0.0577    2.0407 O.3       1 ATP        -0.5800
     21 C1'         1.3733    1.5427    0.6747 C.3       1 ATP         0.4216
     22 N9          0.4520    2.5240    0.1767 N.pl3     1 ATP        -0.5455
     23 C8         -0.8602    2.5861    0.3496 C.ar      1 ATP         0.2820
     24 N7         -1.4308    3.6326   -0.2443 N.pl3     1 ATP        -0.4970
     25 C5         -0.4080    4.2856   -0.8394 C.ar      1 ATP        -0.2773
     26 C6         -0.3432    5.4196   -1.5943 C.ar      1 ATP         0.7637
     27 N6         -1.5276    6.1333   -1.8702 N.pl3     1 ATP        -0.9374
     28 N1          0.8395    5.8603   -2.0764 N.ar      1 ATP        -0.7408
     29 C2          1.9319    5.1095   -1.7617 C.ar      1 ATP         0.7215
     30 N3          1.9773    3.9761   -1.0249 N.ar      1 ATP        -0.6797
     31 C4          0.7724    3.6031   -0.5836 C.ar      1 ATP         0.6429
     32 HOG2       -4.1100   -1.5743   -5.2372 H         1 ATP         0.4781
     33 HOG3       -1.5212   -3.3324   -7.4419 H         1 ATP         0.4781
     34 HOA2       -0.1942   -2.5987   -1.8258 H         1 ATP         0.4931
     35 H5'1        2.8428    0.3150   -2.6387 H         1 ATP         0.0438
     36 H5'2        1.2124   -0.0896   -2.0417 H         1 ATP         0.0438
     37 H4'         3.8049   -0.1388   -0.4009 H         1 ATP         0.1278
     38 H3'         1.6783   -1.7629    0.2715 H         1 ATP         0.1161
     39 HO3'        2.2232   -1.2979    2.3953 H         1 ATP         0.4111
     40 H2'        -0.0011    0.0027    0.0003 H         1 ATP         0.0477
     41 HO2'       -0.1563   -0.9855    2.0596 H         1 ATP         0.4259
     42 H1'         1.7826    1.9024    1.6451 H         1 ATP         0.1524
     43 H8         -1.4217    1.8638    0.9164 H         1 ATP         0.2610
     44 HN61       -2.4023    5.7711   -1.5477 H         1 ATP         0.4534
     45 HN62       -1.4857    6.9379   -2.4627 H         1 ATP         0.4534
     46 H2          2.8789    5.4660   -2.1503 H         1 ATP         0.0900
     47 H47        -2.4129    3.8706   -0.2402 H         1 ATP         0.5046
@<TRIPOS>BOND
     1    1    2 2
     2    1    3 1
     3    1    4 1
     4    1    8 1
     5    3   32 1
     6    4   33 1
     7    5    6 2
     8    5    7 1
     9    5    8 1
    10    5   12 1
    11    9   10 2
    12    9   11 1
    13    9   12 1
    14    9   13 1
    15   11   34 1
    16   13   14 1
    17   14   15 1
    18   14   35 1
    19   14   36 1
    20   15   16 1
    21   15   17 1
    22   15   37 1
    23   16   21 1
    24   17   18 1
    25   17   19 1
    26   17   38 1
    27   18   39 1
    28   19   20 1
    29   19   21 1
    30   19   40 1
    31   20   41 1
    32   21   22 1
    33   21   42 1
    34   22   23 ar
    35   22   31 ar
    36   23   24 ar
    37   23   43 1
    38   24   25 ar
    39   24   47 1
    40   25   26 ar
    41   25   31 ar
    42   26   27 1
    43   26   28 ar
    44   27   44 1
    45   27   45 1
    46   28   29 ar
    47   29   30 ar
    48   29   46 1
    49   30   31 ar
@<TRIPOS>SUBSTRUCTURE
     1 ATP         1 GROUP 0 A     ****
@<TRIPOS>MOLECULE
[[5-(6-amino-7,8-dihydropurin-8-ylium-9-yl)-3,4-dihydroxy-tetrahydrofuran-2-yl]methoxy-hydroxy-phosphoryl] phosphono phosphate
   47    49     1     0     0
SMALL
USER_CHARGES

@<TRIPOS>ATOM
      1 PG          4.5328    0.6874   -7.8350 P.3       1 ATP         1.7526
      2 O1G         5.2673   -0.2354   -8.7619 O.2       1 ATP        -0.8534
      3 O2G         5.3914    1.9397   -7.2817 O.3       1 ATP        -0.7661
      4 O3G         3.2109    1.3797   -8.4558 O.3       1 ATP        -0.7661
      5 PB          2.9340   -1.2493   -6.2876 P.3       1 ATP         1.6631
      6 O1B         1.5650   -0.8057   -6.7529 O.co2     1 ATP        -0.8211
      7 O2B         3.5702   -2.5138   -6.8204 O.co2     1 ATP        -0.8211
      8 O3B         3.9811   -0.0139   -6.4867 O.3       1 ATP        -0.7954
      9 PA          2.1463   -2.2799   -3.6368 P.3       1 ATP         1.7782
     10 O1A         2.4483   -3.7410   -3.8024 O.2       1 ATP        -0.8134
     11 O2A         0.5922   -1.8888   -3.8580 O.3       1 ATP        -0.8257
     12 O3A         2.9399   -1.3083   -4.6574 O.3       1 ATP        -0.8063
     13 O5'         2.5233   -1.6622   -2.1894 O.3       1 ATP        -0.5763
     14 C5'         2.2816   -0.2918   -1.9206 C.3       1 ATP         0.1790
     15 C4'         2.7248    0.0226   -0.4980 C.3       1 ATP         0.1339
     16 O4'         2.4697    1.4219   -0.2462 O.3       1 ATP        -0.4040
     17 C3'         1.9404   -0.7419    0.5596 C.3       1 ATP         0.0906
     18 O3'         2.7418   -0.8086    1.7389 O.3       1 ATP        -0.5689
     19 C2'         0.7477    0.1630    0.7858 C.3       1 ATP         0.0660
     20 O2'         0.1373   -0.0577    2.0407 O.3       1 ATP        -0.5800
     21 C1'         1.3733    1.5427    0.6747 C.3       1 ATP         0.4216
     22 N9          0.4520    2.5240    0.1767 N.pl3     1 ATP        -0.5455
     23 C8         -0.3477    3.3274    0.8626 C.ar      1 ATP         0.2820
     24 N7         -1.0836    4.1323    0.0983 N.pl3     1 ATP        -0.4970
     25 C5         -0.7273    3.8194   -1.1674 C.ar      1 ATP        -0.2773
     26 C6         -1.1208    4.2877   -2.3863 C.ar      1 ATP         0.7637
     27 N6         -2.0932    5.3066   -2.4528 N.pl3     1 ATP        -0.9374
     28 N1         -0.5892    3.7853   -3.5223 N.ar      1 ATP        -0.7408
     29 C2          0.3427    2.8040   -3.3648 C.ar      1 ATP         0.7215
     30 N3          0.8012    2.2709   -2.2093 N.ar      1 ATP        -0.6797
     31 C4          0.2307    2.8167   -1.1312 C.ar      1 ATP         0.6429
     32 HOG2        5.7636    2.5809   -7.9238 H         1 ATP         0.4781
     33 HOG3        2.4777    0.8077   -8.7679 H         1 ATP         0.4781
     34 HOA2       -0.0862   -2.2949   -3.2777 H         1 ATP         0.4931
     35 H5'1        2.8428    0.3150   -2.6387 H         1 ATP         0.0438
     36 H5'2        1.2124   -0.0896   -2.0417 H         1 ATP         0.0438
     37 H4'         3.8049   -0.1388   -0.4009 H         1 ATP         0.1278
     38 H3'         1.6783   -1.7629    0.2715 H         1 ATP         0.1161
     39 HO3'        2.2232   -1.2979    2.3953 H         1 ATP         0.4111
     40 H2'        -0.0011    0.0027    0.0003 H         1 ATP         0.0477
     41 HO2'       -0.6141    0.5574    2.1082 H         1 ATP         0.4259
     42 H1'         1.7826    1.9024    1.6451 H         1 ATP         0.1524
     43 H8         -0.4040    3.3373    1.9373 H         1 ATP         0.2610
     44 HN61       -2.5133    5.6366   -1.6073 H         1 ATP         0.4534
     45 HN62       -2.4153    5.6161   -3.3477 H         1 ATP         0.4534
     46 H2          0.7668    2.4032   -4.2782 H         1 ATP         0.0900
     47 H47        -1.7549    4.8194    0.4122 H         1 ATP         0.5046
@<TRIPOS>BOND
     1    1    2 2
     2    1    3 1
     3    1    4 1
     4    1    8 1
     5    3   32 1
     6    4   33 1
     7    5    6 2
     8    5    7 1
     9    5    8 1
    10    5   12 1
    11    9   10 2
    12    9   11 1
    13    9   12 1
    14    9   13 1
    15   11   34 1
    16   13   14 1
    17   14   15 1
    18   14   35 1
    19   14   36 1
    20   15   16 1
    21   15   17 1
    22   15   37 1
    23   16   21 1
    24   17   18 1
    25   17   19 1
    26   17   38 1
    27   18   39 1
    28   19   20 1
    29   19   21 1
    30   19   40 1
    31   20   41 1
    32   21   22 1
    33   21   42 1
    34   22   23 ar
    35   22   31 ar
    36   23   24 ar
    37   23   43 1
    38   24   25 ar
    39   24   47 1
    40   25   26 ar
    41   25   31 ar
    42   26   27 1
    43   26   28 ar
    44   27   44 1
    45   27   45 1
    46   28   29 ar
    47   29   30 ar
    48   29   46 1
    49   30   31 ar
@<TRIPOS>SUBSTRUCTURE
     1 ATP         1 GROUP 0 A     ****
@<TRIPOS>MOLECULE
[[5-(6-amino-7,8-dihydropurin-8-ylium-9-yl)-3,4-dihydroxy-tetrahydrofuran-2-yl]methoxy-hydroxy-phosphoryl] phosphono phosphate
   47    49     1     0     0
SMALL
USER_CHARGES

@<TRIPOS>ATOM
      1 PG         -2.0687   -1.5211   -6.2061 P.3       1 ATP         1.7526
      2 O1G        -2.3567   -2.7856   -6.9601 O.2       1 ATP        -0.8534
      3 O2G        -2.0063   -0.1791   -7.1042 O.3       1 ATP        -0.7661
      4 O3G        -3.1329   -1.1517   -5.0472 O.3       1 ATP        -0.7661
      5 PB          0.8687   -1.6731   -5.9837 P.3       1 ATP         1.6631
      6 O1B         1.0443   -3.0762   -6.5204 O.co2     1 ATP        -0.8211
      7 O2B         1.2020   -0.4641   -6.8292 O.co2     1 ATP        -0.8211
      8 O3B        -0.6548   -1.5136   -5.4220 O.3       1 ATP        -0.7954
      9 PA          1.5741   -2.4609   -3.2285 P.3       1 ATP         1.7782
     10 O1A         1.9282   -3.9055   -3.4313 O.2       1 ATP        -0.8134
     11 O2A         0.0703   -2.2105   -2.6868 O.3       1 ATP        -0.8257
     12 O3A         1.6619   -1.5521   -4.5634 O.3       1 ATP        -0.8063
     13 O5'         2.5233   -1.6622   -2.1894 O.3       1 ATP        -0.5763
     14 C5'         2.2816   -0.2918   -1.9206 C.3       1 ATP         0.1790
     15 C4'         2.7248    0.0226   -0.4980 C.3       1 ATP         0.1339
     16 O4'         2.4697    1.4219   -0.2462 O.3       1 ATP        -0.4040
     17 C3'         1.9404   -0.7419    0.5596 C.3       1 ATP         0.0906
     18 O3'         2.7418   -0.8086    1.7389 O.3       1 ATP        -0.5689
     19 C2'         0.7477    0.1630    0.7858 C.3       1 ATP         0.0660
     20 O2'         0.1373   -0.0577    2.0407 O.3       1 ATP        -0.5800
     21 C1'         1.3733    1.5427    0.6747 C.3       1 ATP         0.4216
     22 N9          0.4520    2.5240    0.1767 N.pl3     1 ATP        -0.5455
     23 C8         -0.3477    3.3274    0.8626 C.ar      1 ATP         0.2820
     24 N7         -1.0836    4.1323    0.0983 N.pl3     1 ATP        -0.4970
     25 C5         -0.7273    3.8194   -1.1674 C.ar      1 ATP        -0.2773
     26 C6         -1.1208    4.2877   -2.3863 C.ar      1 ATP         0.7637
     27 N6         -2.0932    5.3066   -2.4528 N.pl3     1 ATP        -0.9374
     28 N1         -0.5892    3.7853   -3.5223 N.ar      1 ATP        -0.7408
     29 C2          0.3427    2.8040   -3.3648 C.ar      1 ATP         0.7215
     30 N3          0.8012    2.2709   -2.2093 N.ar      1 ATP        -0.6797
     31 C4          0.2307    2.8167   -1.1312 C.ar      1 ATP         0.6429
     32 HOG2       -1.3428   -0.1199   -7.8241 H         1 ATP         0.4781
     33 HOG3       -3.2675   -1.7823   -4.3080 H         1 ATP         0.4781
     34 HOA2       -0.1942   -2.5987   -1.8258 H         1 ATP         0.4931
     35 H5'1        2.8428    0.3150   -2.6387 H         1 ATP         0.0438
     36 H5'2        1.2124   -0.0896   -2.0417 H         1 ATP         0.0438
     37 H4'         3.8049   -0.1388   -0.4009 H         1 ATP         0.1278
     38 H3'         1.6783   -1.7629    0.2715 H         1 ATP         0.1161
     39 HO3'        2.2232   -1.2979    2.3953 H         1 ATP         0.4111
     40 H2'        -0.0011    0.0027    0.0003 H         1 ATP         0.0477
     41 HO2'       -0.6141    0.5574    2.1082 H         1 ATP         0.4259
     42 H1'         1.7826    1.9024    1.6451 H         1 ATP         0.1524
     43 H8         -0.4040    3.3373    1.9373 H         1 ATP         0.2610
     44 HN61       -2.5133    5.6366   -1.6073 H         1 ATP         0.4534
     45 HN62       -2.4153    5.6161   -3.3477 H         1 ATP         0.4534
     46 H2          0.7668    2.4032   -4.2782 H         1 ATP         0.0900
     47 H47        -1.7549    4.8194    0.4122 H         1 ATP         0.5046
@<TRIPOS>BOND
     1    1    2 2
     2    1    3 1
     3    1    4 1
     4    1    8 1
     5    3   32 1
     6    4   33 1
     7    5    6 2
     8    5    7 1
     9    5    8 1
    10    5   12 1
    11    9   10 2
    12    9   11 1
    13    9   12 1
    14    9   13 1
    15   11   34 1
    16   13   14 1
    17   14   15 1
    18   14   35 1
    19   14   36 1
    20   15   16 1
    21   15   17 1
    22   15   37 1
    23   16   21 1
    24   17   18 1
    25   17   19 1
    26   17   38 1
    27   18   39 1
    28   19   20 1
    29   19   21 1
    30   19   40 1
    31   20   41 1
    32   21   22 1
    33   21   42 1
    34   22   23 ar
    35   22   31 ar
    36   23   24 ar
    37   23   43 1
    38   24   25 ar
    39   24   47 1
    40   25   26 ar
    41   25   31 ar
    42   26   27 1
    43   26   28 ar
    44   27   44 1
    45   27   45 1
    46   28   29 ar
    47   29   30 ar
    48   29   46 1
    49   30   31 ar
@<TRIPOS>SUBSTRUCTURE
     1 ATP         1 GROUP 0 A     ****
@<TRIPOS>MOLECULE
[[5-(6-amino-7,8-dihydropurin-8-ylium-9-yl)-3,4-dihydroxy-tetrahydrofuran-2-yl]methoxy-hydroxy-phosphoryl] phosphono phosphate
   47    49     1     0     0
SMALL
USER_CHARGES

@<TRIPOS>ATOM
      1 PG         -5.9100   -7.2076    0.6968 P.3       1 ATP         1.7526
      2 O1G        -7.3050   -6.8636    1.1281 O.2       1 ATP        -0.8534
      3 O2G        -5.5981   -8.7873    0.5596 O.3       1 ATP        -0.7661
      4 O3G        -5.4636   -6.6080   -0.7360 O.3       1 ATP        -0.7661
      5 PB         -4.3646   -5.1676    2.1635 P.3       1 ATP         1.6631
      6 O1B        -3.8412   -4.4050    0.9669 O.co2     1 ATP        -0.8211
      7 O2B        -5.4943   -4.6208    3.0074 O.co2     1 ATP        -0.8211
      8 O3B        -4.7499   -6.6815    1.6925 O.3       1 ATP        -0.7954
      9 PA         -1.7114   -6.2782    2.8245 P.3       1 ATP         1.7782
     10 O1A        -1.8534   -7.6771    2.2986 O.2       1 ATP        -0.8134
     11 O2A        -0.8887   -6.1658    4.2130 O.3       1 ATP        -0.8257
     12 O3A        -3.1111   -5.5326    3.1416 O.3       1 ATP        -0.8063
     13 O5'        -0.9731   -5.2421    1.8246 O.3       1 ATP        -0.5763
     14 C5'        -0.7840   -3.8935    2.2172 C.3       1 ATP         0.1790
     15 C4'        -0.0724   -3.1466    1.1027 C.3       1 ATP         0.1339
     16 O4'        -0.8674   -3.1929   -0.0945 O.3       1 ATP        -0.4040
     17 C3'         0.1338   -1.6715    1.4027 C.3       1 ATP         0.0906
     18 O3'         1.2893   -1.4445    2.1808 O.3       1 ATP        -0.5689
     19 C2'         0.2158   -1.0724    0.0128 C.3       1 ATP         0.0660
     20 O2'         1.5141   -1.2448   -0.5513 O.3       1 ATP        -0.5800
     21 C1'        -0.7897   -1.9176   -0.7583 C.3       1 ATP         0.4216
     22 N9         -2.1040   -1.3333   -0.7704 N.pl3     1 ATP        -0.5455
     23 C8         -2.6611   -0.5376    0.1306 C.ar      1 ATP         0.2820
     24 N7         -3.9008   -0.1619   -0.1787 N.pl3     1 ATP        -0.4970
     25 C5         -4.1527   -0.7619   -1.3633 C.ar      1 ATP        -0.2773
     26 C6         -5.2376   -0.7682   -2.1896 C.ar      1 ATP         0.7637
     27 N6         -6.3842   -0.0312   -1.8286 N.pl3     1 ATP        -0.9374
     28 N1         -5.2214   -1.4713   -3.3433 N.ar      1 ATP        -0.7408
     29 C2         -4.0737   -2.1541   -3.6127 C.ar      1 ATP         0.7215
     30 N3         -2.9476   -2.2143   -2.8660 N.ar      1 ATP        -0.6797
     31 C4         -3.0383   -1.4958   -1.7429 C.ar      1 ATP         0.6429
     32 HOG2       -6.1239   -9.3220   -0.0727 H         1 ATP         0.4781
     33 HOG3       -5.4631   -5.6354   -0.8641 H         1 ATP         0.4781
     34 HOA2        0.0402   -6.4796    4.2404 H         1 ATP         0.4931
     35 H5'1       -1.7611   -3.4417    2.4168 H         1 ATP         0.0438
     36 H5'2       -0.1868   -3.8712    3.1345 H         1 ATP         0.0438
     37 H4'         0.8886   -3.6448    0.8780 H         1 ATP         0.1278
     38 H3'        -0.7374   -1.2358    1.9870 H         1 ATP         0.1161
     39 HO3'        1.3408   -0.4870    2.3219 H         1 ATP         0.4111
     40 H2'        -0.0384   -0.0310    0.0096 H         1 ATP         0.0477
     41 HO2'        2.1463   -0.7958    0.0370 H         1 ATP         0.4259
     42 H1'        -0.4769   -2.1002   -1.8093 H         1 ATP         0.1524
     43 H8         -2.1661   -0.2178    1.0311 H         1 ATP         0.2610
     44 HN61       -6.4010    0.4463   -0.9500 H         1 ATP         0.4534
     45 HN62       -7.1957   -0.0744   -2.4116 H         1 ATP         0.4534
     46 H2         -4.0645   -2.7171   -4.5389 H         1 ATP         0.0900
     47 H47        -4.5050    0.4395    0.3640 H         1 ATP         0.5046
@<TRIPOS>BOND
     1    1    2 2
     2    1    3 1
     3    1    4 1
     4    1    8 1
     5    3   32 1
     6    4   33 1
     7    5    6 2
     8    5    7 1
     9    5    8 1
    10    5   12 1
    11    9   10 2
    12    9   11 1
    13    9   12 1
    14    9   13 1
    15   11   34 1
    16   13   14 1
    17   14   15 1
    18   14   35 1
    19   14   36 1
    20   15   16 1
    21   15   17 1
    22   15   37 1
    23   16   21 1
    24   17   18 1
    25   17   19 1
    26   17   38 1
    27   18   39 1
    28   19   20 1
    29   19   21 1
    30   19   40 1
    31   20   41 1
    32   21   22 1
    33   21   42 1
    34   22   23 ar
    35   22   31 ar
    36   23   24 ar
    37   23   43 1
    38   24   25 ar
    39   24   47 1
    40   25   26 ar
    41   25   31 ar
    42   26   27 1
    43   26   28 ar
    44   27   44 1
    45   27   45 1
    46   28   29 ar
    47   29   30 ar
    48   29   46 1
    49   30   31 ar
@<TRIPOS>SUBSTRUCTURE
     1 ATP         1 GROUP 0 A     ****
@<TRIPOS>MOLECULE
[[5-(6-amino-7,8-dihydropurin-8-ylium-9-yl)-3,4-dihydroxy-tetrahydrofuran-2-yl]methoxy-hydroxy-phosphoryl] phosphono phosphate
   47    49     1     0     0
SMALL
USER_CHARGES

@<TRIPOS>ATOM
      1 PG          0.4982   -0.7417   -7.8720 P.3       1 ATP         1.7526
      2 O1G         0.9538    0.4066   -8.7230 O.2       1 ATP        -0.8534
      3 O2G        -1.0294   -0.6541   -7.3522 O.3       1 ATP        -0.7661
      4 O3G         0.5758   -2.1946   -8.5755 O.3       1 ATP        -0.7661
      5 PB          2.9340   -1.2493   -6.2876 P.3       1 ATP         1.6631
      6 O1B         3.2465   -2.6280   -6.8249 O.co2     1 ATP        -0.8211
      7 O2B         3.7243   -0.0384   -6.7314 O.co2     1 ATP        -0.8211
      8 O3B         1.3462   -0.9472   -6.5109 O.3       1 ATP        -0.7954
      9 PA          2.1463   -2.2799   -3.6368 P.3       1 ATP         1.7782
     10 O1A         2.4483   -3.7410   -3.8024 O.2       1 ATP        -0.8134
     11 O2A         0.5922   -1.8888   -3.8580 O.3       1 ATP        -0.8257
     12 O3A         2.9399   -1.3083   -4.6574 O.3       1 ATP        -0.8063
     13 O5'         2.5233   -1.6622   -2.1894 O.3       1 ATP        -0.5763
     14 C5'         2.2816   -0.2918   -1.9206 C.3       1 ATP         0.1790
     15 C4'         2.7248    0.0226   -0.4980 C.3       1 ATP         0.1339
     16 O4'         2.4697    1.4219   -0.2462 O.3       1 ATP        -0.4040
     17 C3'         1.9404   -0.7419    0.5596 C.3       1 ATP         0.0906
     18 O3'         2.7418   -0.8086    1.7389 O.3       1 ATP        -0.5689
     19 C2'         0.7477    0.1630    0.7858 C.3       1 ATP         0.0660
     20 O2'         0.1373   -0.0577    2.0407 O.3       1 ATP        -0.5800
     21 C1'         1.3733    1.5427    0.6747 C.3       1 ATP         0.4216
     22 N9          0.4520    2.5240    0.1767 N.pl3     1 ATP        -0.5455
     23 C8         -0.3477    3.3274    0.8626 C.ar      1 ATP         0.2820
     24 N7         -1.0836    4.1323    0.0983 N.pl3     1 ATP        -0.4970
     25 C5         -0.7273    3.8194   -1.1674 C.ar      1 ATP        -0.2773
     26 C6         -1.1208    4.2877   -2.3863 C.ar      1 ATP         0.7637
     27 N6         -2.0932    5.3066   -2.4528 N.pl3     1 ATP        -0.9374
     28 N1         -0.5892    3.7853   -3.5223 N.ar      1 ATP        -0.7408
     29 C2          0.3427    2.8040   -3.3648 C.ar      1 ATP         0.7215
     30 N3          0.8012    2.2709   -2.2093 N.ar      1 ATP        -0.6797
     31 C4          0.2307    2.8167   -1.1312 C.ar      1 ATP         0.6429
     32 HOG2       -1.7540   -0.6146   -8.0121 H         1 ATP         0.4781
     33 HOG3        1.4456   -2.5262   -8.8848 H         1 ATP         0.4781
     34 HOA2        0.1748   -2.0769   -4.7254 H         1 ATP         0.4931
     35 H5'1        2.8428    0.3150   -2.6387 H         1 ATP         0.0438
     36 H5'2        1.2124   -0.0896   -2.0417 H         1 ATP         0.0438
     37 H4'         3.8049   -0.1388   -0.4009 H         1 ATP         0.1278
     38 H3'         1.6783   -1.7629    0.2715 H         1 ATP         0.1161
     39 HO3'        2.2232   -1.2979    2.3953 H         1 ATP         0.4111
     40 H2'        -0.0011    0.0027    0.0003 H         1 ATP         0.0477
     41 HO2'       -0.6141    0.5574    2.1082 H         1 ATP         0.4259
     42 H1'         1.7826    1.9024    1.6451 H         1 ATP         0.1524
     43 H8         -0.4040    3.3373    1.9373 H         1 ATP         0.2610
     44 HN61       -2.5133    5.6366   -1.6073 H         1 ATP         0.4534
     45 HN62       -2.4153    5.6161   -3.3477 H         1 ATP         0.4534
     46 H2          0.7668    2.4032   -4.2782 H         1 ATP         0.0900
     47 H47        -1.7549    4.8194    0.4122 H         1 ATP         0.5046
@<TRIPOS>BOND
     1    1    2 2
     2    1    3 1
     3    1    4 1
     4    1    8 1
     5    3   32 1
     6    4   33 1
     7    5    6 2
     8    5    7 1
     9    5    8 1
    10    5   12 1
    11    9   10 2
    12    9   11 1
    13    9   12 1
    14    9   13 1
    15   11   34 1
    16   13   14 1
    17   14   15 1
    18   14   35 1
    19   14   36 1
    20   15   16 1
    21   15   17 1
    22   15   37 1
    23   16   21 1
    24   17   18 1
    25   17   19 1
    26   17   38 1
    27   18   39 1
    28   19   20 1
    29   19   21 1
    30   19   40 1
    31   20   41 1
    32   21   22 1
    33   21   42 1
    34   22   23 ar
    35   22   31 ar
    36   23   24 ar
    37   23   43 1
    38   24   25 ar
    39   24   47 1
    40   25   26 ar
    41   25   31 ar
    42   26   27 1
    43   26   28 ar
    44   27   44 1
    45   27   45 1
    46   28   29 ar
    47   29   30 ar
    48   29   46 1
    49   30   31 ar
@<TRIPOS>SUBSTRUCTURE
     1 ATP         1 GROUP 0 A     ****
@<TRIPOS>MOLECULE
[[5-(6-amino-7,8-dihydropurin-8-ylium-9-yl)-3,4-dihydroxy-tetrahydrofuran-2-yl]methoxy-hydroxy-phosphoryl] phosphono phosphate
   47    49     1     0     0
SMALL
USER_CHARGES

@<TRIPOS>ATOM
      1 PG          6.3855   -3.2371   -5.6696 P.3       1 ATP         1.7526
      2 O1G         7.4237   -3.1265   -4.5925 O.2       1 ATP        -0.8534
      3 O2G         6.7556   -2.5098   -7.0645 O.3       1 ATP        -0.7661
      4 O3G         6.0132   -4.7450   -6.1162 O.3       1 ATP        -0.7661
      5 PB          4.5401   -1.0774   -4.8751 P.3       1 ATP         1.6631
      6 O1B         5.1697   -0.7483   -3.5400 O.co2     1 ATP        -0.8211
      7 O2B         4.7411   -0.1821   -6.0775 O.co2     1 ATP        -0.8211
      8 O3B         4.9488   -2.6027   -5.2856 O.3       1 ATP        -0.7954
      9 PA          2.1463   -2.2799   -3.6368 P.3       1 ATP         1.7782
     10 O1A         2.4483   -3.7410   -3.8024 O.2       1 ATP        -0.8134
     11 O2A         0.5922   -1.8888   -3.8580 O.3       1 ATP        -0.8257
     12 O3A         2.9399   -1.3083   -4.6574 O.3       1 ATP        -0.8063
     13 O5'         2.5233   -1.6622   -2.1894 O.3       1 ATP        -0.5763
     14 C5'         2.2816   -0.2918   -1.9206 C.3       1 ATP         0.1790
     15 C4'         2.7248    0.0226   -0.4980 C.3       1 ATP         0.1339
     16 O4'         2.4697    1.4219   -0.2462 O.3       1 ATP        -0.4040
     17 C3'         1.9404   -0.7419    0.5596 C.3       1 ATP         0.0906
     18 O3'         2.7418   -0.8086    1.7389 O.3       1 ATP        -0.5689
     19 C2'         0.7477    0.1630    0.7858 C.3       1 ATP         0.0660
     20 O2'         0.1373   -0.0577    2.0407 O.3       1 ATP        -0.5800
     21 C1'         1.3733    1.5427    0.6747 C.3       1 ATP         0.4216
     22 N9          0.4520    2.5240    0.1767 N.pl3     1 ATP        -0.5455
     23 C8         -0.3477    3.3274    0.8626 C.ar      1 ATP         0.2820
     24 N7         -1.0836    4.1323    0.0983 N.pl3     1 ATP        -0.4970
     25 C5         -0.7273    3.8194   -1.1674 C.ar      1 ATP        -0.2773
     26 C6         -1.1208    4.2877   -2.3863 C.ar      1 ATP         0.7637
     27 N6         -2.0932    5.3066   -2.4528 N.pl3     1 ATP        -0.9374
     28 N1         -0.5892    3.7853   -3.5223 N.ar      1 ATP        -0.7408
     29 C2          0.3427    2.8040   -3.3648 C.ar      1 ATP         0.7215
     30 N3          0.8012    2.2709   -2.2093 N.ar      1 ATP        -0.6797
     31 C4          0.2307    2.8167   -1.1312 C.ar      1 ATP         0.6429
     32 HOG2        6.9214   -1.5431   -7.0666 H         1 ATP         0.4781
     33 HOG3        6.7197   -5.3205   -6.4795 H         1 ATP         0.4781
     34 HOA2       -0.0862   -2.2949   -3.2777 H         1 ATP         0.4931
     35 H5'1        2.8428    0.3150   -2.6387 H         1 ATP         0.0438
     36 H5'2        1.2124   -0.0896   -2.0417 H         1 ATP         0.0438
     37 H4'         3.8049   -0.1388   -0.4009 H         1 ATP         0.1278
     38 H3'         1.6783   -1.7629    0.2715 H         1 ATP         0.1161
     39 HO3'        2.2232   -1.2979    2.3953 H         1 ATP         0.4111
     40 H2'        -0.0011    0.0027    0.0003 H         1 ATP         0.0477
     41 HO2'       -0.6141    0.5574    2.1082 H         1 ATP         0.4259
     42 H1'         1.7826    1.9024    1.6451 H         1 ATP         0.1524
     43 H8         -0.4040    3.3373    1.9373 H         1 ATP         0.2610
     44 HN61       -2.5133    5.6366   -1.6073 H         1 ATP         0.4534
     45 HN62       -2.4153    5.6161   -3.3477 H         1 ATP         0.4534
     46 H2          0.7668    2.4032   -4.2782 H         1 ATP         0.0900
     47 H47        -1.7549    4.8194    0.4122 H         1 ATP         0.5046
@<TRIPOS>BOND
     1    1    2 2
     2    1    3 1
     3    1    4 1
     4    1    8 1
     5    3   32 1
     6    4   33 1
     7    5    6 2
     8    5    7 1
     9    5    8 1
    10    5   12 1
    11    9   10 2
    12    9   11 1
    13    9   12 1
    14    9   13 1
    15   11   34 1
    16   13   14 1
    17   14   15 1
    18   14   35 1
    19   14   36 1
    20   15   16 1
    21   15   17 1
    22   15   37 1
    23   16   21 1
    24   17   18 1
    25   17   19 1
    26   17   38 1
    27   18   39 1
    28   19   20 1
    29   19   21 1
    30   19   40 1
    31   20   41 1
    32   21   22 1
    33   21   42 1
    34   22   23 ar
    35   22   31 ar
    36   23   24 ar
    37   23   43 1
    38   24   25 ar
    39   24   47 1
    40   25   26 ar
    41   25   31 ar
    42   26   27 1
    43   26   28 ar
    44   27   44 1
    45   27   45 1
    46   28   29 ar
    47   29   30 ar
    48   29   46 1
    49   30   31 ar
@<TRIPOS>SUBSTRUCTURE
     1 ATP         1 GROUP 0 A     ****
@<TRIPOS>MOLECULE
[[5-(6-amino-7,8-dihydropurin-8-ylium-9-yl)-3,4-dihydroxy-tetrahydrofuran-2-yl]methoxy-hydroxy-phosphoryl] phosphono phosphate
   47    49     1     0     0
SMALL
USER_CHARGES

@<TRIPOS>ATOM
      1 PG         -1.8697    0.6129   -6.4758 P.3       1 ATP         1.7526
      2 O1G        -1.7632    1.4147   -7.7392 O.2       1 ATP        -0.8534
      3 O2G        -3.2214    0.8449   -5.6211 O.3       1 ATP        -0.7661
      4 O3G        -1.8154   -0.9906   -6.6702 O.3       1 ATP        -0.7661
      5 PB         -0.2612    2.2685   -4.6393 P.3       1 ATP         1.6631
      6 O1B         0.2869    3.2386   -5.6620 O.co2     1 ATP        -0.8211
      7 O2B        -1.3736    2.6704   -3.6966 O.co2     1 ATP        -0.8211
      8 O3B        -0.6942    0.8924   -5.4016 O.3       1 ATP        -0.7954
      9 PA          2.3549    0.9657   -4.2291 P.3       1 ATP         1.7782
     10 O1A         3.2319    1.8157   -5.1020 O.2       1 ATP        -0.8134
     11 O2A         1.8647   -0.4148   -4.9154 O.3       1 ATP        -0.8257
     12 O3A         0.9794    1.6761   -3.7612 O.3       1 ATP        -0.8063
     13 O5'         3.0190    0.5130   -2.8246 O.3       1 ATP        -0.5763
     14 C5'         2.2816   -0.2918   -1.9206 C.3       1 ATP         0.1790
     15 C4'         2.7248    0.0226   -0.4980 C.3       1 ATP         0.1339
     16 O4'         2.4697    1.4219   -0.2462 O.3       1 ATP        -0.4040
     17 C3'         1.9404   -0.7419    0.5596 C.3       1 ATP         0.0906
     18 O3'         2.7418   -0.8086    1.7389 O.3       1 ATP        -0.5689
     19 C2'         0.7477    0.1630    0.7858 C.3       1 ATP         0.0660
     20 O2'         0.1373   -0.0577    2.0407 O.3       1 ATP        -0.5800
     21 C1'         1.3733    1.5427    0.6747 C.3       1 ATP         0.4216
     22 N9          0.4520    2.5240    0.1767 N.pl3     1 ATP        -0.5455
     23 C8         -0.2172    2.5216   -0.9668 C.ar      1 ATP         0.2820
     24 N7         -1.0011    3.5855   -1.1321 N.pl3     1 ATP        -0.4970
     25 C5         -0.8184    4.3200   -0.0123 C.ar      1 ATP        -0.2773
     26 C6         -1.3349    5.5079    0.4144 C.ar      1 ATP         0.7637
     27 N6         -2.2567    6.1930   -0.4036 N.pl3     1 ATP        -0.9374
     28 N1         -0.9716    6.0291    1.6069 N.ar      1 ATP        -0.7408
     29 C2         -0.0765    5.3009    2.3312 C.ar      1 ATP         0.7215
     30 N3          0.4933    4.1191    2.0023 N.ar      1 ATP        -0.6797
     31 C4          0.0865    3.6675    0.8123 C.ar      1 ATP         0.6429
     32 HOG2       -3.4230    1.7445   -5.2862 H         1 ATP         0.4781
     33 HOG3       -1.0193   -1.3924   -7.0787 H         1 ATP         0.4781
     34 HOA2        1.3360   -0.3725   -5.7405 H         1 ATP         0.4931
     35 H5'1        1.2149   -0.0786   -2.0446 H         1 ATP         0.0438
     36 H5'2        2.4640   -1.3459   -2.1539 H         1 ATP         0.0438
     37 H4'         3.8049   -0.1388   -0.4009 H         1 ATP         0.1278
     38 H3'         1.6783   -1.7629    0.2715 H         1 ATP         0.1161
     39 HO3'        2.2232   -1.2979    2.3953 H         1 ATP         0.4111
     40 H2'        -0.0011    0.0027    0.0003 H         1 ATP         0.0477
     41 HO2'       -0.6141    0.5574    2.1082 H         1 ATP         0.4259
     42 H1'         1.7826    1.9024    1.6451 H         1 ATP         0.1524
     43 H8         -0.1423    1.7373   -1.6999 H         1 ATP         0.2610
     44 HN61       -2.4811    5.8206   -1.3042 H         1 ATP         0.4534
     45 HN62       -2.5986    7.0863   -0.1113 H         1 ATP         0.4534
     46 H2          0.2128    5.7222    3.2871 H         1 ATP         0.0900
     47 H47        -1.5947    3.7835   -1.9255 H         1 ATP         0.5046
@<TRIPOS>BOND
     1    1    2 2
     2    1    3 1
     3    1    4 1
     4    1    8 1
     5    3   32 1
     6    4   33 1
     7    5    6 2
     8    5    7 1
     9    5    8 1
    10    5   12 1
    11    9   10 2
    12    9   11 1
    13    9   12 1
    14    9   13 1
    15   11   34 1
    16   13   14 1
    17   14   15 1
    18   14   35 1
    19   14   36 1
    20   15   16 1
    21   15   17 1
    22   15   37 1
    23   16   21 1
    24   17   18 1
    25   17   19 1
    26   17   38 1
    27   18   39 1
    28   19   20 1
    29   19   21 1
    30   19   40 1
    31   20   41 1
    32   21   22 1
    33   21   42 1
    34   22   23 ar
    35   22   31 ar
    36   23   24 ar
    37   23   43 1
    38   24   25 ar
    39   24   47 1
    40   25   26 ar
    41   25   31 ar
    42   26   27 1
    43   26   28 ar
    44   27   44 1
    45   27   45 1
    46   28   29 ar
    47   29   30 ar
    48   29   46 1
    49   30   31 ar
@<TRIPOS>SUBSTRUCTURE
     1 ATP         1 GROUP 0 A     ****
@<TRIPOS>MOLECULE
[[5-(6-amino-7,8-dihydropurin-8-ylium-9-yl)-3,4-dihydroxy-tetrahydrofuran-2-yl]methoxy-hydroxy-phosphoryl] phosphono phosphate
   47    49     1     0     0
SMALL
USER_CHARGES

@<TRIPOS>ATOM
      1 PG          2.0446    0.0082   -8.9350 P.3       1 ATP         1.7526
      2 O1G         0.6776    0.0429   -9.5520 O.2       1 ATP        -0.8534
      3 O2G         2.9543   -1.2645   -9.3401 O.3       1 ATP        -0.7661
      4 O3G         2.9890    1.2736   -9.2799 O.3       1 ATP        -0.7661
      5 PB          1.4182   -1.1116   -6.2790 P.3       1 ATP         1.6631
      6 O1B        -0.0897   -1.0637   -6.3849 O.co2     1 ATP        -0.8211
      7 O2B         2.1720   -2.4150   -6.4221 O.co2     1 ATP        -0.8211
      8 O3B         2.0514   -0.0252   -7.3186 O.3       1 ATP        -0.7954
      9 PA          3.3376   -0.0311   -4.3149 P.3       1 ATP         1.7782
     10 O1A         4.1251    0.9098   -5.1800 O.2       1 ATP        -0.8134
     11 O2A         4.0362   -1.4721   -4.0854 O.3       1 ATP        -0.8257
     12 O3A         1.8686   -0.3982   -4.8828 O.3       1 ATP        -0.8063
     13 O5'         3.0190    0.5130   -2.8246 O.3       1 ATP        -0.5763
     14 C5'         2.2816   -0.2918   -1.9206 C.3       1 ATP         0.1790
     15 C4'         2.7248    0.0226   -0.4980 C.3       1 ATP         0.1339
     16 O4'         2.4697    1.4219   -0.2462 O.3       1 ATP        -0.4040
     17 C3'         1.9404   -0.7419    0.5596 C.3       1 ATP         0.0906
     18 O3'         2.7418   -0.8086    1.7389 O.3       1 ATP        -0.5689
     19 C2'         0.7477    0.1630    0.7858 C.3       1 ATP         0.0660
     20 O2'         0.1373   -0.0577    2.0407 O.3       1 ATP        -0.5800
     21 C1'         1.3733    1.5427    0.6747 C.3       1 ATP         0.4216
     22 N9          0.4520    2.5240    0.1767 N.pl3     1 ATP        -0.5455
     23 C8         -0.3477    3.3274    0.8626 C.ar      1 ATP         0.2820
     24 N7         -1.0836    4.1323    0.0983 N.pl3     1 ATP        -0.4970
     25 C5         -0.7273    3.8194   -1.1674 C.ar      1 ATP        -0.2773
     26 C6         -1.1208    4.2877   -2.3863 C.ar      1 ATP         0.7637
     27 N6         -2.0932    5.3066   -2.4528 N.pl3     1 ATP        -0.9374
     28 N1         -0.5892    3.7853   -3.5223 N.ar      1 ATP        -0.7408
     29 C2          0.3427    2.8040   -3.3648 C.ar      1 ATP         0.7215
     30 N3          0.8012    2.2709   -2.2093 N.ar      1 ATP        -0.6797
     31 C4          0.2307    2.8167   -1.1312 C.ar      1 ATP         0.6429
     32 HOG2        2.6323   -2.1658   -9.1259 H         1 ATP         0.4781
     33 HOG3        3.2129    1.4571  -10.2171 H         1 ATP         0.4781
     34 HOA2        4.9191   -1.5086   -3.6596 H         1 ATP         0.4931
     35 H5'1        1.2149   -0.0786   -2.0446 H         1 ATP         0.0438
     36 H5'2        2.4640   -1.3459   -2.1539 H         1 ATP         0.0438
     37 H4'         3.8049   -0.1388   -0.4009 H         1 ATP         0.1278
     38 H3'         1.6783   -1.7629    0.2715 H         1 ATP         0.1161
     39 HO3'        2.2232   -1.2979    2.3953 H         1 ATP         0.4111
     40 H2'        -0.0011    0.0027    0.0003 H         1 ATP         0.0477
     41 HO2'       -0.6141    0.5574    2.1082 H         1 ATP         0.4259
     42 H1'         1.7826    1.9024    1.6451 H         1 ATP         0.1524
     43 H8         -0.4040    3.3373    1.9373 H         1 ATP         0.2610
     44 HN61       -2.5133    5.6366   -1.6073 H         1 ATP         0.4534
     45 HN62       -2.4153    5.6161   -3.3477 H         1 ATP         0.4534
     46 H2          0.7668    2.4032   -4.2782 H         1 ATP         0.0900
     47 H47        -1.7549    4.8194    0.4122 H         1 ATP         0.5046
@<TRIPOS>BOND
     1    1    2 2
     2    1    3 1
     3    1    4 1
     4    1    8 1
     5    3   32 1
     6    4   33 1
     7    5    6 2
     8    5    7 1
     9    5    8 1
    10    5   12 1
    11    9   10 2
    12    9   11 1
    13    9   12 1
    14    9   13 1
    15   11   34 1
    16   13   14 1
    17   14   15 1
    18   14   35 1
    19   14   36 1
    20   15   16 1
    21   15   17 1
    22   15   37 1
    23   16   21 1
    24   17   18 1
    25   17   19 1
    26   17   38 1
    27   18   39 1
    28   19   20 1
    29   19   21 1
    30   19   40 1
    31   20   41 1
    32   21   22 1
    33   21   42 1
    34   22   23 ar
    35   22   31 ar
    36   23   24 ar
    37   23   43 1
    38   24   25 ar
    39   24   47 1
    40   25   26 ar
    41   25   31 ar
    42   26   27 1
    43   26   28 ar
    44   27   44 1
    45   27   45 1
    46   28   29 ar
    47   29   30 ar
    48   29   46 1
    49   30   31 ar
@<TRIPOS>SUBSTRUCTURE
     1 ATP         1 GROUP 0 A     ****
@<TRIPOS>MOLECULE
[[5-(6-amino-7,8-dihydropurin-8-ylium-9-yl)-3,4-dihydroxy-tetrahydrofuran-2-yl]methoxy-hydroxy-phosphoryl] phosphono phosphate
   47    49     1     0     0
SMALL
USER_CHARGES

@<TRIPOS>ATOM
      1 PG          1.0339   -4.0496   -7.7233 P.3       1 ATP         1.7526
      2 O1G        -0.4218   -4.3625   -7.9062 O.2       1 ATP        -0.8534
      3 O2G         2.0033   -5.3333   -7.5687 O.3       1 ATP        -0.7661
      4 O3G         1.7134   -3.2044   -8.9215 O.3       1 ATP        -0.7661
      5 PB          0.8687   -1.6731   -5.9837 P.3       1 ATP         1.6631
      6 O1B         1.4500   -0.6673   -6.9521 O.co2     1 ATP        -0.8211
      7 O2B        -0.6172   -1.7242   -5.7059 O.co2     1 ATP        -0.8211
      8 O3B         1.3714   -3.1649   -6.4128 O.3       1 ATP        -0.7954
      9 PA          1.5741   -2.4609   -3.2285 P.3       1 ATP         1.7782
     10 O1A         1.9282   -3.9055   -3.4313 O.2       1 ATP        -0.8134
     11 O2A         0.0703   -2.2105   -2.6868 O.3       1 ATP        -0.8257
     12 O3A         1.6619   -1.5521   -4.5634 O.3       1 ATP        -0.8063
     13 O5'         2.5233   -1.6622   -2.1894 O.3       1 ATP        -0.5763
     14 C5'         2.2816   -0.2918   -1.9206 C.3       1 ATP         0.1790
     15 C4'         2.7248    0.0226   -0.4980 C.3       1 ATP         0.1339
     16 O4'         2.4697    1.4219   -0.2462 O.3       1 ATP        -0.4040
     17 C3'         1.9404   -0.7419    0.5596 C.3       1 ATP         0.0906
     18 O3'         2.7418   -0.8086    1.7389 O.3       1 ATP        -0.5689
     19 C2'         0.7477    0.1630    0.7858 C.3       1 ATP         0.0660
     20 O2'         0.1373   -0.0577    2.0407 O.3       1 ATP        -0.5800
     21 C1'         1.3733    1.5427    0.6747 C.3       1 ATP         0.4216
     22 N9          0.4520    2.5240    0.1767 N.pl3     1 ATP        -0.5455
     23 C8         -0.3477    3.3274    0.8626 C.ar      1 ATP         0.2820
     24 N7         -1.0836    4.1323    0.0983 N.pl3     1 ATP        -0.4970
     25 C5         -0.7273    3.8194   -1.1674 C.ar      1 ATP        -0.2773
     26 C6         -1.1208    4.2877   -2.3863 C.ar      1 ATP         0.7637
     27 N6         -2.0932    5.3066   -2.4528 N.pl3     1 ATP        -0.9374
     28 N1         -0.5892    3.7853   -3.5223 N.ar      1 ATP        -0.7408
     29 C2          0.3427    2.8040   -3.3648 C.ar      1 ATP         0.7215
     30 N3          0.8012    2.2709   -2.2093 N.ar      1 ATP        -0.6797
     31 C4          0.2307    2.8167   -1.1312 C.ar      1 ATP         0.6429
     32 HOG2        2.0454   -5.9871   -8.2986 H         1 ATP         0.4781
     33 HOG3        1.3579   -2.3157   -9.1363 H         1 ATP         0.4781
     34 HOA2       -0.1942   -2.5987   -1.8258 H         1 ATP         0.4931
     35 H5'1        2.8428    0.3150   -2.6387 H         1 ATP         0.0438
     36 H5'2        1.2124   -0.0896   -2.0417 H         1 ATP         0.0438
     37 H4'         3.8049   -0.1388   -0.4009 H         1 ATP         0.1278
     38 H3'         1.6783   -1.7629    0.2715 H         1 ATP         0.1161
     39 HO3'        2.2232   -1.2979    2.3953 H         1 ATP         0.4111
     40 H2'        -0.0011    0.0027    0.0003 H         1 ATP         0.0477
     41 HO2'       -0.6141    0.5574    2.1082 H         1 ATP         0.4259
     42 H1'         1.7826    1.9024    1.6451 H         1 ATP         0.1524
     43 H8         -0.4040    3.3373    1.9373 H         1 ATP         0.2610
     44 HN61       -2.5133    5.6366   -1.6073 H         1 ATP         0.4534
     45 HN62       -2.4153    5.6161   -3.3477 H         1 ATP         0.4534
     46 H2          0.7668    2.4032   -4.2782 H         1 ATP         0.0900
     47 H47        -1.7549    4.8194    0.4122 H         1 ATP         0.5046
@<TRIPOS>BOND
     1    1    2 2
     2    1    3 1
     3    1    4 1
     4    1    8 1
     5    3   32 1
     6    4   33 1
     7    5    6 2
     8    5    7 1
     9    5    8 1
    10    5   12 1
    11    9   10 2
    12    9   11 1
    13    9   12 1
    14    9   13 1
    15   11   34 1
    16   13   14 1
    17   14   15 1
    18   14   35 1
    19   14   36 1
    20   15   16 1
    21   15   17 1
    22   15   37 1
    23   16   21 1
    24   17   18 1
    25   17   19 1
    26   17   38 1
    27   18   39 1
    28   19   20 1
    29   19   21 1
    30   19   40 1
    31   20   41 1
    32   21   22 1
    33   21   42 1
    34   22   23 ar
    35   22   31 ar
    36   23   24 ar
    37   23   43 1
    38   24   25 ar
    39   24   47 1
    40   25   26 ar
    41   25   31 ar
    42   26   27 1
    43   26   28 ar
    44   27   44 1
    45   27   45 1
    46   28   29 ar
    47   29   30 ar
    48   29   46 1
    49   30   31 ar
@<TRIPOS>SUBSTRUCTURE
     1 ATP         1 GROUP 0 A     ****
@<TRIPOS>MOLECULE
[[5-(6-amino-7,8-dihydropurin-8-ylium-9-yl)-3,4-dihydroxy-tetrahydrofuran-2-yl]methoxy-hydroxy-phosphoryl] phosphono phosphate
   47    49     1     0     0
SMALL
USER_CHARGES

@<TRIPOS>ATOM
      1 PG         -1.9689   -0.4773   -6.2555 P.3       1 ATP         1.7526
      2 O1G        -2.9293    0.1043   -5.2607 O.2       1 ATP        -0.8534
      3 O2G        -2.3101   -1.9770   -6.7513 O.3       1 ATP        -0.7661
      4 O3G        -1.8181    0.3520   -7.6345 O.3       1 ATP        -0.7661
      5 PB          0.5901    0.5585   -5.2165 P.3       1 ATP         1.6631
      6 O1B         0.9425    1.4501   -6.3862 O.co2     1 ATP        -0.8211
      7 O2B         0.0670    1.1373   -3.9207 O.co2     1 ATP        -0.8211
      8 O3B        -0.4447   -0.5941   -5.7290 O.3       1 ATP        -0.7954
      9 PA          3.3376   -0.0311   -4.3149 P.3       1 ATP         1.7782
     10 O1A         4.1251    0.9098   -5.1800 O.2       1 ATP        -0.8134
     11 O2A         4.0362   -1.4721   -4.0854 O.3       1 ATP        -0.8257
     12 O3A         1.8686   -0.3982   -4.8828 O.3       1 ATP        -0.8063
     13 O5'         3.0190    0.5130   -2.8246 O.3       1 ATP        -0.5763
     14 C5'         2.2816   -0.2918   -1.9206 C.3       1 ATP         0.1790
     15 C4'         2.7248    0.0226   -0.4980 C.3       1 ATP         0.1339
     16 O4'         2.4697    1.4219   -0.2462 O.3       1 ATP        -0.4040
     17 C3'         1.9404   -0.7419    0.5596 C.3       1 ATP         0.0906
     18 O3'         2.7418   -0.8086    1.7389 O.3       1 ATP        -0.5689
     19 C2'         0.7477    0.1630    0.7858 C.3       1 ATP         0.0660
     20 O2'         0.1373   -0.0577    2.0407 O.3       1 ATP        -0.5800
     21 C1'         1.3733    1.5427    0.6747 C.3       1 ATP         0.4216
     22 N9          0.4520    2.5240    0.1767 N.pl3     1 ATP        -0.5455
     23 C8         -0.5899    2.3466   -0.6224 C.ar      1 ATP         0.2820
     24 N7         -1.2514    3.4689   -0.8989 N.pl3     1 ATP        -0.4970
     25 C5         -0.5826    4.4323   -0.2272 C.ar      1 ATP        -0.2773
     26 C6         -0.7636    5.7789   -0.1086 C.ar      1 ATP         0.7637
     27 N6         -1.8382    6.3927   -0.7843 N.pl3     1 ATP        -0.9374
     28 N1          0.0741    6.5233    0.6461 N.ar      1 ATP        -0.7408
     29 C2          1.0845    5.8486    1.2626 C.ar      1 ATP         0.7215
     30 N3          1.3516    4.5236    1.2116 N.ar      1 ATP        -0.6797
     31 C4          0.4827    3.8546    0.4481 C.ar      1 ATP         0.6429
     32 HOG2       -2.3490   -2.6990   -6.0885 H         1 ATP         0.4781
     33 HOG3       -1.5072    1.2816   -7.5976 H         1 ATP         0.4781
     34 HOA2        4.9191   -1.5086   -3.6596 H         1 ATP         0.4931
     35 H5'1        1.2149   -0.0786   -2.0446 H         1 ATP         0.0438
     36 H5'2        2.4640   -1.3459   -2.1539 H         1 ATP         0.0438
     37 H4'         3.8049   -0.1388   -0.4009 H         1 ATP         0.1278
     38 H3'         1.6783   -1.7629    0.2715 H         1 ATP         0.1161
     39 HO3'        2.2232   -1.2979    2.3953 H         1 ATP         0.4111
     40 H2'        -0.0011    0.0027    0.0003 H         1 ATP         0.0477
     41 HO2'       -0.1563   -0.9855    2.0596 H         1 ATP         0.4259
     42 H1'         1.7826    1.9024    1.6451 H         1 ATP         0.1524
     43 H8         -0.8833    1.3888   -1.0158 H         1 ATP         0.2610
     44 HN61       -2.4225    5.8385   -1.3773 H         1 ATP         0.4534
     45 HN62       -1.9421    7.3862   -0.7348 H         1 ATP         0.4534
     46 H2          1.7546    6.4491    1.8670 H         1 ATP         0.0900
     47 H47        -2.0705    3.5612   -1.4834 H         1 ATP         0.5046
@<TRIPOS>BOND
     1    1    2 2
     2    1    3 1
     3    1    4 1
     4    1    8 1
     5    3   32 1
     6    4   33 1
     7    5    6 2
     8    5    7 1
     9    5    8 1
    10    5   12 1
    11    9   10 2
    12    9   11 1
    13    9   12 1
    14    9   13 1
    15   11   34 1
    16   13   14 1
    17   14   15 1
    18   14   35 1
    19   14   36 1
    20   15   16 1
    21   15   17 1
    22   15   37 1
    23   16   21 1
    24   17   18 1
    25   17   19 1
    26   17   38 1
    27   18   39 1
    28   19   20 1
    29   19   21 1
    30   19   40 1
    31   20   41 1
    32   21   22 1
    33   21   42 1
    34   22   23 ar
    35   22   31 ar
    36   23   24 ar
    37   23   43 1
    38   24   25 ar
    39   24   47 1
    40   25   26 ar
    41   25   31 ar
    42   26   27 1
    43   26   28 ar
    44   27   44 1
    45   27   45 1
    46   28   29 ar
    47   29   30 ar
    48   29   46 1
    49   30   31 ar
@<TRIPOS>SUBSTRUCTURE
     1 ATP         1 GROUP 0 A     ****
@<TRIPOS>MOLECULE
[[5-(6-amino-7,8-dihydropurin-8-ylium-9-yl)-3,4-dihydroxy-tetrahydrofuran-2-yl]methoxy-hydroxy-phosphoryl] phosphono phosphate
   47    49     1     0     0
SMALL
USER_CHARGES

@<TRIPOS>ATOM
      1 PG          2.7077    0.4979   -7.9279 P.3       1 ATP         1.7526
      2 O1G         3.8166    1.4733   -7.6647 O.2       1 ATP        -0.8534
      3 O2G         1.3730    1.1288   -8.5852 O.3       1 ATP        -0.7661
      4 O3G         3.0814   -0.7186   -8.9241 O.3       1 ATP        -0.7661
      5 PB          2.9225   -1.2308   -5.5475 P.3       1 ATP         1.6631
      6 O1B         3.3249   -2.5062   -6.2539 O.co2     1 ATP        -0.8211
      7 O2B         3.9347   -0.4057   -4.7845 O.co2     1 ATP        -0.8211
      8 O3B         2.1547   -0.2618   -6.6122 O.3       1 ATP        -0.7954
      9 PA          1.5741   -2.4609   -3.2285 P.3       1 ATP         1.7782
     10 O1A         1.9282   -3.9055   -3.4313 O.2       1 ATP        -0.8134
     11 O2A         0.0703   -2.2105   -2.6868 O.3       1 ATP        -0.8257
     12 O3A         1.6619   -1.5521   -4.5634 O.3       1 ATP        -0.8063
     13 O5'         2.5233   -1.6622   -2.1894 O.3       1 ATP        -0.5763
     14 C5'         2.2816   -0.2918   -1.9206 C.3       1 ATP         0.1790
     15 C4'         2.7248    0.0226   -0.4980 C.3       1 ATP         0.1339
     16 O4'         2.4697    1.4219   -0.2462 O.3       1 ATP        -0.4040
     17 C3'         1.9404   -0.7419    0.5596 C.3       1 ATP         0.0906
     18 O3'         2.7418   -0.8086    1.7389 O.3       1 ATP        -0.5689
     19 C2'         0.7477    0.1630    0.7858 C.3       1 ATP         0.0660
     20 O2'         0.1373   -0.0577    2.0407 O.3       1 ATP        -0.5800
     21 C1'         1.3733    1.5427    0.6747 C.3       1 ATP         0.4216
     22 N9          0.4520    2.5240    0.1767 N.pl3     1 ATP        -0.5455
     23 C8         -0.8602    2.5861    0.3496 C.ar      1 ATP         0.2820
     24 N7         -1.4308    3.6326   -0.2443 N.pl3     1 ATP        -0.4970
     25 C5         -0.4080    4.2856   -0.8394 C.ar      1 ATP        -0.2773
     26 C6         -0.3432    5.4196   -1.5943 C.ar      1 ATP         0.7637
     27 N6         -1.5276    6.1333   -1.8702 N.pl3     1 ATP        -0.9374
     28 N1          0.8395    5.8603   -2.0764 N.ar      1 ATP        -0.7408
     29 C2          1.9319    5.1095   -1.7617 C.ar      1 ATP         0.7215
     30 N3          1.9773    3.9761   -1.0249 N.ar      1 ATP        -0.6797
     31 C4          0.7724    3.6031   -0.5836 C.ar      1 ATP         0.6429
     32 HOG2        1.4377    1.5742   -9.4567 H         1 ATP         0.4781
     33 HOG3        3.8097   -1.3275   -8.6772 H         1 ATP         0.4781
     34 HOA2       -0.1942   -2.5987   -1.8258 H         1 ATP         0.4931
     35 H5'1        2.8428    0.3150   -2.6387 H         1 ATP         0.0438
     36 H5'2        1.2124   -0.0896   -2.0417 H         1 ATP         0.0438
     37 H4'         3.8049   -0.1388   -0.4009 H         1 ATP         0.1278
     38 H3'         1.6783   -1.7629    0.2715 H         1 ATP         0.1161
     39 HO3'        2.2232   -1.2979    2.3953 H         1 ATP         0.4111
     40 H2'        -0.0011    0.0027    0.0003 H         1 ATP         0.0477
     41 HO2'       -0.1563   -0.9855    2.0596 H         1 ATP         0.4259
     42 H1'         1.7826    1.9024    1.6451 H         1 ATP         0.1524
     43 H8         -1.4217    1.8638    0.9164 H         1 ATP         0.2610
     44 HN61       -2.4023    5.7711   -1.5477 H         1 ATP         0.4534
     45 HN62       -1.4857    6.9379   -2.4627 H         1 ATP         0.4534
     46 H2          2.8789    5.4660   -2.1503 H         1 ATP         0.0900
     47 H47        -2.4129    3.8706   -0.2402 H         1 ATP         0.5046
@<TRIPOS>BOND
     1    1    2 2
     2    1    3 1
     3    1    4 1
     4    1    8 1
     5    3   32 1
     6    4   33 1
     7    5    6 2
     8    5    7 1
     9    5    8 1
    10    5   12 1
    11    9   10 2
    12    9   11 1
    13    9   12 1
    14    9   13 1
    15   11   34 1
    16   13   14 1
    17   14   15 1
    18   14   35 1
    19   14   36 1
    20   15   16 1
    21   15   17 1
    22   15   37 1
    23   16   21 1
    24   17   18 1
    25   17   19 1
    26   17   38 1
    27   18   39 1
    28   19   20 1
    29   19   21 1
    30   19   40 1
    31   20   41 1
    32   21   22 1
    33   21   42 1
    34   22   23 ar
    35   22   31 ar
    36   23   24 ar
    37   23   43 1
    38   24   25 ar
    39   24   47 1
    40   25   26 ar
    41   25   31 ar
    42   26   27 1
    43   26   28 ar
    44   27   44 1
    45   27   45 1
    46   28   29 ar
    47   29   30 ar
    48   29   46 1
    49   30   31 ar
@<TRIPOS>SUBSTRUCTURE
     1 ATP         1 GROUP 0 A     ****
@<TRIPOS>MOLECULE
[[5-(6-amino-7,8-dihydropurin-8-ylium-9-yl)-3,4-dihydroxy-tetrahydrofuran-2-yl]methoxy-hydroxy-phosphoryl] phosphono phosphate
   47    49     1     0     0
SMALL
USER_CHARGES

@<TRIPOS>ATOM
      1 PG          5.6400    0.8059   -6.8611 P.3       1 ATP         1.7526
      2 O1G         6.5473    1.6272   -5.9935 O.2       1 ATP        -0.8534
      3 O2G         4.8454    1.6272   -8.0037 O.3       1 ATP        -0.7661
      4 O3G         6.3626   -0.3832   -7.6833 O.3       1 ATP        -0.7661
      5 PB          4.5401   -1.0774   -4.8751 P.3       1 ATP         1.6631
      6 O1B         5.1420   -2.3458   -5.4376 O.co2     1 ATP        -0.8211
      7 O2B         5.1084   -0.4241   -3.6350 O.co2     1 ATP        -0.8211
      8 O3B         4.4620    0.0376   -6.0638 O.3       1 ATP        -0.7954
      9 PA          2.1463   -2.2799   -3.6368 P.3       1 ATP         1.7782
     10 O1A         2.4483   -3.7410   -3.8024 O.2       1 ATP        -0.8134
     11 O2A         0.5922   -1.8888   -3.8580 O.3       1 ATP        -0.8257
     12 O3A         2.9399   -1.3083   -4.6574 O.3       1 ATP        -0.8063
     13 O5'         2.5233   -1.6622   -2.1894 O.3       1 ATP        -0.5763
     14 C5'         2.2816   -0.2918   -1.9206 C.3       1 ATP         0.1790
     15 C4'         2.7248    0.0226   -0.4980 C.3       1 ATP         0.1339
     16 O4'         2.4697    1.4219   -0.2462 O.3       1 ATP        -0.4040
     17 C3'         1.9404   -0.7419    0.5596 C.3       1 ATP         0.0906
     18 O3'         2.7418   -0.8086    1.7389 O.3       1 ATP        -0.5689
     19 C2'         0.7477    0.1630    0.7858 C.3       1 ATP         0.0660
     20 O2'         0.1373   -0.0577    2.0407 O.3       1 ATP        -0.5800
     21 C1'         1.3733    1.5427    0.6747 C.3       1 ATP         0.4216
     22 N9          0.4520    2.5240    0.1767 N.pl3     1 ATP        -0.5455
     23 C8         -0.3477    3.3274    0.8626 C.ar      1 ATP         0.2820
     24 N7         -1.0836    4.1323    0.0983 N.pl3     1 ATP        -0.4970
     25 C5         -0.7273    3.8194   -1.1674 C.ar      1 ATP        -0.2773
     26 C6         -1.1208    4.2877   -2.3863 C.ar      1 ATP         0.7637
     27 N6         -2.0932    5.3066   -2.4528 N.pl3     1 ATP        -0.9374
     28 N1         -0.5892    3.7853   -3.5223 N.ar      1 ATP        -0.7408
     29 C2          0.3427    2.8040   -3.3648 C.ar      1 ATP         0.7215
     30 N3          0.8012    2.2709   -2.2093 N.ar      1 ATP        -0.6797
     31 C4          0.2307    2.8167   -1.1312 C.ar      1 ATP         0.6429
     32 HOG2        5.3592    2.1140   -8.6827 H         1 ATP         0.4781
     33 HOG3        6.8315   -1.0870   -7.1862 H         1 ATP         0.4781
     34 HOA2       -0.0862   -2.2949   -3.2777 H         1 ATP         0.4931
     35 H5'1        2.8428    0.3150   -2.6387 H         1 ATP         0.0438
     36 H5'2        1.2124   -0.0896   -2.0417 H         1 ATP         0.0438
     37 H4'         3.8049   -0.1388   -0.4009 H         1 ATP         0.1278
     38 H3'         1.6783   -1.7629    0.2715 H         1 ATP         0.1161
     39 HO3'        2.2232   -1.2979    2.3953 H         1 ATP         0.4111
     40 H2'        -0.0011    0.0027    0.0003 H         1 ATP         0.0477
     41 HO2'       -0.6141    0.5574    2.1082 H         1 ATP         0.4259
     42 H1'         1.7826    1.9024    1.6451 H         1 ATP         0.1524
     43 H8         -0.4040    3.3373    1.9373 H         1 ATP         0.2610
     44 HN61       -2.5133    5.6366   -1.6073 H         1 ATP         0.4534
     45 HN62       -2.4153    5.6161   -3.3477 H         1 ATP         0.4534
     46 H2          0.7668    2.4032   -4.2782 H         1 ATP         0.0900
     47 H47        -1.7549    4.8194    0.4122 H         1 ATP         0.5046
@<TRIPOS>BOND
     1    1    2 2
     2    1    3 1
     3    1    4 1
     4    1    8 1
     5    3   32 1
     6    4   33 1
     7    5    6 2
     8    5    7 1
     9    5    8 1
    10    5   12 1
    11    9   10 2
    12    9   11 1
    13    9   12 1
    14    9   13 1
    15   11   34 1
    16   13   14 1
    17   14   15 1
    18   14   35 1
    19   14   36 1
    20   15   16 1
    21   15   17 1
    22   15   37 1
    23   16   21 1
    24   17   18 1
    25   17   19 1
    26   17   38 1
    27   18   39 1
    28   19   20 1
    29   19   21 1
    30   19   40 1
    31   20   41 1
    32   21   22 1
    33   21   42 1
    34   22   23 ar
    35   22   31 ar
    36   23   24 ar
    37   23   43 1
    38   24   25 ar
    39   24   47 1
    40   25   26 ar
    41   25   31 ar
    42   26   27 1
    43   26   28 ar
    44   27   44 1
    45   27   45 1
    46   28   29 ar
    47   29   30 ar
    48   29   46 1
    49   30   31 ar
@<TRIPOS>SUBSTRUCTURE
     1 ATP         1 GROUP 0 A     ****
@<TRIPOS>MOLECULE
[[5-(6-amino-7,8-dihydropurin-8-ylium-9-yl)-3,4-dihydroxy-tetrahydrofuran-2-yl]methoxy-hydroxy-phosphoryl] phosphono phosphate
   47    49     1     0     0
SMALL
USER_CHARGES

@<TRIPOS>ATOM
      1 PG          1.2917    0.1930   -8.2286 P.3       1 ATP         1.7526
      2 O1G        -0.1187    0.6259   -8.5004 O.2       1 ATP        -0.8534
      3 O2G         1.8545   -0.9758   -9.1923 O.3       1 ATP        -0.7661
      4 O3G         2.4064    1.3564   -8.3542 O.3       1 ATP        -0.7661
      5 PB          0.8687   -1.6731   -5.9837 P.3       1 ATP         1.6631
      6 O1B        -0.5970   -1.3840   -5.7480 O.co2     1 ATP        -0.8211
      7 O2B         1.3147   -2.9389   -6.6813 O.co2     1 ATP        -0.8211
      8 O3B         1.5397   -0.3942   -6.7428 O.3       1 ATP        -0.7954
      9 PA          1.5741   -2.4609   -3.2285 P.3       1 ATP         1.7782
     10 O1A         1.9282   -3.9055   -3.4313 O.2       1 ATP        -0.8134
     11 O2A         0.0703   -2.2105   -2.6868 O.3       1 ATP        -0.8257
     12 O3A         1.6619   -1.5521   -4.5634 O.3       1 ATP        -0.8063
     13 O5'         2.5233   -1.6622   -2.1894 O.3       1 ATP        -0.5763
     14 C5'         2.2816   -0.2918   -1.9206 C.3       1 ATP         0.1790
     15 C4'         2.7248    0.0226   -0.4980 C.3       1 ATP         0.1339
     16 O4'         2.4697    1.4219   -0.2462 O.3       1 ATP        -0.4040
     17 C3'         1.9404   -0.7419    0.5596 C.3       1 ATP         0.0906
     18 O3'         2.7418   -0.8086    1.7389 O.3       1 ATP        -0.5689
     19 C2'         0.7477    0.1630    0.7858 C.3       1 ATP         0.0660
     20 O2'         0.1373   -0.0577    2.0407 O.3       1 ATP        -0.5800
     21 C1'         1.3733    1.5427    0.6747 C.3       1 ATP         0.4216
     22 N9          0.4520    2.5240    0.1767 N.pl3     1 ATP        -0.5455
     23 C8         -0.5899    2.3466   -0.6224 C.ar      1 ATP         0.2820
     24 N7         -1.2514    3.4689   -0.8989 N.pl3     1 ATP        -0.4970
     25 C5         -0.5826    4.4323   -0.2272 C.ar      1 ATP        -0.2773
     26 C6         -0.7636    5.7789   -0.1086 C.ar      1 ATP         0.7637
     27 N6         -1.8382    6.3927   -0.7843 N.pl3     1 ATP        -0.9374
     28 N1          0.0741    6.5233    0.6461 N.ar      1 ATP        -0.7408
     29 C2          1.0845    5.8486    1.2626 C.ar      1 ATP         0.7215
     30 N3          1.3516    4.5236    1.2116 N.ar      1 ATP        -0.6797
     31 C4          0.4827    3.8546    0.4481 C.ar      1 ATP         0.6429
     32 HOG2        1.8936   -0.8162  -10.1593 H         1 ATP         0.4781
     33 HOG3        2.3383    2.1436   -7.7728 H         1 ATP         0.4781
     34 HOA2       -0.1942   -2.5987   -1.8258 H         1 ATP         0.4931
     35 H5'1        2.8428    0.3150   -2.6387 H         1 ATP         0.0438
     36 H5'2        1.2124   -0.0896   -2.0417 H         1 ATP         0.0438
     37 H4'         3.8049   -0.1388   -0.4009 H         1 ATP         0.1278
     38 H3'         1.6783   -1.7629    0.2715 H         1 ATP         0.1161
     39 HO3'        2.2232   -1.2979    2.3953 H         1 ATP         0.4111
     40 H2'        -0.0011    0.0027    0.0003 H         1 ATP         0.0477
     41 HO2'       -0.6141    0.5574    2.1082 H         1 ATP         0.4259
     42 H1'         1.7826    1.9024    1.6451 H         1 ATP         0.1524
     43 H8         -0.8833    1.3888   -1.0158 H         1 ATP         0.2610
     44 HN61       -2.4225    5.8385   -1.3773 H         1 ATP         0.4534
     45 HN62       -1.9421    7.3862   -0.7348 H         1 ATP         0.4534
     46 H2          1.7546    6.4491    1.8670 H         1 ATP         0.0900
     47 H47        -2.0705    3.5612   -1.4834 H         1 ATP         0.5046
@<TRIPOS>BOND
     1    1    2 2
     2    1    3 1
     3    1    4 1
     4    1    8 1
     5    3   32 1
     6    4   33 1
     7    5    6 2
     8    5    7 1
     9    5    8 1
    10    5   12 1
    11    9   10 2
    12    9   11 1
    13    9   12 1
    14    9   13 1
    15   11   34 1
    16   13   14 1
    17   14   15 1
    18   14   35 1
    19   14   36 1
    20   15   16 1
    21   15   17 1
    22   15   37 1
    23   16   21 1
    24   17   18 1
    25   17   19 1
    26   17   38 1
    27   18   39 1
    28   19   20 1
    29   19   21 1
    30   19   40 1
    31   20   41 1
    32   21   22 1
    33   21   42 1
    34   22   23 ar
    35   22   31 ar
    36   23   24 ar
    37   23   43 1
    38   24   25 ar
    39   24   47 1
    40   25   26 ar
    41   25   31 ar
    42   26   27 1
    43   26   28 ar
    44   27   44 1
    45   27   45 1
    46   28   29 ar
    47   29   30 ar
    48   29   46 1
    49   30   31 ar
@<TRIPOS>SUBSTRUCTURE
     1 ATP         1 GROUP 0 A     ****
@<TRIPOS>MOLECULE
[[5-(6-amino-7,8-dihydropurin-8-ylium-9-yl)-3,4-dihydroxy-tetrahydrofuran-2-yl]methoxy-hydroxy-phosphoryl] phosphono phosphate
   47    49     1     0     0
SMALL
USER_CHARGES

@<TRIPOS>ATOM
      1 PG          6.6626   -1.3974   -2.2789 P.3       1 ATP         1.7526
      2 O1G         7.7162   -0.5516   -2.9308 O.2       1 ATP        -0.8534
      3 O2G         7.0498   -2.9537   -2.0803 O.3       1 ATP        -0.7661
      4 O3G         6.2186   -0.9260   -0.7981 O.3       1 ATP        -0.7661
      5 PB          4.9239   -1.9830   -4.5887 P.3       1 ATP         1.6631
      6 O1B         5.5819   -1.0531   -5.5836 O.co2     1 ATP        -0.8211
      7 O2B         5.1519   -3.4772   -4.6444 O.co2     1 ATP        -0.8211
      8 O3B         5.2598   -1.4593   -3.0803 O.3       1 ATP        -0.7954
      9 PA          2.1463   -2.2799   -3.6368 P.3       1 ATP         1.7782
     10 O1A         1.9958   -3.7731   -3.6708 O.2       1 ATP        -0.8134
     11 O2A         0.8287   -1.4640   -4.1009 O.3       1 ATP        -0.8257
     12 O3A         3.3175   -1.6992   -4.5889 O.3       1 ATP        -0.8063
     13 O5'         2.5233   -1.6622   -2.1894 O.3       1 ATP        -0.5763
     14 C5'         2.2816   -0.2918   -1.9206 C.3       1 ATP         0.1790
     15 C4'         2.7248    0.0226   -0.4980 C.3       1 ATP         0.1339
     16 O4'         2.4697    1.4219   -0.2462 O.3       1 ATP        -0.4040
     17 C3'         1.9404   -0.7419    0.5596 C.3       1 ATP         0.0906
     18 O3'         2.7418   -0.8086    1.7389 O.3       1 ATP        -0.5689
     19 C2'         0.7477    0.1630    0.7858 C.3       1 ATP         0.0660
     20 O2'         0.1373   -0.0577    2.0407 O.3       1 ATP        -0.5800
     21 C1'         1.3733    1.5427    0.6747 C.3       1 ATP         0.4216
     22 N9          0.4520    2.5240    0.1767 N.pl3     1 ATP        -0.5455
     23 C8         -0.8602    2.5861    0.3496 C.ar      1 ATP         0.2820
     24 N7         -1.4308    3.6326   -0.2443 N.pl3     1 ATP        -0.4970
     25 C5         -0.4080    4.2856   -0.8394 C.ar      1 ATP        -0.2773
     26 C6         -0.3432    5.4196   -1.5943 C.ar      1 ATP         0.7637
     27 N6         -1.5276    6.1333   -1.8702 N.pl3     1 ATP        -0.9374
     28 N1          0.8395    5.8603   -2.0764 N.ar      1 ATP        -0.7408
     29 C2          1.9319    5.1095   -1.7617 C.ar      1 ATP         0.7215
     30 N3          1.9773    3.9761   -1.0249 N.ar      1 ATP        -0.6797
     31 C4          0.7724    3.6031   -0.5836 C.ar      1 ATP         0.6429
     32 HOG2        7.2586   -3.4957   -2.8707 H         1 ATP         0.4781
     33 HOG3        6.8949   -0.8919   -0.0883 H         1 ATP         0.4781
     34 HOA2       -0.0059   -1.5871   -3.6006 H         1 ATP         0.4931
     35 H5'1        2.8428    0.3150   -2.6387 H         1 ATP         0.0438
     36 H5'2        1.2124   -0.0896   -2.0417 H         1 ATP         0.0438
     37 H4'         3.8049   -0.1388   -0.4009 H         1 ATP         0.1278
     38 H3'         1.6783   -1.7629    0.2715 H         1 ATP         0.1161
     39 HO3'        2.2232   -1.2979    2.3953 H         1 ATP         0.4111
     40 H2'        -0.0011    0.0027    0.0003 H         1 ATP         0.0477
     41 HO2'       -0.1563   -0.9855    2.0596 H         1 ATP         0.4259
     42 H1'         1.7826    1.9024    1.6451 H         1 ATP         0.1524
     43 H8         -1.4217    1.8638    0.9164 H         1 ATP         0.2610
     44 HN61       -2.4023    5.7711   -1.5477 H         1 ATP         0.4534
     45 HN62       -1.4857    6.9379   -2.4627 H         1 ATP         0.4534
     46 H2          2.8789    5.4660   -2.1503 H         1 ATP         0.0900
     47 H47        -2.4129    3.8706   -0.2402 H         1 ATP         0.5046
@<TRIPOS>BOND
     1    1    2 2
     2    1    3 1
     3    1    4 1
     4    1    8 1
     5    3   32 1
     6    4   33 1
     7    5    6 2
     8    5    7 1
     9    5    8 1
    10    5   12 1
    11    9   10 2
    12    9   11 1
    13    9   12 1
    14    9   13 1
    15   11   34 1
    16   13   14 1
    17   14   15 1
    18   14   35 1
    19   14   36 1
    20   15   16 1
    21   15   17 1
    22   15   37 1
    23   16   21 1
    24   17   18 1
    25   17   19 1
    26   17   38 1
    27   18   39 1
    28   19   20 1
    29   19   21 1
    30   19   40 1
    31   20   41 1
    32   21   22 1
    33   21   42 1
    34   22   23 ar
    35   22   31 ar
    36   23   24 ar
    37   23   43 1
    38   24   25 ar
    39   24   47 1
    40   25   26 ar
    41   25   31 ar
    42   26   27 1
    43   26   28 ar
    44   27   44 1
    45   27   45 1
    46   28   29 ar
    47   29   30 ar
    48   29   46 1
    49   30   31 ar
@<TRIPOS>SUBSTRUCTURE
     1 ATP         1 GROUP 0 A     ****
@<TRIPOS>MOLECULE
[[5-(6-amino-7,8-dihydropurin-8-ylium-9-yl)-3,4-dihydroxy-tetrahydrofuran-2-yl]methoxy-hydroxy-phosphoryl] phosphono phosphate
   47    49     1     0     0
SMALL
USER_CHARGES

@<TRIPOS>ATOM
      1 PG         -1.3979   -1.6287   -6.9881 P.3       1 ATP         1.7526
      2 O1G        -1.4693   -0.9780   -8.3379 O.2       1 ATP        -0.8534
      3 O2G        -2.7094   -1.4459   -6.0618 O.3       1 ATP        -0.7661
      4 O3G        -1.1667   -3.2282   -7.0051 O.3       1 ATP        -0.7661
      5 PB          1.4182   -1.1116   -6.2790 P.3       1 ATP         1.6631
      6 O1B         1.8953   -2.5467   -6.2674 O.co2     1 ATP        -0.8211
      7 O2B         1.7526   -0.1847   -7.4265 O.co2     1 ATP        -0.8211
      8 O3B        -0.1968   -1.0942   -6.0472 O.3       1 ATP        -0.7954
      9 PA          3.3376   -0.0311   -4.3149 P.3       1 ATP         1.7782
     10 O1A         4.1251    0.9098   -5.1800 O.2       1 ATP        -0.8134
     11 O2A         4.0362   -1.4721   -4.0854 O.3       1 ATP        -0.8257
     12 O3A         1.8686   -0.3982   -4.8828 O.3       1 ATP        -0.8063
     13 O5'         3.0190    0.5130   -2.8246 O.3       1 ATP        -0.5763
     14 C5'         2.2816   -0.2918   -1.9206 C.3       1 ATP         0.1790
     15 C4'         2.7248    0.0226   -0.4980 C.3       1 ATP         0.1339
     16 O4'         2.4697    1.4219   -0.2462 O.3       1 ATP        -0.4040
     17 C3'         1.9404   -0.7419    0.5596 C.3       1 ATP         0.0906
     18 O3'         2.7418   -0.8086    1.7389 O.3       1 ATP        -0.5689
     19 C2'         0.7477    0.1630    0.7858 C.3       1 ATP         0.0660
     20 O2'         0.1373   -0.0577    2.0407 O.3       1 ATP        -0.5800
     21 C1'         1.3733    1.5427    0.6747 C.3       1 ATP         0.4216
     22 N9          0.4520    2.5240    0.1767 N.pl3     1 ATP        -0.5455
     23 C8         -0.3477    3.3274    0.8626 C.ar      1 ATP         0.2820
     24 N7         -1.0836    4.1323    0.0983 N.pl3     1 ATP        -0.4970
     25 C5         -0.7273    3.8194   -1.1674 C.ar      1 ATP        -0.2773
     26 C6         -1.1208    4.2877   -2.3863 C.ar      1 ATP         0.7637
     27 N6         -2.0932    5.3066   -2.4528 N.pl3     1 ATP        -0.9374
     28 N1         -0.5892    3.7853   -3.5223 N.ar      1 ATP        -0.7408
     29 C2          0.3427    2.8040   -3.3648 C.ar      1 ATP         0.7215
     30 N3          0.8012    2.2709   -2.2093 N.ar      1 ATP        -0.6797
     31 C4          0.2307    2.8167   -1.1312 C.ar      1 ATP         0.6429
     32 HOG2       -3.5706   -1.7861   -6.3854 H         1 ATP         0.4781
     33 HOG3       -0.3567   -3.5861   -7.4270 H         1 ATP         0.4781
     34 HOA2        4.9191   -1.5086   -3.6596 H         1 ATP         0.4931
     35 H5'1        1.2149   -0.0786   -2.0446 H         1 ATP         0.0438
     36 H5'2        2.4640   -1.3459   -2.1539 H         1 ATP         0.0438
     37 H4'         3.8049   -0.1388   -0.4009 H         1 ATP         0.1278
     38 H3'         1.6783   -1.7629    0.2715 H         1 ATP         0.1161
     39 HO3'        3.5554   -1.2733    1.4914 H         1 ATP         0.4111
     40 H2'        -0.0011    0.0027    0.0003 H         1 ATP         0.0477
     41 HO2'       -0.6141    0.5574    2.1082 H         1 ATP         0.4259
     42 H1'         1.7826    1.9024    1.6451 H         1 ATP         0.1524
     43 H8         -0.4040    3.3373    1.9373 H         1 ATP         0.2610
     44 HN61       -2.5133    5.6366   -1.6073 H         1 ATP         0.4534
     45 HN62       -2.4153    5.6161   -3.3477 H         1 ATP         0.4534
     46 H2          0.7668    2.4032   -4.2782 H         1 ATP         0.0900
     47 H47        -1.7549    4.8194    0.4122 H         1 ATP         0.5046
@<TRIPOS>BOND
     1    1    2 2
     2    1    3 1
     3    1    4 1
     4    1    8 1
     5    3   32 1
     6    4   33 1
     7    5    6 2
     8    5    7 1
     9    5    8 1
    10    5   12 1
    11    9   10 2
    12    9   11 1
    13    9   12 1
    14    9   13 1
    15   11   34 1
    16   13   14 1
    17   14   15 1
    18   14   35 1
    19   14   36 1
    20   15   16 1
    21   15   17 1
    22   15   37 1
    23   16   21 1
    24   17   18 1
    25   17   19 1
    26   17   38 1
    27   18   39 1
    28   19   20 1
    29   19   21 1
    30   19   40 1
    31   20   41 1
    32   21   22 1
    33   21   42 1
    34   22   23 ar
    35   22   31 ar
    36   23   24 ar
    37   23   43 1
    38   24   25 ar
    39   24   47 1
    40   25   26 ar
    41   25   31 ar
    42   26   27 1
    43   26   28 ar
    44   27   44 1
    45   27   45 1
    46   28   29 ar
    47   29   30 ar
    48   29   46 1
    49   30   31 ar
@<TRIPOS>SUBSTRUCTURE
     1 ATP         1 GROUP 0 A     ****
@<TRIPOS>MOLECULE
[[5-(6-amino-7,8-dihydropurin-8-ylium-9-yl)-3,4-dihydroxy-tetrahydrofuran-2-yl]methoxy-hydroxy-phosphoryl] phosphono phosphate
   47    49     1     0     0
SMALL
USER_CHARGES

@<TRIPOS>ATOM
      1 PG          5.6400    0.8059   -6.8611 P.3       1 ATP         1.7526
      2 O1G         6.5473    1.6272   -5.9935 O.2       1 ATP        -0.8534
      3 O2G         4.8454    1.6272   -8.0037 O.3       1 ATP        -0.7661
      4 O3G         6.3626   -0.3832   -7.6833 O.3       1 ATP        -0.7661
      5 PB          4.5401   -1.0774   -4.8751 P.3       1 ATP         1.6631
      6 O1B         5.1420   -2.3458   -5.4376 O.co2     1 ATP        -0.8211
      7 O2B         5.1084   -0.4241   -3.6350 O.co2     1 ATP        -0.8211
      8 O3B         4.4620    0.0376   -6.0638 O.3       1 ATP        -0.7954
      9 PA          2.1463   -2.2799   -3.6368 P.3       1 ATP         1.7782
     10 O1A         2.4483   -3.7410   -3.8024 O.2       1 ATP        -0.8134
     11 O2A         0.5922   -1.8888   -3.8580 O.3       1 ATP        -0.8257
     12 O3A         2.9399   -1.3083   -4.6574 O.3       1 ATP        -0.8063
     13 O5'         2.5233   -1.6622   -2.1894 O.3       1 ATP        -0.5763
     14 C5'         2.2816   -0.2918   -1.9206 C.3       1 ATP         0.1790
     15 C4'         2.7248    0.0226   -0.4980 C.3       1 ATP         0.1339
     16 O4'         2.4697    1.4219   -0.2462 O.3       1 ATP        -0.4040
     17 C3'         1.9404   -0.7419    0.5596 C.3       1 ATP         0.0906
     18 O3'         2.7418   -0.8086    1.7389 O.3       1 ATP        -0.5689
     19 C2'         0.7477    0.1630    0.7858 C.3       1 ATP         0.0660
     20 O2'         0.1373   -0.0577    2.0407 O.3       1 ATP        -0.5800
     21 C1'         1.3733    1.5427    0.6747 C.3       1 ATP         0.4216
     22 N9          0.4520    2.5240    0.1767 N.pl3     1 ATP        -0.5455
     23 C8         -0.5899    2.3466   -0.6224 C.ar      1 ATP         0.2820
     24 N7         -1.2514    3.4689   -0.8989 N.pl3     1 ATP        -0.4970
     25 C5         -0.5826    4.4323   -0.2272 C.ar      1 ATP        -0.2773
     26 C6         -0.7636    5.7789   -0.1086 C.ar      1 ATP         0.7637
     27 N6         -1.8382    6.3927   -0.7843 N.pl3     1 ATP        -0.9374
     28 N1          0.0741    6.5233    0.6461 N.ar      1 ATP        -0.7408
     29 C2          1.0845    5.8486    1.2626 C.ar      1 ATP         0.7215
     30 N3          1.3516    4.5236    1.2116 N.ar      1 ATP        -0.6797
     31 C4          0.4827    3.8546    0.4481 C.ar      1 ATP         0.6429
     32 HOG2        5.3592    2.1140   -8.6827 H         1 ATP         0.4781
     33 HOG3        6.8315   -1.0870   -7.1862 H         1 ATP         0.4781
     34 HOA2       -0.0862   -2.2949   -3.2777 H         1 ATP         0.4931
     35 H5'1        2.8428    0.3150   -2.6387 H         1 ATP         0.0438
     36 H5'2        1.2124   -0.0896   -2.0417 H         1 ATP         0.0438
     37 H4'         3.8049   -0.1388   -0.4009 H         1 ATP         0.1278
     38 H3'         1.6783   -1.7629    0.2715 H         1 ATP         0.1161
     39 HO3'        2.2232   -1.2979    2.3953 H         1 ATP         0.4111
     40 H2'        -0.0011    0.0027    0.0003 H         1 ATP         0.0477
     41 HO2'       -0.6141    0.5574    2.1082 H         1 ATP         0.4259
     42 H1'         1.7826    1.9024    1.6451 H         1 ATP         0.1524
     43 H8         -0.8833    1.3888   -1.0158 H         1 ATP         0.2610
     44 HN61       -2.4225    5.8385   -1.3773 H         1 ATP         0.4534
     45 HN62       -1.9421    7.3862   -0.7348 H         1 ATP         0.4534
     46 H2          1.7546    6.4491    1.8670 H         1 ATP         0.0900
     47 H47        -2.0705    3.5612   -1.4834 H         1 ATP         0.5046
@<TRIPOS>BOND
     1    1    2 2
     2    1    3 1
     3    1    4 1
     4    1    8 1
     5    3   32 1
     6    4   33 1
     7    5    6 2
     8    5    7 1
     9    5    8 1
    10    5   12 1
    11    9   10 2
    12    9   11 1
    13    9   12 1
    14    9   13 1
    15   11   34 1
    16   13   14 1
    17   14   15 1
    18   14   35 1
    19   14   36 1
    20   15   16 1
    21   15   17 1
    22   15   37 1
    23   16   21 1
    24   17   18 1
    25   17   19 1
    26   17   38 1
    27   18   39 1
    28   19   20 1
    29   19   21 1
    30   19   40 1
    31   20   41 1
    32   21   22 1
    33   21   42 1
    34   22   23 ar
    35   22   31 ar
    36   23   24 ar
    37   23   43 1
    38   24   25 ar
    39   24   47 1
    40   25   26 ar
    41   25   31 ar
    42   26   27 1
    43   26   28 ar
    44   27   44 1
    45   27   45 1
    46   28   29 ar
    47   29   30 ar
    48   29   46 1
    49   30   31 ar
@<TRIPOS>SUBSTRUCTURE
     1 ATP         1 GROUP 0 A     ****
@<TRIPOS>MOLECULE
[[5-(6-amino-7,8-dihydropurin-8-ylium-9-yl)-3,4-dihydroxy-tetrahydrofuran-2-yl]methoxy-hydroxy-phosphoryl] phosphono phosphate
   47    49     1     0     0
SMALL
USER_CHARGES

@<TRIPOS>ATOM
      1 PG         -2.0687   -1.5211   -6.2061 P.3       1 ATP         1.7526
      2 O1G        -2.3567   -2.7856   -6.9601 O.2       1 ATP        -0.8534
      3 O2G        -2.0063   -0.1791   -7.1042 O.3       1 ATP        -0.7661
      4 O3G        -3.1329   -1.1517   -5.0472 O.3       1 ATP        -0.7661
      5 PB          0.8687   -1.6731   -5.9837 P.3       1 ATP         1.6631
      6 O1B         1.0443   -3.0762   -6.5204 O.co2     1 ATP        -0.8211
      7 O2B         1.2020   -0.4641   -6.8292 O.co2     1 ATP        -0.8211
      8 O3B        -0.6548   -1.5136   -5.4220 O.3       1 ATP        -0.7954
      9 PA          1.5741   -2.4609   -3.2285 P.3       1 ATP         1.7782
     10 O1A         1.9282   -3.9055   -3.4313 O.2       1 ATP        -0.8134
     11 O2A         0.0703   -2.2105   -2.6868 O.3       1 ATP        -0.8257
     12 O3A         1.6619   -1.5521   -4.5634 O.3       1 ATP        -0.8063
     13 O5'         2.5233   -1.6622   -2.1894 O.3       1 ATP        -0.5763
     14 C5'         2.2816   -0.2918   -1.9206 C.3       1 ATP         0.1790
     15 C4'         2.7248    0.0226   -0.4980 C.3       1 ATP         0.1339
     16 O4'         2.4697    1.4219   -0.2462 O.3       1 ATP        -0.4040
     17 C3'         1.9404   -0.7419    0.5596 C.3       1 ATP         0.0906
     18 O3'         2.7418   -0.8086    1.7389 O.3       1 ATP        -0.5689
     19 C2'         0.7477    0.1630    0.7858 C.3       1 ATP         0.0660
     20 O2'         0.1373   -0.0577    2.0407 O.3       1 ATP        -0.5800
     21 C1'         1.3733    1.5427    0.6747 C.3       1 ATP         0.4216
     22 N9          0.4520    2.5240    0.1767 N.pl3     1 ATP        -0.5455
     23 C8         -0.5899    2.3466   -0.6224 C.ar      1 ATP         0.2820
     24 N7         -1.2514    3.4689   -0.8989 N.pl3     1 ATP        -0.4970
     25 C5         -0.5826    4.4323   -0.2272 C.ar      1 ATP        -0.2773
     26 C6         -0.7636    5.7789   -0.1086 C.ar      1 ATP         0.7637
     27 N6         -1.8382    6.3927   -0.7843 N.pl3     1 ATP        -0.9374
     28 N1          0.0741    6.5233    0.6461 N.ar      1 ATP        -0.7408
     29 C2          1.0845    5.8486    1.2626 C.ar      1 ATP         0.7215
     30 N3          1.3516    4.5236    1.2116 N.ar      1 ATP        -0.6797
     31 C4          0.4827    3.8546    0.4481 C.ar      1 ATP         0.6429
     32 HOG2       -1.3428   -0.1199   -7.8241 H         1 ATP         0.4781
     33 HOG3       -3.2675   -1.7823   -4.3080 H         1 ATP         0.4781
     34 HOA2       -0.1942   -2.5987   -1.8258 H         1 ATP         0.4931
     35 H5'1        2.8428    0.3150   -2.6387 H         1 ATP         0.0438
     36 H5'2        1.2124   -0.0896   -2.0417 H         1 ATP         0.0438
     37 H4'         3.8049   -0.1388   -0.4009 H         1 ATP         0.1278
     38 H3'         1.6783   -1.7629    0.2715 H         1 ATP         0.1161
     39 HO3'        2.2232   -1.2979    2.3953 H         1 ATP         0.4111
     40 H2'        -0.0011    0.0027    0.0003 H         1 ATP         0.0477
     41 HO2'       -0.1563   -0.9855    2.0596 H         1 ATP         0.4259
     42 H1'         1.7826    1.9024    1.6451 H         1 ATP         0.1524
     43 H8         -0.8833    1.3888   -1.0158 H         1 ATP         0.2610
     44 HN61       -2.4225    5.8385   -1.3773 H         1 ATP         0.4534
     45 HN62       -1.9421    7.3862   -0.7348 H         1 ATP         0.4534
     46 H2          1.7546    6.4491    1.8670 H         1 ATP         0.0900
     47 H47        -2.0705    3.5612   -1.4834 H         1 ATP         0.5046
@<TRIPOS>BOND
     1    1    2 2
     2    1    3 1
     3    1    4 1
     4    1    8 1
     5    3   32 1
     6    4   33 1
     7    5    6 2
     8    5    7 1
     9    5    8 1
    10    5   12 1
    11    9   10 2
    12    9   11 1
    13    9   12 1
    14    9   13 1
    15   11   34 1
    16   13   14 1
    17   14   15 1
    18   14   35 1
    19   14   36 1
    20   15   16 1
    21   15   17 1
    22   15   37 1
    23   16   21 1
    24   17   18 1
    25   17   19 1
    26   17   38 1
    27   18   39 1
    28   19   20 1
    29   19   21 1
    30   19   40 1
    31   20   41 1
    32   21   22 1
    33   21   42 1
    34   22   23 ar
    35   22   31 ar
    36   23   24 ar
    37   23   43 1
    38   24   25 ar
    39   24   47 1
    40   25   26 ar
    41   25   31 ar
    42   26   27 1
    43   26   28 ar
    44   27   44 1
    45   27   45 1
    46   28   29 ar
    47   29   30 ar
    48   29   46 1
    49   30   31 ar
@<TRIPOS>SUBSTRUCTURE
     1 ATP         1 GROUP 0 A     ****
@<TRIPOS>MOLECULE
[[5-(6-amino-7,8-dihydropurin-8-ylium-9-yl)-3,4-dihydroxy-tetrahydrofuran-2-yl]methoxy-hydroxy-phosphoryl] phosphono phosphate
   47    49     1     0     0
SMALL
USER_CHARGES

@<TRIPOS>ATOM
      1 PG          0.7529    5.2205   -5.7619 P.3       1 ATP         1.7526
      2 O1G        -0.2795    6.1319   -5.1669 O.2       1 ATP        -0.8534
      3 O2G         0.4449    4.7145   -7.2654 O.3       1 ATP        -0.7661
      4 O3G         2.2412    5.8414   -5.8691 O.3       1 ATP        -0.7661
      5 PB         -0.0502    2.6391   -4.5819 P.3       1 ATP         1.6631
      6 O1B        -1.0927    3.1664   -3.6213 O.co2     1 ATP        -0.8211
      7 O2B        -0.4483    1.9417   -5.8637 O.co2     1 ATP        -0.8211
      8 O3B         0.9868    3.8456   -4.9441 O.3       1 ATP        -0.7954
      9 PA          2.3549    0.9657   -4.2291 P.3       1 ATP         1.7782
     10 O1A         3.2319    1.8157   -5.1020 O.2       1 ATP        -0.8134
     11 O2A         1.8647   -0.4148   -4.9154 O.3       1 ATP        -0.8257
     12 O3A         0.9794    1.6761   -3.7612 O.3       1 ATP        -0.8063
     13 O5'         3.0190    0.5130   -2.8246 O.3       1 ATP        -0.5763
     14 C5'         2.2816   -0.2918   -1.9206 C.3       1 ATP         0.1790
     15 C4'         2.7248    0.0226   -0.4980 C.3       1 ATP         0.1339
     16 O4'         2.4697    1.4219   -0.2462 O.3       1 ATP        -0.4040
     17 C3'         1.9404   -0.7419    0.5596 C.3       1 ATP         0.0906
     18 O3'         2.7418   -0.8086    1.7389 O.3       1 ATP        -0.5689
     19 C2'         0.7477    0.1630    0.7858 C.3       1 ATP         0.0660
     20 O2'         0.1373   -0.0577    2.0407 O.3       1 ATP        -0.5800
     21 C1'         1.3733    1.5427    0.6747 C.3       1 ATP         0.4216
     22 N9          0.4520    2.5240    0.1767 N.pl3     1 ATP        -0.5455
     23 C8         -0.5899    2.3466   -0.6224 C.ar      1 ATP         0.2820
     24 N7         -1.2514    3.4689   -0.8989 N.pl3     1 ATP        -0.4970
     25 C5         -0.5826    4.4323   -0.2272 C.ar      1 ATP        -0.2773
     26 C6         -0.7636    5.7789   -0.1086 C.ar      1 ATP         0.7637
     27 N6         -1.8382    6.3927   -0.7843 N.pl3     1 ATP        -0.9374
     28 N1          0.0741    6.5233    0.6461 N.ar      1 ATP        -0.7408
     29 C2          1.0845    5.8486    1.2626 C.ar      1 ATP         0.7215
     30 N3          1.3516    4.5236    1.2116 N.ar      1 ATP        -0.6797
     31 C4          0.4827    3.8546    0.4481 C.ar      1 ATP         0.6429
     32 HOG2       -0.3739    4.2019   -7.4356 H         1 ATP         0.4781
     33 HOG3        2.6964    6.1271   -5.0486 H         1 ATP         0.4781
     34 HOA2        1.3360   -0.3725   -5.7405 H         1 ATP         0.4931
     35 H5'1        1.2149   -0.0786   -2.0446 H         1 ATP         0.0438
     36 H5'2        2.4640   -1.3459   -2.1539 H         1 ATP         0.0438
     37 H4'         3.8049   -0.1388   -0.4009 H         1 ATP         0.1278
     38 H3'         1.6783   -1.7629    0.2715 H         1 ATP         0.1161
     39 HO3'        3.5554   -1.2733    1.4914 H         1 ATP         0.4111
     40 H2'        -0.0011    0.0027    0.0003 H         1 ATP         0.0477
     41 HO2'       -0.6141    0.5574    2.1082 H         1 ATP         0.4259
     42 H1'         1.7826    1.9024    1.6451 H         1 ATP         0.1524
     43 H8         -0.8833    1.3888   -1.0158 H         1 ATP         0.2610
     44 HN61       -1.9982    7.3720   -0.6591 H         1 ATP         0.4534
     45 HN62       -2.4782    5.8240   -1.3014 H         1 ATP         0.4534
     46 H2          1.7546    6.4491    1.8670 H         1 ATP         0.0900
     47 H47        -2.0705    3.5612   -1.4834 H         1 ATP         0.5046
@<TRIPOS>BOND
     1    1    2 2
     2    1    3 1
     3    1    4 1
     4    1    8 1
     5    3   32 1
     6    4   33 1
     7    5    6 2
     8    5    7 1
     9    5    8 1
    10    5   12 1
    11    9   10 2
    12    9   11 1
    13    9   12 1
    14    9   13 1
    15   11   34 1
    16   13   14 1
    17   14   15 1
    18   14   35 1
    19   14   36 1
    20   15   16 1
    21   15   17 1
    22   15   37 1
    23   16   21 1
    24   17   18 1
    25   17   19 1
    26   17   38 1
    27   18   39 1
    28   19   20 1
    29   19   21 1
    30   19   40 1
    31   20   41 1
    32   21   22 1
    33   21   42 1
    34   22   23 ar
    35   22   31 ar
    36   23   24 ar
    37   23   43 1
    38   24   25 ar
    39   24   47 1
    40   25   26 ar
    41   25   31 ar
    42   26   27 1
    43   26   28 ar
    44   27   44 1
    45   27   45 1
    46   28   29 ar
    47   29   30 ar
    48   29   46 1
    49   30   31 ar
@<TRIPOS>SUBSTRUCTURE
     1 ATP         1 GROUP 0 A     ****
@<TRIPOS>MOLECULE
[[5-(6-amino-7,8-dihydropurin-8-ylium-9-yl)-3,4-dihydroxy-tetrahydrofuran-2-yl]methoxy-hydroxy-phosphoryl] phosphono phosphate
   47    49     1     0     0
SMALL
USER_CHARGES

@<TRIPOS>ATOM
      1 PG          2.5350   -0.7139   -8.9282 P.3       1 ATP         1.7526
      2 O1G         1.2882   -0.3181   -9.6624 O.2       1 ATP        -0.8534
      3 O2G         3.0053   -2.2456   -9.1391 O.3       1 ATP        -0.7661
      4 O3G         3.8549    0.1416   -9.2994 O.3       1 ATP        -0.7661
      5 PB          1.4373   -1.2760   -6.2486 P.3       1 ATP         1.6631
      6 O1B         0.0339   -0.7663   -6.4891 O.co2     1 ATP        -0.8211
      7 O2B         1.7361   -2.7582   -6.2105 O.co2     1 ATP        -0.8211
      8 O3B         2.4430   -0.5679   -7.3207 O.3       1 ATP        -0.7954
      9 PA          3.4935   -0.6459   -4.2276 P.3       1 ATP         1.7782
     10 O1A         4.5884   -0.1042   -5.1002 O.2       1 ATP        -0.8134
     11 O2A         3.6754   -2.1988   -3.8124 O.3       1 ATP        -0.8257
     12 O3A         2.0176   -0.5909   -4.8867 O.3       1 ATP        -0.8063
     13 O5'         3.2874    0.1331   -2.8242 O.3       1 ATP        -0.5763
     14 C5'         2.2816   -0.2918   -1.9206 C.3       1 ATP         0.1790
     15 C4'         2.7248    0.0226   -0.4980 C.3       1 ATP         0.1339
     16 O4'         2.4697    1.4219   -0.2462 O.3       1 ATP        -0.4040
     17 C3'         1.9404   -0.7419    0.5596 C.3       1 ATP         0.0906
     18 O3'         2.7418   -0.8086    1.7389 O.3       1 ATP        -0.5689
     19 C2'         0.7477    0.1630    0.7858 C.3       1 ATP         0.0660
     20 O2'         0.1373   -0.0577    2.0407 O.3       1 ATP        -0.5800
     21 C1'         1.3733    1.5427    0.6747 C.3       1 ATP         0.4216
     22 N9          0.4520    2.5240    0.1767 N.pl3     1 ATP        -0.5455
     23 C8         -0.8602    2.5861    0.3496 C.ar      1 ATP         0.2820
     24 N7         -1.4308    3.6326   -0.2443 N.pl3     1 ATP        -0.4970
     25 C5         -0.4080    4.2856   -0.8394 C.ar      1 ATP        -0.2773
     26 C6         -0.3432    5.4196   -1.5943 C.ar      1 ATP         0.7637
     27 N6         -1.5276    6.1333   -1.8702 N.pl3     1 ATP        -0.9374
     28 N1          0.8395    5.8603   -2.0764 N.ar      1 ATP        -0.7408
     29 C2          1.9319    5.1095   -1.7617 C.ar      1 ATP         0.7215
     30 N3          1.9773    3.9761   -1.0249 N.ar      1 ATP        -0.6797
     31 C4          0.7724    3.6031   -0.5836 C.ar      1 ATP         0.6429
     32 HOG2        2.3981   -2.9693   -8.8753 H         1 ATP         0.4781
     33 HOG3        4.1765    0.1397  -10.2261 H         1 ATP         0.4781
     34 HOA2        3.7145   -2.8773   -4.5196 H         1 ATP         0.4931
     35 H5'1        1.3494    0.2322   -2.1552 H         1 ATP         0.0438
     36 H5'2        2.1260   -1.3686   -2.0435 H         1 ATP         0.0438
     37 H4'         3.8049   -0.1388   -0.4009 H         1 ATP         0.1278
     38 H3'         1.6783   -1.7629    0.2715 H         1 ATP         0.1161
     39 HO3'        3.5554   -1.2733    1.4914 H         1 ATP         0.4111
     40 H2'        -0.0011    0.0027    0.0003 H         1 ATP         0.0477
     41 HO2'        0.8082    0.1199    2.7232 H         1 ATP         0.4259
     42 H1'         1.7826    1.9024    1.6451 H         1 ATP         0.1524
     43 H8         -1.4217    1.8638    0.9164 H         1 ATP         0.2610
     44 HN61       -1.4731    6.9898   -2.3837 H         1 ATP         0.4534
     45 HN62       -2.3893    5.8226   -1.4686 H         1 ATP         0.4534
     46 H2          2.8789    5.4660   -2.1503 H         1 ATP         0.0900
     47 H47        -2.4129    3.8706   -0.2402 H         1 ATP         0.5046
@<TRIPOS>BOND
     1    1    2 2
     2    1    3 1
     3    1    4 1
     4    1    8 1
     5    3   32 1
     6    4   33 1
     7    5    6 2
     8    5    7 1
     9    5    8 1
    10    5   12 1
    11    9   10 2
    12    9   11 1
    13    9   12 1
    14    9   13 1
    15   11   34 1
    16   13   14 1
    17   14   15 1
    18   14   35 1
    19   14   36 1
    20   15   16 1
    21   15   17 1
    22   15   37 1
    23   16   21 1
    24   17   18 1
    25   17   19 1
    26   17   38 1
    27   18   39 1
    28   19   20 1
    29   19   21 1
    30   19   40 1
    31   20   41 1
    32   21   22 1
    33   21   42 1
    34   22   23 ar
    35   22   31 ar
    36   23   24 ar
    37   23   43 1
    38   24   25 ar
    39   24   47 1
    40   25   26 ar
    41   25   31 ar
    42   26   27 1
    43   26   28 ar
    44   27   44 1
    45   27   45 1
    46   28   29 ar
    47   29   30 ar
    48   29   46 1
    49   30   31 ar
@<TRIPOS>SUBSTRUCTURE
     1 ATP         1 GROUP 0 A     ****
@<TRIPOS>MOLECULE
[[5-(6-amino-7,8-dihydropurin-8-ylium-9-yl)-3,4-dihydroxy-tetrahydrofuran-2-yl]methoxy-hydroxy-phosphoryl] phosphono phosphate
   47    49     1     0     0
SMALL
USER_CHARGES

@<TRIPOS>ATOM
      1 PG          2.0428    2.4873   -7.5589 P.3       1 ATP         1.7526
      2 O1G         1.9025    3.8172   -6.8792 O.2       1 ATP        -0.8534
      3 O2G         0.8178    2.0731   -8.5281 O.3       1 ATP        -0.7661
      4 O3G         3.3436    2.3303   -8.5051 O.3       1 ATP        -0.7661
      5 PB          1.1370    0.6774   -5.4131 P.3       1 ATP         1.6631
      6 O1B         1.0476    1.7010   -4.3033 O.co2     1 ATP        -0.8211
      7 O2B        -0.1062    0.1534   -6.0968 O.co2     1 ATP        -0.8211
      8 O3B         2.1669    1.2281   -6.5524 O.3       1 ATP        -0.7954
      9 PA          3.4935   -0.6459   -4.2276 P.3       1 ATP         1.7782
     10 O1A         4.5884   -0.1042   -5.1002 O.2       1 ATP        -0.8134
     11 O2A         3.6754   -2.1988   -3.8124 O.3       1 ATP        -0.8257
     12 O3A         2.0176   -0.5909   -4.8867 O.3       1 ATP        -0.8063
     13 O5'         3.2874    0.1331   -2.8242 O.3       1 ATP        -0.5763
     14 C5'         2.2816   -0.2918   -1.9206 C.3       1 ATP         0.1790
     15 C4'         2.7248    0.0226   -0.4980 C.3       1 ATP         0.1339
     16 O4'         2.4697    1.4219   -0.2462 O.3       1 ATP        -0.4040
     17 C3'         1.9404   -0.7419    0.5596 C.3       1 ATP         0.0906
     18 O3'         2.7418   -0.8086    1.7389 O.3       1 ATP        -0.5689
     19 C2'         0.7477    0.1630    0.7858 C.3       1 ATP         0.0660
     20 O2'         0.1373   -0.0577    2.0407 O.3       1 ATP        -0.5800
     21 C1'         1.3733    1.5427    0.6747 C.3       1 ATP         0.4216
     22 N9          0.4520    2.5240    0.1767 N.pl3     1 ATP        -0.5455
     23 C8         -0.5899    2.3466   -0.6224 C.ar      1 ATP         0.2820
     24 N7         -1.2514    3.4689   -0.8989 N.pl3     1 ATP        -0.4970
     25 C5         -0.5826    4.4323   -0.2272 C.ar      1 ATP        -0.2773
     26 C6         -0.7636    5.7789   -0.1086 C.ar      1 ATP         0.7637
     27 N6         -1.8382    6.3927   -0.7843 N.pl3     1 ATP        -0.9374
     28 N1          0.0741    6.5233    0.6461 N.ar      1 ATP        -0.7408
     29 C2          1.0845    5.8486    1.2626 C.ar      1 ATP         0.7215
     30 N3          1.3516    4.5236    1.2116 N.ar      1 ATP        -0.6797
     31 C4          0.4827    3.8546    0.4481 C.ar      1 ATP         0.6429
     32 HOG2       -0.0825    1.9917   -8.1473 H         1 ATP         0.4781
     33 HOG3        4.2346    2.4305   -8.1073 H         1 ATP         0.4781
     34 HOA2        4.4746   -2.4648   -3.3098 H         1 ATP         0.4931
     35 H5'1        1.3494    0.2322   -2.1552 H         1 ATP         0.0438
     36 H5'2        2.1260   -1.3686   -2.0435 H         1 ATP         0.0438
     37 H4'         3.8049   -0.1388   -0.4009 H         1 ATP         0.1278
     38 H3'         1.6783   -1.7629    0.2715 H         1 ATP         0.1161
     39 HO3'        3.5554   -1.2733    1.4914 H         1 ATP         0.4111
     40 H2'        -0.0011    0.0027    0.0003 H         1 ATP         0.0477
     41 HO2'       -0.1563   -0.9855    2.0596 H         1 ATP         0.4259
     42 H1'         1.7826    1.9024    1.6451 H         1 ATP         0.1524
     43 H8         -0.8833    1.3888   -1.0158 H         1 ATP         0.2610
     44 HN61       -2.4225    5.8385   -1.3773 H         1 ATP         0.4534
     45 HN62       -1.9421    7.3862   -0.7348 H         1 ATP         0.4534
     46 H2          1.7546    6.4491    1.8670 H         1 ATP         0.0900
     47 H47        -2.0705    3.5612   -1.4834 H         1 ATP         0.5046
@<TRIPOS>BOND
     1    1    2 2
     2    1    3 1
     3    1    4 1
     4    1    8 1
     5    3   32 1
     6    4   33 1
     7    5    6 2
     8    5    7 1
     9    5    8 1
    10    5   12 1
    11    9   10 2
    12    9   11 1
    13    9   12 1
    14    9   13 1
    15   11   34 1
    16   13   14 1
    17   14   15 1
    18   14   35 1
    19   14   36 1
    20   15   16 1
    21   15   17 1
    22   15   37 1
    23   16   21 1
    24   17   18 1
    25   17   19 1
    26   17   38 1
    27   18   39 1
    28   19   20 1
    29   19   21 1
    30   19   40 1
    31   20   41 1
    32   21   22 1
    33   21   42 1
    34   22   23 ar
    35   22   31 ar
    36   23   24 ar
    37   23   43 1
    38   24   25 ar
    39   24   47 1
    40   25   26 ar
    41   25   31 ar
    42   26   27 1
    43   26   28 ar
    44   27   44 1
    45   27   45 1
    46   28   29 ar
    47   29   30 ar
    48   29   46 1
    49   30   31 ar
@<TRIPOS>SUBSTRUCTURE
     1 ATP         1 GROUP 0 A     ****
@<TRIPOS>MOLECULE
[[5-(6-amino-7,8-dihydropurin-8-ylium-9-yl)-3,4-dihydroxy-tetrahydrofuran-2-yl]methoxy-hydroxy-phosphoryl] phosphono phosphate
   47    49     1     0     0
SMALL
USER_CHARGES

@<TRIPOS>ATOM
      1 PG          2.7077    0.4979   -7.9279 P.3       1 ATP         1.7526
      2 O1G         3.2676   -0.4099   -8.9828 O.2       1 ATP        -0.8534
      3 O2G         3.7445    1.5820   -7.3268 O.3       1 ATP        -0.7661
      4 O3G         1.4464    1.3965   -8.3901 O.3       1 ATP        -0.7661
      5 PB          2.9225   -1.2308   -5.5475 P.3       1 ATP         1.6631
      6 O1B         3.3249   -2.5062   -6.2539 O.co2     1 ATP        -0.8211
      7 O2B         3.9347   -0.4057   -4.7845 O.co2     1 ATP        -0.8211
      8 O3B         2.1547   -0.2618   -6.6122 O.3       1 ATP        -0.7954
      9 PA          1.5741   -2.4609   -3.2285 P.3       1 ATP         1.7782
     10 O1A         1.9282   -3.9055   -3.4313 O.2       1 ATP        -0.8134
     11 O2A         0.0703   -2.2105   -2.6868 O.3       1 ATP        -0.8257
     12 O3A         1.6619   -1.5521   -4.5634 O.3       1 ATP        -0.8063
     13 O5'         2.5233   -1.6622   -2.1894 O.3       1 ATP        -0.5763
     14 C5'         2.2816   -0.2918   -1.9206 C.3       1 ATP         0.1790
     15 C4'         2.7248    0.0226   -0.4980 C.3       1 ATP         0.1339
     16 O4'         2.4697    1.4219   -0.2462 O.3       1 ATP        -0.4040
     17 C3'         1.9404   -0.7419    0.5596 C.3       1 ATP         0.0906
     18 O3'         2.7418   -0.8086    1.7389 O.3       1 ATP        -0.5689
     19 C2'         0.7477    0.1630    0.7858 C.3       1 ATP         0.0660
     20 O2'         0.1373   -0.0577    2.0407 O.3       1 ATP        -0.5800
     21 C1'         1.3733    1.5427    0.6747 C.3       1 ATP         0.4216
     22 N9          0.4520    2.5240    0.1767 N.pl3     1 ATP        -0.5455
     23 C8         -0.5899    2.3466   -0.6224 C.ar      1 ATP         0.2820
     24 N7         -1.2514    3.4689   -0.8989 N.pl3     1 ATP        -0.4970
     25 C5         -0.5826    4.4323   -0.2272 C.ar      1 ATP        -0.2773
     26 C6         -0.7636    5.7789   -0.1086 C.ar      1 ATP         0.7637
     27 N6         -1.8382    6.3927   -0.7843 N.pl3     1 ATP        -0.9374
     28 N1          0.0741    6.5233    0.6461 N.ar      1 ATP        -0.7408
     29 C2          1.0845    5.8486    1.2626 C.ar      1 ATP         0.7215
     30 N3          1.3516    4.5236    1.2116 N.ar      1 ATP        -0.6797
     31 C4          0.4827    3.8546    0.4481 C.ar      1 ATP         0.6429
     32 HOG2        4.1539    2.2348   -7.9337 H         1 ATP         0.4781
     33 HOG3        0.6315    0.9468   -8.6998 H         1 ATP         0.4781
     34 HOA2       -0.1942   -2.5987   -1.8258 H         1 ATP         0.4931
     35 H5'1        2.8428    0.3150   -2.6387 H         1 ATP         0.0438
     36 H5'2        1.2124   -0.0896   -2.0417 H         1 ATP         0.0438
     37 H4'         3.8049   -0.1388   -0.4009 H         1 ATP         0.1278
     38 H3'         1.6783   -1.7629    0.2715 H         1 ATP         0.1161
     39 HO3'        2.2232   -1.2979    2.3953 H         1 ATP         0.4111
     40 H2'        -0.0011    0.0027    0.0003 H         1 ATP         0.0477
     41 HO2'       -0.6141    0.5574    2.1082 H         1 ATP         0.4259
     42 H1'         1.7826    1.9024    1.6451 H         1 ATP         0.1524
     43 H8         -0.8833    1.3888   -1.0158 H         1 ATP         0.2610
     44 HN61       -2.4225    5.8385   -1.3773 H         1 ATP         0.4534
     45 HN62       -1.9421    7.3862   -0.7348 H         1 ATP         0.4534
     46 H2          1.7546    6.4491    1.8670 H         1 ATP         0.0900
     47 H47        -2.0705    3.5612   -1.4834 H         1 ATP         0.5046
@<TRIPOS>BOND
     1    1    2 2
     2    1    3 1
     3    1    4 1
     4    1    8 1
     5    3   32 1
     6    4   33 1
     7    5    6 2
     8    5    7 1
     9    5    8 1
    10    5   12 1
    11    9   10 2
    12    9   11 1
    13    9   12 1
    14    9   13 1
    15   11   34 1
    16   13   14 1
    17   14   15 1
    18   14   35 1
    19   14   36 1
    20   15   16 1
    21   15   17 1
    22   15   37 1
    23   16   21 1
    24   17   18 1
    25   17   19 1
    26   17   38 1
    27   18   39 1
    28   19   20 1
    29   19   21 1
    30   19   40 1
    31   20   41 1
    32   21   22 1
    33   21   42 1
    34   22   23 ar
    35   22   31 ar
    36   23   24 ar
    37   23   43 1
    38   24   25 ar
    39   24   47 1
    40   25   26 ar
    41   25   31 ar
    42   26   27 1
    43   26   28 ar
    44   27   44 1
    45   27   45 1
    46   28   29 ar
    47   29   30 ar
    48   29   46 1
    49   30   31 ar
@<TRIPOS>SUBSTRUCTURE
     1 ATP         1 GROUP 0 A     ****
@<TRIPOS>MOLECULE
[[5-(6-amino-7,8-dihydropurin-8-ylium-9-yl)-3,4-dihydroxy-tetrahydrofuran-2-yl]methoxy-hydroxy-phosphoryl] phosphono phosphate
   47    49     1     0     0
SMALL
USER_CHARGES

@<TRIPOS>ATOM
      1 PG          1.0339   -4.0496   -7.7233 P.3       1 ATP         1.7526
      2 O1G        -0.4218   -4.3625   -7.9062 O.2       1 ATP        -0.8534
      3 O2G         2.0033   -5.3333   -7.5687 O.3       1 ATP        -0.7661
      4 O3G         1.7134   -3.2044   -8.9215 O.3       1 ATP        -0.7661
      5 PB          0.8687   -1.6731   -5.9837 P.3       1 ATP         1.6631
      6 O1B         1.4500   -0.6673   -6.9521 O.co2     1 ATP        -0.8211
      7 O2B        -0.6172   -1.7242   -5.7059 O.co2     1 ATP        -0.8211
      8 O3B         1.3714   -3.1649   -6.4128 O.3       1 ATP        -0.7954
      9 PA          1.5741   -2.4609   -3.2285 P.3       1 ATP         1.7782
     10 O1A         1.9282   -3.9055   -3.4313 O.2       1 ATP        -0.8134
     11 O2A         0.0703   -2.2105   -2.6868 O.3       1 ATP        -0.8257
     12 O3A         1.6619   -1.5521   -4.5634 O.3       1 ATP        -0.8063
     13 O5'         2.5233   -1.6622   -2.1894 O.3       1 ATP        -0.5763
     14 C5'         2.2816   -0.2918   -1.9206 C.3       1 ATP         0.1790
     15 C4'         2.7248    0.0226   -0.4980 C.3       1 ATP         0.1339
     16 O4'         2.4697    1.4219   -0.2462 O.3       1 ATP        -0.4040
     17 C3'         1.9404   -0.7419    0.5596 C.3       1 ATP         0.0906
     18 O3'         2.7418   -0.8086    1.7389 O.3       1 ATP        -0.5689
     19 C2'         0.7477    0.1630    0.7858 C.3       1 ATP         0.0660
     20 O2'         0.1373   -0.0577    2.0407 O.3       1 ATP        -0.5800
     21 C1'         1.3733    1.5427    0.6747 C.3       1 ATP         0.4216
     22 N9          0.4520    2.5240    0.1767 N.pl3     1 ATP        -0.5455
     23 C8         -0.8252    2.3702   -0.1405 C.ar      1 ATP         0.2820
     24 N7         -1.4086    3.4861   -0.5739 N.pl3     1 ATP        -0.4970
     25 C5         -0.4324    4.4197   -0.5299 C.ar      1 ATP        -0.2773
     26 C6         -0.4006    5.7465   -0.8439 C.ar      1 ATP         0.7637
     27 N6         -1.5714    6.3708   -1.3211 N.pl3     1 ATP        -0.9374
     28 N1          0.7370    6.4615   -0.7020 N.ar      1 ATP        -0.7408
     29 C2          1.8196    5.7785   -0.2355 C.ar      1 ATP         0.7215
     30 N3          1.8948    4.4713    0.1036 N.ar      1 ATP        -0.6797
     31 C4          0.7337    3.8311   -0.0629 C.ar      1 ATP         0.6429
     32 HOG2        2.0454   -5.9871   -8.2986 H         1 ATP         0.4781
     33 HOG3        1.3579   -2.3157   -9.1363 H         1 ATP         0.4781
     34 HOA2       -0.1942   -2.5987   -1.8258 H         1 ATP         0.4931
     35 H5'1        2.8428    0.3150   -2.6387 H         1 ATP         0.0438
     36 H5'2        1.2124   -0.0896   -2.0417 H         1 ATP         0.0438
     37 H4'         3.8049   -0.1388   -0.4009 H         1 ATP         0.1278
     38 H3'         1.6783   -1.7629    0.2715 H         1 ATP         0.1161
     39 HO3'        2.2232   -1.2979    2.3953 H         1 ATP         0.4111
     40 H2'        -0.0011    0.0027    0.0003 H         1 ATP         0.0477
     41 HO2'       -0.6141    0.5574    2.1082 H         1 ATP         0.4259
     42 H1'         1.7826    1.9024    1.6451 H         1 ATP         0.1524
     43 H8         -1.3516    1.4351   -0.0582 H         1 ATP         0.2610
     44 HN61       -2.3936    5.8204   -1.4664 H         1 ATP         0.4534
     45 HN62       -1.5348    7.3319   -1.5955 H         1 ATP         0.4534
     46 H2          2.7305    6.3553   -0.1232 H         1 ATP         0.0900
     47 H47        -2.3700    3.5931   -0.8665 H         1 ATP         0.5046
@<TRIPOS>BOND
     1    1    2 2
     2    1    3 1
     3    1    4 1
     4    1    8 1
     5    3   32 1
     6    4   33 1
     7    5    6 2
     8    5    7 1
     9    5    8 1
    10    5   12 1
    11    9   10 2
    12    9   11 1
    13    9   12 1
    14    9   13 1
    15   11   34 1
    16   13   14 1
    17   14   15 1
    18   14   35 1
    19   14   36 1
    20   15   16 1
    21   15   17 1
    22   15   37 1
    23   16   21 1
    24   17   18 1
    25   17   19 1
    26   17   38 1
    27   18   39 1
    28   19   20 1
    29   19   21 1
    30   19   40 1
    31   20   41 1
    32   21   22 1
    33   21   42 1
    34   22   23 ar
    35   22   31 ar
    36   23   24 ar
    37   23   43 1
    38   24   25 ar
    39   24   47 1
    40   25   26 ar
    41   25   31 ar
    42   26   27 1
    43   26   28 ar
    44   27   44 1
    45   27   45 1
    46   28   29 ar
    47   29   30 ar
    48   29   46 1
    49   30   31 ar
@<TRIPOS>SUBSTRUCTURE
     1 ATP         1 GROUP 0 A     ****
@<TRIPOS>MOLECULE
[[5-(6-amino-7,8-dihydropurin-8-ylium-9-yl)-3,4-dihydroxy-tetrahydrofuran-2-yl]methoxy-hydroxy-phosphoryl] phosphono phosphate
   47    49     1     0     0
SMALL
USER_CHARGES

@<TRIPOS>ATOM
      1 PG          7.1961    0.7747   -5.8849 P.3       1 ATP         1.7526
      2 O1G         6.7379    1.5567   -7.0803 O.2       1 ATP        -0.8534
      3 O2G         8.2127   -0.4409   -6.2017 O.3       1 ATP        -0.7661
      4 O3G         7.9720    1.6324   -4.7561 O.3       1 ATP        -0.7661
      5 PB          4.9097   -1.0521   -5.5162 P.3       1 ATP         1.6631
      6 O1B         3.9780   -0.4241   -6.5285 O.co2     1 ATP        -0.8211
      7 O2B         5.6312   -2.3476   -5.8142 O.co2     1 ATP        -0.8211
      8 O3B         6.0075    0.0622   -5.0522 O.3       1 ATP        -0.7954
      9 PA          2.8565   -2.1425   -3.6983 P.3       1 ATP         1.7782
     10 O1A         3.0938   -3.6162   -3.8583 O.2       1 ATP        -0.8134
     11 O2A         1.6409   -1.5597   -4.5927 O.3       1 ATP        -0.8257
     12 O3A         4.1154   -1.2102   -4.1001 O.3       1 ATP        -0.8063
     13 O5'         2.5233   -1.6622   -2.1894 O.3       1 ATP        -0.5763
     14 C5'         2.2816   -0.2918   -1.9206 C.3       1 ATP         0.1790
     15 C4'         2.7248    0.0226   -0.4980 C.3       1 ATP         0.1339
     16 O4'         2.4697    1.4219   -0.2462 O.3       1 ATP        -0.4040
     17 C3'         1.9404   -0.7419    0.5596 C.3       1 ATP         0.0906
     18 O3'         2.7418   -0.8086    1.7389 O.3       1 ATP        -0.5689
     19 C2'         0.7477    0.1630    0.7858 C.3       1 ATP         0.0660
     20 O2'         0.1373   -0.0577    2.0407 O.3       1 ATP        -0.5800
     21 C1'         1.3733    1.5427    0.6747 C.3       1 ATP         0.4216
     22 N9          0.4520    2.5240    0.1767 N.pl3     1 ATP        -0.5455
     23 C8         -0.3477    3.3274    0.8626 C.ar      1 ATP         0.2820
     24 N7         -1.0836    4.1323    0.0983 N.pl3     1 ATP        -0.4970
     25 C5         -0.7273    3.8194   -1.1674 C.ar      1 ATP        -0.2773
     26 C6         -1.1208    4.2877   -2.3863 C.ar      1 ATP         0.7637
     27 N6         -2.0932    5.3066   -2.4528 N.pl3     1 ATP        -0.9374
     28 N1         -0.5892    3.7853   -3.5223 N.ar      1 ATP        -0.7408
     29 C2          0.3427    2.8040   -3.3648 C.ar      1 ATP         0.7215
     30 N3          0.8012    2.2709   -2.2093 N.ar      1 ATP        -0.6797
     31 C4          0.2307    2.8167   -1.1312 C.ar      1 ATP         0.6429
     32 HOG2        7.9173   -1.1650   -6.7937 H         1 ATP         0.4781
     33 HOG3        8.7990    2.1001   -5.0004 H         1 ATP         0.4781
     34 HOA2        0.7381   -1.9183   -4.4569 H         1 ATP         0.4931
     35 H5'1        2.8428    0.3150   -2.6387 H         1 ATP         0.0438
     36 H5'2        1.2124   -0.0896   -2.0417 H         1 ATP         0.0438
     37 H4'         3.8049   -0.1388   -0.4009 H         1 ATP         0.1278
     38 H3'         1.6783   -1.7629    0.2715 H         1 ATP         0.1161
     39 HO3'        2.2232   -1.2979    2.3953 H         1 ATP         0.4111
     40 H2'        -0.0011    0.0027    0.0003 H         1 ATP         0.0477
     41 HO2'       -0.6141    0.5574    2.1082 H         1 ATP         0.4259
     42 H1'         1.7826    1.9024    1.6451 H         1 ATP         0.1524
     43 H8         -0.4040    3.3373    1.9373 H         1 ATP         0.2610
     44 HN61       -2.5133    5.6366   -1.6073 H         1 ATP         0.4534
     45 HN62       -2.4153    5.6161   -3.3477 H         1 ATP         0.4534
     46 H2          0.7668    2.4032   -4.2782 H         1 ATP         0.0900
     47 H47        -1.7549    4.8194    0.4122 H         1 ATP         0.5046
@<TRIPOS>BOND
     1    1    2 2
     2    1    3 1
     3    1    4 1
     4    1    8 1
     5    3   32 1
     6    4   33 1
     7    5    6 2
     8    5    7 1
     9    5    8 1
    10    5   12 1
    11    9   10 2
    12    9   11 1
    13    9   12 1
    14    9   13 1
    15   11   34 1
    16   13   14 1
    17   14   15 1
    18   14   35 1
    19   14   36 1
    20   15   16 1
    21   15   17 1
    22   15   37 1
    23   16   21 1
    24   17   18 1
    25   17   19 1
    26   17   38 1
    27   18   39 1
    28   19   20 1
    29   19   21 1
    30   19   40 1
    31   20   41 1
    32   21   22 1
    33   21   42 1
    34   22   23 ar
    35   22   31 ar
    36   23   24 ar
    37   23   43 1
    38   24   25 ar
    39   24   47 1
    40   25   26 ar
    41   25   31 ar
    42   26   27 1
    43   26   28 ar
    44   27   44 1
    45   27   45 1
    46   28   29 ar
    47   29   30 ar
    48   29   46 1
    49   30   31 ar
@<TRIPOS>SUBSTRUCTURE
     1 ATP         1 GROUP 0 A     ****
@<TRIPOS>MOLECULE
[[5-(6-amino-7,8-dihydropurin-8-ylium-9-yl)-3,4-dihydroxy-tetrahydrofuran-2-yl]methoxy-hydroxy-phosphoryl] phosphono phosphate
   47    49     1     0     0
SMALL
USER_CHARGES

@<TRIPOS>ATOM
      1 PG          3.6005   -0.1680   -8.0072 P.3       1 ATP         1.7526
      2 O1G         3.9925   -1.2781   -8.9370 O.2       1 ATP        -0.8534
      3 O2G         4.5090    1.1653   -8.1000 O.3       1 ATP        -0.7661
      4 O3G         2.0940    0.3869   -8.1925 O.3       1 ATP        -0.7661
      5 PB          4.9097   -1.0521   -5.5162 P.3       1 ATP         1.6631
      6 O1B         5.3434   -2.4228   -5.9858 O.co2     1 ATP        -0.8211
      7 O2B         5.9018    0.0827   -5.3910 O.co2     1 ATP        -0.8211
      8 O3B         3.6594   -0.5534   -6.4382 O.3       1 ATP        -0.7954
      9 PA          2.8565   -2.1425   -3.6983 P.3       1 ATP         1.7782
     10 O1A         3.0938   -3.6162   -3.8583 O.2       1 ATP        -0.8134
     11 O2A         1.6409   -1.5597   -4.5927 O.3       1 ATP        -0.8257
     12 O3A         4.1154   -1.2102   -4.1001 O.3       1 ATP        -0.8063
     13 O5'         2.5233   -1.6622   -2.1894 O.3       1 ATP        -0.5763
     14 C5'         2.2816   -0.2918   -1.9206 C.3       1 ATP         0.1790
     15 C4'         2.7248    0.0226   -0.4980 C.3       1 ATP         0.1339
     16 O4'         2.4697    1.4219   -0.2462 O.3       1 ATP        -0.4040
     17 C3'         1.9404   -0.7419    0.5596 C.3       1 ATP         0.0906
     18 O3'         2.7418   -0.8086    1.7389 O.3       1 ATP        -0.5689
     19 C2'         0.7477    0.1630    0.7858 C.3       1 ATP         0.0660
     20 O2'         0.1373   -0.0577    2.0407 O.3       1 ATP        -0.5800
     21 C1'         1.3733    1.5427    0.6747 C.3       1 ATP         0.4216
     22 N9          0.4520    2.5240    0.1767 N.pl3     1 ATP        -0.5455
     23 C8         -0.3477    3.3274    0.8626 C.ar      1 ATP         0.2820
     24 N7         -1.0836    4.1323    0.0983 N.pl3     1 ATP        -0.4970
     25 C5         -0.7273    3.8194   -1.1674 C.ar      1 ATP        -0.2773
     26 C6         -1.1208    4.2877   -2.3863 C.ar      1 ATP         0.7637
     27 N6         -2.0932    5.3066   -2.4528 N.pl3     1 ATP        -0.9374
     28 N1         -0.5892    3.7853   -3.5223 N.ar      1 ATP        -0.7408
     29 C2          0.3427    2.8040   -3.3648 C.ar      1 ATP         0.7215
     30 N3          0.8012    2.2709   -2.2093 N.ar      1 ATP        -0.6797
     31 C4          0.2307    2.8167   -1.1312 C.ar      1 ATP         0.6429
     32 HOG2        5.4697    1.0992   -7.9138 H         1 ATP         0.4781
     33 HOG3        1.8316    0.7678   -9.0576 H         1 ATP         0.4781
     34 HOA2        1.6872   -1.6448   -5.5687 H         1 ATP         0.4931
     35 H5'1        2.8428    0.3150   -2.6387 H         1 ATP         0.0438
     36 H5'2        1.2124   -0.0896   -2.0417 H         1 ATP         0.0438
     37 H4'         3.8049   -0.1388   -0.4009 H         1 ATP         0.1278
     38 H3'         1.6783   -1.7629    0.2715 H         1 ATP         0.1161
     39 HO3'        2.2232   -1.2979    2.3953 H         1 ATP         0.4111
     40 H2'        -0.0011    0.0027    0.0003 H         1 ATP         0.0477
     41 HO2'       -0.6141    0.5574    2.1082 H         1 ATP         0.4259
     42 H1'         1.7826    1.9024    1.6451 H         1 ATP         0.1524
     43 H8         -0.4040    3.3373    1.9373 H         1 ATP         0.2610
     44 HN61       -2.5133    5.6366   -1.6073 H         1 ATP         0.4534
     45 HN62       -2.4153    5.6161   -3.3477 H         1 ATP         0.4534
     46 H2          0.7668    2.4032   -4.2782 H         1 ATP         0.0900
     47 H47        -1.7549    4.8194    0.4122 H         1 ATP         0.5046
@<TRIPOS>BOND
     1    1    2 2
     2    1    3 1
     3    1    4 1
     4    1    8 1
     5    3   32 1
     6    4   33 1
     7    5    6 2
     8    5    7 1
     9    5    8 1
    10    5   12 1
    11    9   10 2
    12    9   11 1
    13    9   12 1
    14    9   13 1
    15   11   34 1
    16   13   14 1
    17   14   15 1
    18   14   35 1
    19   14   36 1
    20   15   16 1
    21   15   17 1
    22   15   37 1
    23   16   21 1
    24   17   18 1
    25   17   19 1
    26   17   38 1
    27   18   39 1
    28   19   20 1
    29   19   21 1
    30   19   40 1
    31   20   41 1
    32   21   22 1
    33   21   42 1
    34   22   23 ar
    35   22   31 ar
    36   23   24 ar
    37   23   43 1
    38   24   25 ar
    39   24   47 1
    40   25   26 ar
    41   25   31 ar
    42   26   27 1
    43   26   28 ar
    44   27   44 1
    45   27   45 1
    46   28   29 ar
    47   29   30 ar
    48   29   46 1
    49   30   31 ar
@<TRIPOS>SUBSTRUCTURE
     1 ATP         1 GROUP 0 A     ****
@<TRIPOS>MOLECULE
[[5-(6-amino-7,8-dihydropurin-8-ylium-9-yl)-3,4-dihydroxy-tetrahydrofuran-2-yl]methoxy-hydroxy-phosphoryl] phosphono phosphate
   47    49     1     0     0
SMALL
USER_CHARGES

@<TRIPOS>ATOM
      1 PG          7.1961    0.7747   -5.8849 P.3       1 ATP         1.7526
      2 O1G         6.7379    1.5567   -7.0803 O.2       1 ATP        -0.8534
      3 O2G         8.2127   -0.4409   -6.2017 O.3       1 ATP        -0.7661
      4 O3G         7.9720    1.6324   -4.7561 O.3       1 ATP        -0.7661
      5 PB          4.9097   -1.0521   -5.5162 P.3       1 ATP         1.6631
      6 O1B         3.9780   -0.4241   -6.5285 O.co2     1 ATP        -0.8211
      7 O2B         5.6312   -2.3476   -5.8142 O.co2     1 ATP        -0.8211
      8 O3B         6.0075    0.0622   -5.0522 O.3       1 ATP        -0.7954
      9 PA          2.8565   -2.1425   -3.6983 P.3       1 ATP         1.7782
     10 O1A         3.0938   -3.6162   -3.8583 O.2       1 ATP        -0.8134
     11 O2A         1.6409   -1.5597   -4.5927 O.3       1 ATP        -0.8257
     12 O3A         4.1154   -1.2102   -4.1001 O.3       1 ATP        -0.8063
     13 O5'         2.5233   -1.6622   -2.1894 O.3       1 ATP        -0.5763
     14 C5'         2.2816   -0.2918   -1.9206 C.3       1 ATP         0.1790
     15 C4'         2.7248    0.0226   -0.4980 C.3       1 ATP         0.1339
     16 O4'         2.4697    1.4219   -0.2462 O.3       1 ATP        -0.4040
     17 C3'         1.9404   -0.7419    0.5596 C.3       1 ATP         0.0906
     18 O3'         2.7418   -0.8086    1.7389 O.3       1 ATP        -0.5689
     19 C2'         0.7477    0.1630    0.7858 C.3       1 ATP         0.0660
     20 O2'         0.1373   -0.0577    2.0407 O.3       1 ATP        -0.5800
     21 C1'         1.3733    1.5427    0.6747 C.3       1 ATP         0.4216
     22 N9          0.4520    2.5240    0.1767 N.pl3     1 ATP        -0.5455
     23 C8         -0.5899    2.3466   -0.6224 C.ar      1 ATP         0.2820
     24 N7         -1.2514    3.4689   -0.8989 N.pl3     1 ATP        -0.4970
     25 C5         -0.5826    4.4323   -0.2272 C.ar      1 ATP        -0.2773
     26 C6         -0.7636    5.7789   -0.1086 C.ar      1 ATP         0.7637
     27 N6         -1.8382    6.3927   -0.7843 N.pl3     1 ATP        -0.9374
     28 N1          0.0741    6.5233    0.6461 N.ar      1 ATP        -0.7408
     29 C2          1.0845    5.8486    1.2626 C.ar      1 ATP         0.7215
     30 N3          1.3516    4.5236    1.2116 N.ar      1 ATP        -0.6797
     31 C4          0.4827    3.8546    0.4481 C.ar      1 ATP         0.6429
     32 HOG2        9.0713   -0.2419   -6.6323 H         1 ATP         0.4781
     33 HOG3        7.5051    2.3782   -4.3224 H         1 ATP         0.4781
     34 HOA2        0.7381   -1.9183   -4.4569 H         1 ATP         0.4931
     35 H5'1        2.8428    0.3150   -2.6387 H         1 ATP         0.0438
     36 H5'2        1.2124   -0.0896   -2.0417 H         1 ATP         0.0438
     37 H4'         3.8049   -0.1388   -0.4009 H         1 ATP         0.1278
     38 H3'         1.6783   -1.7629    0.2715 H         1 ATP         0.1161
     39 HO3'        2.2232   -1.2979    2.3953 H         1 ATP         0.4111
     40 H2'        -0.0011    0.0027    0.0003 H         1 ATP         0.0477
     41 HO2'       -0.1563   -0.9855    2.0596 H         1 ATP         0.4259
     42 H1'         1.7826    1.9024    1.6451 H         1 ATP         0.1524
     43 H8         -0.8833    1.3888   -1.0158 H         1 ATP         0.2610
     44 HN61       -2.4225    5.8385   -1.3773 H         1 ATP         0.4534
     45 HN62       -1.9421    7.3862   -0.7348 H         1 ATP         0.4534
     46 H2          1.7546    6.4491    1.8670 H         1 ATP         0.0900
     47 H47        -2.0705    3.5612   -1.4834 H         1 ATP         0.5046
@<TRIPOS>BOND
     1    1    2 2
     2    1    3 1
     3    1    4 1
     4    1    8 1
     5    3   32 1
     6    4   33 1
     7    5    6 2
     8    5    7 1
     9    5    8 1
    10    5   12 1
    11    9   10 2
    12    9   11 1
    13    9   12 1
    14    9   13 1
    15   11   34 1
    16   13   14 1
    17   14   15 1
    18   14   35 1
    19   14   36 1
    20   15   16 1
    21   15   17 1
    22   15   37 1
    23   16   21 1
    24   17   18 1
    25   17   19 1
    26   17   38 1
    27   18   39 1
    28   19   20 1
    29   19   21 1
    30   19   40 1
    31   20   41 1
    32   21   22 1
    33   21   42 1
    34   22   23 ar
    35   22   31 ar
    36   23   24 ar
    37   23   43 1
    38   24   25 ar
    39   24   47 1
    40   25   26 ar
    41   25   31 ar
    42   26   27 1
    43   26   28 ar
    44   27   44 1
    45   27   45 1
    46   28   29 ar
    47   29   30 ar
    48   29   46 1
    49   30   31 ar
@<TRIPOS>SUBSTRUCTURE
     1 ATP         1 GROUP 0 A     ****
@<TRIPOS>MOLECULE
[[5-(6-amino-7,8-dihydropurin-8-ylium-9-yl)-3,4-dihydroxy-tetrahydrofuran-2-yl]methoxy-hydroxy-phosphoryl] phosphono phosphate
   47    49     1     0     0
SMALL
USER_CHARGES

@<TRIPOS>ATOM
      1 PG          6.2852   -3.2946   -6.8504 P.3       1 ATP         1.7526
      2 O1G         7.6521   -2.7075   -7.0437 O.2       1 ATP        -0.8534
      3 O2G         5.3128   -3.2226   -8.1391 O.3       1 ATP        -0.7661
      4 O3G         6.2578   -4.8582   -6.4426 O.3       1 ATP        -0.7661
      5 PB          4.9097   -1.0521   -5.5162 P.3       1 ATP         1.6631
      6 O1B         6.1177   -0.1681   -5.2997 O.co2     1 ATP        -0.8211
      7 O2B         3.9039   -0.7505   -6.6048 O.co2     1 ATP        -0.8211
      8 O3B         5.4127   -2.5953   -5.6827 O.3       1 ATP        -0.7954
      9 PA          2.8565   -2.1425   -3.6983 P.3       1 ATP         1.7782
     10 O1A         3.0938   -3.6162   -3.8583 O.2       1 ATP        -0.8134
     11 O2A         1.6409   -1.5597   -4.5927 O.3       1 ATP        -0.8257
     12 O3A         4.1154   -1.2102   -4.1001 O.3       1 ATP        -0.8063
     13 O5'         2.5233   -1.6622   -2.1894 O.3       1 ATP        -0.5763
     14 C5'         2.2816   -0.2918   -1.9206 C.3       1 ATP         0.1790
     15 C4'         2.7248    0.0226   -0.4980 C.3       1 ATP         0.1339
     16 O4'         2.4697    1.4219   -0.2462 O.3       1 ATP        -0.4040
     17 C3'         1.9404   -0.7419    0.5596 C.3       1 ATP         0.0906
     18 O3'         2.7418   -0.8086    1.7389 O.3       1 ATP        -0.5689
     19 C2'         0.7477    0.1630    0.7858 C.3       1 ATP         0.0660
     20 O2'         0.1373   -0.0577    2.0407 O.3       1 ATP        -0.5800
     21 C1'         1.3733    1.5427    0.6747 C.3       1 ATP         0.4216
     22 N9          0.4520    2.5240    0.1767 N.pl3     1 ATP        -0.5455
     23 C8         -0.5899    2.3466   -0.6224 C.ar      1 ATP         0.2820
     24 N7         -1.2514    3.4689   -0.8989 N.pl3     1 ATP        -0.4970
     25 C5         -0.5826    4.4323   -0.2272 C.ar      1 ATP        -0.2773
     26 C6         -0.7636    5.7789   -0.1086 C.ar      1 ATP         0.7637
     27 N6         -1.8382    6.3927   -0.7843 N.pl3     1 ATP        -0.9374
     28 N1          0.0741    6.5233    0.6461 N.ar      1 ATP        -0.7408
     29 C2          1.0845    5.8486    1.2626 C.ar      1 ATP         0.7215
     30 N3          1.3516    4.5236    1.2116 N.ar      1 ATP        -0.6797
     31 C4          0.4827    3.8546    0.4481 C.ar      1 ATP         0.6429
     32 HOG2        5.0855   -2.3452   -8.5140 H         1 ATP         0.4781
     33 HOG3        6.7001   -5.1402   -5.6137 H         1 ATP         0.4781
     34 HOA2        1.6872   -1.6448   -5.5687 H         1 ATP         0.4931
     35 H5'1        2.8428    0.3150   -2.6387 H         1 ATP         0.0438
     36 H5'2        1.2124   -0.0896   -2.0417 H         1 ATP         0.0438
     37 H4'         3.8049   -0.1388   -0.4009 H         1 ATP         0.1278
     38 H3'         1.6783   -1.7629    0.2715 H         1 ATP         0.1161
     39 HO3'        2.2232   -1.2979    2.3953 H         1 ATP         0.4111
     40 H2'        -0.0011    0.0027    0.0003 H         1 ATP         0.0477
     41 HO2'       -0.6141    0.5574    2.1082 H         1 ATP         0.4259
     42 H1'         1.7826    1.9024    1.6451 H         1 ATP         0.1524
     43 H8         -0.8833    1.3888   -1.0158 H         1 ATP         0.2610
     44 HN61       -2.4225    5.8385   -1.3773 H         1 ATP         0.4534
     45 HN62       -1.9421    7.3862   -0.7348 H         1 ATP         0.4534
     46 H2          1.7546    6.4491    1.8670 H         1 ATP         0.0900
     47 H47        -2.0705    3.5612   -1.4834 H         1 ATP         0.5046
@<TRIPOS>BOND
     1    1    2 2
     2    1    3 1
     3    1    4 1
     4    1    8 1
     5    3   32 1
     6    4   33 1
     7    5    6 2
     8    5    7 1
     9    5    8 1
    10    5   12 1
    11    9   10 2
    12    9   11 1
    13    9   12 1
    14    9   13 1
    15   11   34 1
    16   13   14 1
    17   14   15 1
    18   14   35 1
    19   14   36 1
    20   15   16 1
    21   15   17 1
    22   15   37 1
    23   16   21 1
    24   17   18 1
    25   17   19 1
    26   17   38 1
    27   18   39 1
    28   19   20 1
    29   19   21 1
    30   19   40 1
    31   20   41 1
    32   21   22 1
    33   21   42 1
    34   22   23 ar
    35   22   31 ar
    36   23   24 ar
    37   23   43 1
    38   24   25 ar
    39   24   47 1
    40   25   26 ar
    41   25   31 ar
    42   26   27 1
    43   26   28 ar
    44   27   44 1
    45   27   45 1
    46   28   29 ar
    47   29   30 ar
    48   29   46 1
    49   30   31 ar
@<TRIPOS>SUBSTRUCTURE
     1 ATP         1 GROUP 0 A     ****
@<TRIPOS>MOLECULE
[[5-(6-amino-7,8-dihydropurin-8-ylium-9-yl)-3,4-dihydroxy-tetrahydrofuran-2-yl]methoxy-hydroxy-phosphoryl] phosphono phosphate
   47    49     1     0     0
SMALL
USER_CHARGES

@<TRIPOS>ATOM
      1 PG         -1.3979   -1.6287   -6.9881 P.3       1 ATP         1.7526
      2 O1G        -1.4693   -0.9780   -8.3379 O.2       1 ATP        -0.8534
      3 O2G        -2.7094   -1.4459   -6.0618 O.3       1 ATP        -0.7661
      4 O3G        -1.1667   -3.2282   -7.0051 O.3       1 ATP        -0.7661
      5 PB          1.4182   -1.1116   -6.2790 P.3       1 ATP         1.6631
      6 O1B         1.8953   -2.5467   -6.2674 O.co2     1 ATP        -0.8211
      7 O2B         1.7526   -0.1847   -7.4265 O.co2     1 ATP        -0.8211
      8 O3B        -0.1968   -1.0942   -6.0472 O.3       1 ATP        -0.7954
      9 PA          3.3376   -0.0311   -4.3149 P.3       1 ATP         1.7782
     10 O1A         4.1251    0.9098   -5.1800 O.2       1 ATP        -0.8134
     11 O2A         4.0362   -1.4721   -4.0854 O.3       1 ATP        -0.8257
     12 O3A         1.8686   -0.3982   -4.8828 O.3       1 ATP        -0.8063
     13 O5'         3.0190    0.5130   -2.8246 O.3       1 ATP        -0.5763
     14 C5'         2.2816   -0.2918   -1.9206 C.3       1 ATP         0.1790
     15 C4'         2.7248    0.0226   -0.4980 C.3       1 ATP         0.1339
     16 O4'         2.4697    1.4219   -0.2462 O.3       1 ATP        -0.4040
     17 C3'         1.9404   -0.7419    0.5596 C.3       1 ATP         0.0906
     18 O3'         2.7418   -0.8086    1.7389 O.3       1 ATP        -0.5689
     19 C2'         0.7477    0.1630    0.7858 C.3       1 ATP         0.0660
     20 O2'         0.1373   -0.0577    2.0407 O.3       1 ATP        -0.5800
     21 C1'         1.3733    1.5427    0.6747 C.3       1 ATP         0.4216
     22 N9          0.4520    2.5240    0.1767 N.pl3     1 ATP        -0.5455
     23 C8         -0.8252    2.3702   -0.1405 C.ar      1 ATP         0.2820
     24 N7         -1.4086    3.4861   -0.5739 N.pl3     1 ATP        -0.4970
     25 C5         -0.4324    4.4197   -0.5299 C.ar      1 ATP        -0.2773
     26 C6         -0.4006    5.7465   -0.8439 C.ar      1 ATP         0.7637
     27 N6         -1.5714    6.3708   -1.3211 N.pl3     1 ATP        -0.9374
     28 N1          0.7370    6.4615   -0.7020 N.ar      1 ATP        -0.7408
     29 C2          1.8196    5.7785   -0.2355 C.ar      1 ATP         0.7215
     30 N3          1.8948    4.4713    0.1036 N.ar      1 ATP        -0.6797
     31 C4          0.7337    3.8311   -0.0629 C.ar      1 ATP         0.6429
     32 HOG2       -3.5706   -1.7861   -6.3854 H         1 ATP         0.4781
     33 HOG3       -0.3567   -3.5861   -7.4270 H         1 ATP         0.4781
     34 HOA2        4.2259   -2.0366   -4.8648 H         1 ATP         0.4931
     35 H5'1        1.2149   -0.0786   -2.0446 H         1 ATP         0.0438
     36 H5'2        2.4640   -1.3459   -2.1539 H         1 ATP         0.0438
     37 H4'         3.8049   -0.1388   -0.4009 H         1 ATP         0.1278
     38 H3'         1.6783   -1.7629    0.2715 H         1 ATP         0.1161
     39 HO3'        3.5554   -1.2733    1.4914 H         1 ATP         0.4111
     40 H2'        -0.0011    0.0027    0.0003 H         1 ATP         0.0477
     41 HO2'       -0.6141    0.5574    2.1082 H         1 ATP         0.4259
     42 H1'         1.7826    1.9024    1.6451 H         1 ATP         0.1524
     43 H8         -1.3516    1.4351   -0.0582 H         1 ATP         0.2610
     44 HN61       -2.3936    5.8204   -1.4664 H         1 ATP         0.4534
     45 HN62       -1.5348    7.3319   -1.5955 H         1 ATP         0.4534
     46 H2          2.7305    6.3553   -0.1232 H         1 ATP         0.0900
     47 H47        -2.3700    3.5931   -0.8665 H         1 ATP         0.5046
@<TRIPOS>BOND
     1    1    2 2
     2    1    3 1
     3    1    4 1
     4    1    8 1
     5    3   32 1
     6    4   33 1
     7    5    6 2
     8    5    7 1
     9    5    8 1
    10    5   12 1
    11    9   10 2
    12    9   11 1
    13    9   12 1
    14    9   13 1
    15   11   34 1
    16   13   14 1
    17   14   15 1
    18   14   35 1
    19   14   36 1
    20   15   16 1
    21   15   17 1
    22   15   37 1
    23   16   21 1
    24   17   18 1
    25   17   19 1
    26   17   38 1
    27   18   39 1
    28   19   20 1
    29   19   21 1
    30   19   40 1
    31   20   41 1
    32   21   22 1
    33   21   42 1
    34   22   23 ar
    35   22   31 ar
    36   23   24 ar
    37   23   43 1
    38   24   25 ar
    39   24   47 1
    40   25   26 ar
    41   25   31 ar
    42   26   27 1
    43   26   28 ar
    44   27   44 1
    45   27   45 1
    46   28   29 ar
    47   29   30 ar
    48   29   46 1
    49   30   31 ar
@<TRIPOS>SUBSTRUCTURE
     1 ATP         1 GROUP 0 A     ****
@<TRIPOS>MOLECULE
[[5-(6-amino-7,8-dihydropurin-8-ylium-9-yl)-3,4-dihydroxy-tetrahydrofuran-2-yl]methoxy-hydroxy-phosphoryl] phosphono phosphate
   47    49     1     0     0
SMALL
USER_CHARGES

@<TRIPOS>ATOM
      1 PG          0.4982   -0.7417   -7.8720 P.3       1 ATP         1.7526
      2 O1G         0.9538    0.4066   -8.7230 O.2       1 ATP        -0.8534
      3 O2G        -1.0294   -0.6541   -7.3522 O.3       1 ATP        -0.7661
      4 O3G         0.5758   -2.1946   -8.5755 O.3       1 ATP        -0.7661
      5 PB          2.9340   -1.2493   -6.2876 P.3       1 ATP         1.6631
      6 O1B         3.2465   -2.6280   -6.8249 O.co2     1 ATP        -0.8211
      7 O2B         3.7243   -0.0384   -6.7314 O.co2     1 ATP        -0.8211
      8 O3B         1.3462   -0.9472   -6.5109 O.3       1 ATP        -0.7954
      9 PA          2.1463   -2.2799   -3.6368 P.3       1 ATP         1.7782
     10 O1A         2.4483   -3.7410   -3.8024 O.2       1 ATP        -0.8134
     11 O2A         0.5922   -1.8888   -3.8580 O.3       1 ATP        -0.8257
     12 O3A         2.9399   -1.3083   -4.6574 O.3       1 ATP        -0.8063
     13 O5'         2.5233   -1.6622   -2.1894 O.3       1 ATP        -0.5763
     14 C5'         2.2816   -0.2918   -1.9206 C.3       1 ATP         0.1790
     15 C4'         2.7248    0.0226   -0.4980 C.3       1 ATP         0.1339
     16 O4'         2.4697    1.4219   -0.2462 O.3       1 ATP        -0.4040
     17 C3'         1.9404   -0.7419    0.5596 C.3       1 ATP         0.0906
     18 O3'         2.7418   -0.8086    1.7389 O.3       1 ATP        -0.5689
     19 C2'         0.7477    0.1630    0.7858 C.3       1 ATP         0.0660
     20 O2'         0.1373   -0.0577    2.0407 O.3       1 ATP        -0.5800
     21 C1'         1.3733    1.5427    0.6747 C.3       1 ATP         0.4216
     22 N9          0.4520    2.5240    0.1767 N.pl3     1 ATP        -0.5455
     23 C8         -0.5899    2.3466   -0.6224 C.ar      1 ATP         0.2820
     24 N7         -1.2514    3.4689   -0.8989 N.pl3     1 ATP        -0.4970
     25 C5         -0.5826    4.4323   -0.2272 C.ar      1 ATP        -0.2773
     26 C6         -0.7636    5.7789   -0.1086 C.ar      1 ATP         0.7637
     27 N6         -1.8382    6.3927   -0.7843 N.pl3     1 ATP        -0.9374
     28 N1          0.0741    6.5233    0.6461 N.ar      1 ATP        -0.7408
     29 C2          1.0845    5.8486    1.2626 C.ar      1 ATP         0.7215
     30 N3          1.3516    4.5236    1.2116 N.ar      1 ATP        -0.6797
     31 C4          0.4827    3.8546    0.4481 C.ar      1 ATP         0.6429
     32 HOG2       -1.2985    0.1068   -6.7948 H         1 ATP         0.4781
     33 HOG3        0.2909   -2.9838   -8.0673 H         1 ATP         0.4781
     34 HOA2       -0.0862   -2.2949   -3.2777 H         1 ATP         0.4931
     35 H5'1        2.8428    0.3150   -2.6387 H         1 ATP         0.0438
     36 H5'2        1.2124   -0.0896   -2.0417 H         1 ATP         0.0438
     37 H4'         3.8049   -0.1388   -0.4009 H         1 ATP         0.1278
     38 H3'         1.6783   -1.7629    0.2715 H         1 ATP         0.1161
     39 HO3'        2.2232   -1.2979    2.3953 H         1 ATP         0.4111
     40 H2'        -0.0011    0.0027    0.0003 H         1 ATP         0.0477
     41 HO2'       -0.6141    0.5574    2.1082 H         1 ATP         0.4259
     42 H1'         1.7826    1.9024    1.6451 H         1 ATP         0.1524
     43 H8         -0.8833    1.3888   -1.0158 H         1 ATP         0.2610
     44 HN61       -2.4225    5.8385   -1.3773 H         1 ATP         0.4534
     45 HN62       -1.9421    7.3862   -0.7348 H         1 ATP         0.4534
     46 H2          1.7546    6.4491    1.8670 H         1 ATP         0.0900
     47 H47        -2.0705    3.5612   -1.4834 H         1 ATP         0.5046
@<TRIPOS>BOND
     1    1    2 2
     2    1    3 1
     3    1    4 1
     4    1    8 1
     5    3   32 1
     6    4   33 1
     7    5    6 2
     8    5    7 1
     9    5    8 1
    10    5   12 1
    11    9   10 2
    12    9   11 1
    13    9   12 1
    14    9   13 1
    15   11   34 1
    16   13   14 1
    17   14   15 1
    18   14   35 1
    19   14   36 1
    20   15   16 1
    21   15   17 1
    22   15   37 1
    23   16   21 1
    24   17   18 1
    25   17   19 1
    26   17   38 1
    27   18   39 1
    28   19   20 1
    29   19   21 1
    30   19   40 1
    31   20   41 1
    32   21   22 1
    33   21   42 1
    34   22   23 ar
    35   22   31 ar
    36   23   24 ar
    37   23   43 1
    38   24   25 ar
    39   24   47 1
    40   25   26 ar
    41   25   31 ar
    42   26   27 1
    43   26   28 ar
    44   27   44 1
    45   27   45 1
    46   28   29 ar
    47   29   30 ar
    48   29   46 1
    49   30   31 ar
@<TRIPOS>SUBSTRUCTURE
     1 ATP         1 GROUP 0 A     ****
@<TRIPOS>MOLECULE
[[5-(6-amino-7,8-dihydropurin-8-ylium-9-yl)-3,4-dihydroxy-tetrahydrofuran-2-yl]methoxy-hydroxy-phosphoryl] phosphono phosphate
   47    49     1     0     0
SMALL
USER_CHARGES

@<TRIPOS>ATOM
      1 PG          7.4662   -3.4636   -3.5426 P.3       1 ATP         1.7526
      2 O1G         8.6658   -2.8525   -4.2044 O.2       1 ATP        -0.8534
      3 O2G         7.1417   -4.9879   -3.9702 O.3       1 ATP        -0.7661
      4 O3G         7.5271   -3.5281   -1.9289 O.3       1 ATP        -0.7661
      5 PB          5.6304   -1.1552   -3.4977 P.3       1 ATP         1.6631
      6 O1B         5.5508   -0.9836   -1.9972 O.co2     1 ATP        -0.8211
      7 O2B         6.4569   -0.2182   -4.3501 O.co2     1 ATP        -0.8211
      8 O3B         6.0753   -2.6901   -3.8269 O.3       1 ATP        -0.7954
      9 PA          2.8565   -2.1425   -3.6983 P.3       1 ATP         1.7782
     10 O1A         3.0938   -3.6162   -3.8583 O.2       1 ATP        -0.8134
     11 O2A         1.6409   -1.5597   -4.5927 O.3       1 ATP        -0.8257
     12 O3A         4.1154   -1.2102   -4.1001 O.3       1 ATP        -0.8063
     13 O5'         2.5233   -1.6622   -2.1894 O.3       1 ATP        -0.5763
     14 C5'         2.2816   -0.2918   -1.9206 C.3       1 ATP         0.1790
     15 C4'         2.7248    0.0226   -0.4980 C.3       1 ATP         0.1339
     16 O4'         2.4697    1.4219   -0.2462 O.3       1 ATP        -0.4040
     17 C3'         1.9404   -0.7419    0.5596 C.3       1 ATP         0.0906
     18 O3'         2.7418   -0.8086    1.7389 O.3       1 ATP        -0.5689
     19 C2'         0.7477    0.1630    0.7858 C.3       1 ATP         0.0660
     20 O2'         0.1373   -0.0577    2.0407 O.3       1 ATP        -0.5800
     21 C1'         1.3733    1.5427    0.6747 C.3       1 ATP         0.4216
     22 N9          0.4520    2.5240    0.1767 N.pl3     1 ATP        -0.5455
     23 C8         -0.3477    3.3274    0.8626 C.ar      1 ATP         0.2820
     24 N7         -1.0836    4.1323    0.0983 N.pl3     1 ATP        -0.4970
     25 C5         -0.7273    3.8194   -1.1674 C.ar      1 ATP        -0.2773
     26 C6         -1.1208    4.2877   -2.3863 C.ar      1 ATP         0.7637
     27 N6         -2.0932    5.3066   -2.4528 N.pl3     1 ATP        -0.9374
     28 N1         -0.5892    3.7853   -3.5223 N.ar      1 ATP        -0.7408
     29 C2          0.3427    2.8040   -3.3648 C.ar      1 ATP         0.7215
     30 N3          0.8012    2.2709   -2.2093 N.ar      1 ATP        -0.6797
     31 C4          0.2307    2.8167   -1.1312 C.ar      1 ATP         0.6429
     32 HOG2        7.8161   -5.6809   -3.8060 H         1 ATP         0.4781
     33 HOG3        7.6122   -2.6918   -1.4234 H         1 ATP         0.4781
     34 HOA2        0.7381   -1.9183   -4.4569 H         1 ATP         0.4931
     35 H5'1        2.8428    0.3150   -2.6387 H         1 ATP         0.0438
     36 H5'2        1.2124   -0.0896   -2.0417 H         1 ATP         0.0438
     37 H4'         3.8049   -0.1388   -0.4009 H         1 ATP         0.1278
     38 H3'         1.6783   -1.7629    0.2715 H         1 ATP         0.1161
     39 HO3'        2.2232   -1.2979    2.3953 H         1 ATP         0.4111
     40 H2'        -0.0011    0.0027    0.0003 H         1 ATP         0.0477
     41 HO2'       -0.6141    0.5574    2.1082 H         1 ATP         0.4259
     42 H1'         1.7826    1.9024    1.6451 H         1 ATP         0.1524
     43 H8         -0.4040    3.3373    1.9373 H         1 ATP         0.2610
     44 HN61       -2.5133    5.6366   -1.6073 H         1 ATP         0.4534
     45 HN62       -2.4153    5.6161   -3.3477 H         1 ATP         0.4534
     46 H2          0.7668    2.4032   -4.2782 H         1 ATP         0.0900
     47 H47        -1.7549    4.8194    0.4122 H         1 ATP         0.5046
@<TRIPOS>BOND
     1    1    2 2
     2    1    3 1
     3    1    4 1
     4    1    8 1
     5    3   32 1
     6    4   33 1
     7    5    6 2
     8    5    7 1
     9    5    8 1
    10    5   12 1
    11    9   10 2
    12    9   11 1
    13    9   12 1
    14    9   13 1
    15   11   34 1
    16   13   14 1
    17   14   15 1
    18   14   35 1
    19   14   36 1
    20   15   16 1
    21   15   17 1
    22   15   37 1
    23   16   21 1
    24   17   18 1
    25   17   19 1
    26   17   38 1
    27   18   39 1
    28   19   20 1
    29   19   21 1
    30   19   40 1
    31   20   41 1
    32   21   22 1
    33   21   42 1
    34   22   23 ar
    35   22   31 ar
    36   23   24 ar
    37   23   43 1
    38   24   25 ar
    39   24   47 1
    40   25   26 ar
    41   25   31 ar
    42   26   27 1
    43   26   28 ar
    44   27   44 1
    45   27   45 1
    46   28   29 ar
    47   29   30 ar
    48   29   46 1
    49   30   31 ar
@<TRIPOS>SUBSTRUCTURE
     1 ATP         1 GROUP 0 A     ****
@<TRIPOS>MOLECULE
[[5-(6-amino-7,8-dihydropurin-8-ylium-9-yl)-3,4-dihydroxy-tetrahydrofuran-2-yl]methoxy-hydroxy-phosphoryl] phosphono phosphate
   47    49     1     0     0
SMALL
USER_CHARGES

@<TRIPOS>ATOM
      1 PG          4.1639   -2.3238   -8.3763 P.3       1 ATP         1.7526
      2 O1G         4.8507   -1.2931   -9.2227 O.2       1 ATP        -0.8534
      3 O2G         2.7611   -2.8749   -8.9595 O.3       1 ATP        -0.7661
      4 O3G         5.0151   -3.6702   -8.1032 O.3       1 ATP        -0.7661
      5 PB          2.8204   -0.5993   -6.3959 P.3       1 ATP         1.6631
      6 O1B         3.4620    0.7111   -6.7939 O.co2     1 ATP        -0.8211
      7 O2B         1.3927   -0.9201   -6.7784 O.co2     1 ATP        -0.8211
      8 O3B         3.7805   -1.8236   -6.8875 O.3       1 ATP        -0.7954
      9 PA          2.6324   -2.0580   -3.8373 P.3       1 ATP         1.7782
     10 O1A         3.3649   -3.3226   -4.1804 O.2       1 ATP        -0.8134
     11 O2A         1.0213   -2.1722   -3.9291 O.3       1 ATP        -0.8257
     12 O3A         2.9865   -0.7963   -4.7851 O.3       1 ATP        -0.8063
     13 O5'         2.9195   -1.4814   -2.3528 O.3       1 ATP        -0.5763
     14 C5'         2.2816   -0.2918   -1.9206 C.3       1 ATP         0.1790
     15 C4'         2.7248    0.0226   -0.4980 C.3       1 ATP         0.1339
     16 O4'         2.4697    1.4219   -0.2462 O.3       1 ATP        -0.4040
     17 C3'         1.9404   -0.7419    0.5596 C.3       1 ATP         0.0906
     18 O3'         2.7418   -0.8086    1.7389 O.3       1 ATP        -0.5689
     19 C2'         0.7477    0.1630    0.7858 C.3       1 ATP         0.0660
     20 O2'         0.1373   -0.0577    2.0407 O.3       1 ATP        -0.5800
     21 C1'         1.3733    1.5427    0.6747 C.3       1 ATP         0.4216
     22 N9          0.4520    2.5240    0.1767 N.pl3     1 ATP        -0.5455
     23 C8          0.0623    3.6542    0.7479 C.ar      1 ATP         0.2820
     24 N7         -0.8074    4.3516    0.0193 N.pl3     1 ATP        -0.4970
     25 C5         -0.9855    3.6123   -1.0979 C.ar      1 ATP        -0.2773
     26 C6         -1.7474    3.7860   -2.2156 C.ar      1 ATP         0.7637
     27 N6         -2.5511    4.9389   -2.3303 N.pl3     1 ATP        -0.9374
     28 N1         -1.7375    2.8675   -3.2064 N.ar      1 ATP        -0.7408
     29 C2         -0.9330    1.7853   -3.0121 C.ar      1 ATP         0.7215
     30 N3         -0.1423    1.5179   -1.9478 N.ar      1 ATP        -0.6797
     31 C4         -0.2044    2.4690   -1.0113 C.ar      1 ATP         0.6429
     32 HOG2        2.0277   -2.2412   -9.1099 H         1 ATP         0.4781
     33 HOG3        5.2980   -4.2161   -8.8676 H         1 ATP         0.4781
     34 HOA2        0.5592   -2.8251   -3.3615 H         1 ATP         0.4931
     35 H5'1        2.5577    0.5244   -2.5962 H         1 ATP         0.0438
     36 H5'2        1.1970   -0.4361   -1.9603 H         1 ATP         0.0438
     37 H4'         3.8049   -0.1388   -0.4009 H         1 ATP         0.1278
     38 H3'         1.6783   -1.7629    0.2715 H         1 ATP         0.1161
     39 HO3'        2.2232   -1.2979    2.3953 H         1 ATP         0.4111
     40 H2'        -0.0011    0.0027    0.0003 H         1 ATP         0.0477
     41 HO2'       -0.1563   -0.9855    2.0596 H         1 ATP         0.4259
     42 H1'         1.7826    1.9024    1.6451 H         1 ATP         0.1524
     43 H8          0.4111    3.9873    1.7100 H         1 ATP         0.2610
     44 HN61       -2.5859    5.5874   -1.5698 H         1 ATP         0.4534
     45 HN62       -3.1449    5.0423   -3.1284 H         1 ATP         0.4534
     46 H2         -0.9279    1.0504   -3.8088 H         1 ATP         0.0900
     47 H47        -1.2303    5.2364    0.2633 H         1 ATP         0.5046
@<TRIPOS>BOND
     1    1    2 2
     2    1    3 1
     3    1    4 1
     4    1    8 1
     5    3   32 1
     6    4   33 1
     7    5    6 2
     8    5    7 1
     9    5    8 1
    10    5   12 1
    11    9   10 2
    12    9   11 1
    13    9   12 1
    14    9   13 1
    15   11   34 1
    16   13   14 1
    17   14   15 1
    18   14   35 1
    19   14   36 1
    20   15   16 1
    21   15   17 1
    22   15   37 1
    23   16   21 1
    24   17   18 1
    25   17   19 1
    26   17   38 1
    27   18   39 1
    28   19   20 1
    29   19   21 1
    30   19   40 1
    31   20   41 1
    32   21   22 1
    33   21   42 1
    34   22   23 ar
    35   22   31 ar
    36   23   24 ar
    37   23   43 1
    38   24   25 ar
    39   24   47 1
    40   25   26 ar
    41   25   31 ar
    42   26   27 1
    43   26   28 ar
    44   27   44 1
    45   27   45 1
    46   28   29 ar
    47   29   30 ar
    48   29   46 1
    49   30   31 ar
@<TRIPOS>SUBSTRUCTURE
     1 ATP         1 GROUP 0 A     ****
@<TRIPOS>MOLECULE
[[5-(6-amino-7,8-dihydropurin-8-ylium-9-yl)-3,4-dihydroxy-tetrahydrofuran-2-yl]methoxy-hydroxy-phosphoryl] phosphono phosphate
   47    49     1     0     0
SMALL
USER_CHARGES

@<TRIPOS>ATOM
      1 PG         -1.3979   -1.6287   -6.9881 P.3       1 ATP         1.7526
      2 O1G        -1.3425   -3.0958   -7.2966 O.2       1 ATP        -0.8534
      3 O2G        -1.3329   -0.6490   -8.2716 O.3       1 ATP        -0.7661
      4 O3G        -2.7237   -1.1385   -6.2046 O.3       1 ATP        -0.7661
      5 PB          1.4182   -1.1116   -6.2790 P.3       1 ATP         1.6631
      6 O1B         1.8953   -2.5467   -6.2674 O.co2     1 ATP        -0.8211
      7 O2B         1.7526   -0.1847   -7.4265 O.co2     1 ATP        -0.8211
      8 O3B        -0.1968   -1.0942   -6.0472 O.3       1 ATP        -0.7954
      9 PA          3.3376   -0.0311   -4.3149 P.3       1 ATP         1.7782
     10 O1A         4.1251    0.9098   -5.1800 O.2       1 ATP        -0.8134
     11 O2A         4.0362   -1.4721   -4.0854 O.3       1 ATP        -0.8257
     12 O3A         1.8686   -0.3982   -4.8828 O.3       1 ATP        -0.8063
     13 O5'         3.0190    0.5130   -2.8246 O.3       1 ATP        -0.5763
     14 C5'         2.2816   -0.2918   -1.9206 C.3       1 ATP         0.1790
     15 C4'         2.7248    0.0226   -0.4980 C.3       1 ATP         0.1339
     16 O4'         2.4697    1.4219   -0.2462 O.3       1 ATP        -0.4040
     17 C3'         1.9404   -0.7419    0.5596 C.3       1 ATP         0.0906
     18 O3'         2.7418   -0.8086    1.7389 O.3       1 ATP        -0.5689
     19 C2'         0.7477    0.1630    0.7858 C.3       1 ATP         0.0660
     20 O2'         0.1373   -0.0577    2.0407 O.3       1 ATP        -0.5800
     21 C1'         1.3733    1.5427    0.6747 C.3       1 ATP         0.4216
     22 N9          0.4520    2.5240    0.1767 N.pl3     1 ATP        -0.5455
     23 C8          0.0623    3.6542    0.7479 C.ar      1 ATP         0.2820
     24 N7         -0.8074    4.3516    0.0193 N.pl3     1 ATP        -0.4970
     25 C5         -0.9855    3.6123   -1.0979 C.ar      1 ATP        -0.2773
     26 C6         -1.7474    3.7860   -2.2156 C.ar      1 ATP         0.7637
     27 N6         -2.5511    4.9389   -2.3303 N.pl3     1 ATP        -0.9374
     28 N1         -1.7375    2.8675   -3.2064 N.ar      1 ATP        -0.7408
     29 C2         -0.9330    1.7853   -3.0121 C.ar      1 ATP         0.7215
     30 N3         -0.1423    1.5179   -1.9478 N.ar      1 ATP        -0.6797
     31 C4         -0.2044    2.4690   -1.0113 C.ar      1 ATP         0.6429
     32 HOG2       -2.0295   -0.7196   -8.9586 H         1 ATP         0.4781
     33 HOG3       -2.9232   -1.5212   -5.3237 H         1 ATP         0.4781
     34 HOA2        4.9191   -1.5086   -3.6596 H         1 ATP         0.4931
     35 H5'1        1.2149   -0.0786   -2.0446 H         1 ATP         0.0438
     36 H5'2        2.4640   -1.3459   -2.1539 H         1 ATP         0.0438
     37 H4'         3.8049   -0.1388   -0.4009 H         1 ATP         0.1278
     38 H3'         1.6783   -1.7629    0.2715 H         1 ATP         0.1161
     39 HO3'        2.2232   -1.2979    2.3953 H         1 ATP         0.4111
     40 H2'        -0.0011    0.0027    0.0003 H         1 ATP         0.0477
     41 HO2'       -0.6141    0.5574    2.1082 H         1 ATP         0.4259
     42 H1'         1.7826    1.9024    1.6451 H         1 ATP         0.1524
     43 H8          0.4111    3.9873    1.7100 H         1 ATP         0.2610
     44 HN61       -2.5859    5.5874   -1.5698 H         1 ATP         0.4534
     45 HN62       -3.1449    5.0423   -3.1284 H         1 ATP         0.4534
     46 H2         -0.9279    1.0504   -3.8088 H         1 ATP         0.0900
     47 H47        -1.2303    5.2364    0.2633 H         1 ATP         0.5046
@<TRIPOS>BOND
     1    1    2 2
     2    1    3 1
     3    1    4 1
     4    1    8 1
     5    3   32 1
     6    4   33 1
     7    5    6 2
     8    5    7 1
     9    5    8 1
    10    5   12 1
    11    9   10 2
    12    9   11 1
    13    9   12 1
    14    9   13 1
    15   11   34 1
    16   13   14 1
    17   14   15 1
    18   14   35 1
    19   14   36 1
    20   15   16 1
    21   15   17 1
    22   15   37 1
    23   16   21 1
    24   17   18 1
    25   17   19 1
    26   17   38 1
    27   18   39 1
    28   19   20 1
    29   19   21 1
    30   19   40 1
    31   20   41 1
    32   21   22 1
    33   21   42 1
    34   22   23 ar
    35   22   31 ar
    36   23   24 ar
    37   23   43 1
    38   24   25 ar
    39   24   47 1
    40   25   26 ar
    41   25   31 ar
    42   26   27 1
    43   26   28 ar
    44   27   44 1
    45   27   45 1
    46   28   29 ar
    47   29   30 ar
    48   29   46 1
    49   30   31 ar
@<TRIPOS>SUBSTRUCTURE
     1 ATP         1 GROUP 0 A     ****
@<TRIPOS>MOLECULE
[[5-(6-amino-7,8-dihydropurin-8-ylium-9-yl)-3,4-dihydroxy-tetrahydrofuran-2-yl]methoxy-hydroxy-phosphoryl] phosphono phosphate
   47    49     1     0     0
SMALL
USER_CHARGES

@<TRIPOS>ATOM
      1 PG          2.0428    2.4873   -7.5589 P.3       1 ATP         1.7526
      2 O1G         0.8657    2.4298   -8.4871 O.2       1 ATP        -0.8534
      3 O2G         3.4891    2.5362   -8.2781 O.3       1 ATP        -0.7661
      4 O3G         2.0730    3.7586   -6.5616 O.3       1 ATP        -0.7661
      5 PB          1.1370    0.6774   -5.4131 P.3       1 ATP         1.6631
      6 O1B         1.0476    1.7010   -4.3033 O.co2     1 ATP        -0.8211
      7 O2B        -0.1062    0.1534   -6.0968 O.co2     1 ATP        -0.8211
      8 O3B         2.1669    1.2281   -6.5524 O.3       1 ATP        -0.7954
      9 PA          3.4935   -0.6459   -4.2276 P.3       1 ATP         1.7782
     10 O1A         4.5884   -0.1042   -5.1002 O.2       1 ATP        -0.8134
     11 O2A         3.6754   -2.1988   -3.8124 O.3       1 ATP        -0.8257
     12 O3A         2.0176   -0.5909   -4.8867 O.3       1 ATP        -0.8063
     13 O5'         3.2874    0.1331   -2.8242 O.3       1 ATP        -0.5763
     14 C5'         2.2816   -0.2918   -1.9206 C.3       1 ATP         0.1790
     15 C4'         2.7248    0.0226   -0.4980 C.3       1 ATP         0.1339
     16 O4'         2.4697    1.4219   -0.2462 O.3       1 ATP        -0.4040
     17 C3'         1.9404   -0.7419    0.5596 C.3       1 ATP         0.0906
     18 O3'         2.7418   -0.8086    1.7389 O.3       1 ATP        -0.5689
     19 C2'         0.7477    0.1630    0.7858 C.3       1 ATP         0.0660
     20 O2'         0.1373   -0.0577    2.0407 O.3       1 ATP        -0.5800
     21 C1'         1.3733    1.5427    0.6747 C.3       1 ATP         0.4216
     22 N9          0.4520    2.5240    0.1767 N.pl3     1 ATP        -0.5455
     23 C8         -0.6854    2.9365    0.7168 C.ar      1 ATP         0.2820
     24 N7         -1.3118    3.8692    0.0018 N.pl3     1 ATP        -0.4970
     25 C5         -0.5159    4.0659   -1.0727 C.ar      1 ATP        -0.2773
     26 C6         -0.6068    4.8856   -2.1589 C.ar      1 ATP         0.7637
     27 N6         -1.7186    5.7437   -2.2844 N.pl3     1 ATP        -0.9374
     28 N1          0.3541    4.8807   -3.1087 N.ar      1 ATP        -0.7408
     29 C2          1.3913    4.0207   -2.9071 C.ar      1 ATP         0.7215
     30 N3          1.5770    3.1707   -1.8715 N.ar      1 ATP        -0.6797
     31 C4          0.5883    3.2318   -0.9747 C.ar      1 ATP         0.6429
     32 HOG2        3.6940    3.2812   -8.8824 H         1 ATP         0.4781
     33 HOG3        1.3325    3.8845   -5.9306 H         1 ATP         0.4781
     34 HOA2        4.4746   -2.4648   -3.3098 H         1 ATP         0.4931
     35 H5'1        1.3494    0.2322   -2.1552 H         1 ATP         0.0438
     36 H5'2        2.1260   -1.3686   -2.0435 H         1 ATP         0.0438
     37 H4'         3.8049   -0.1388   -0.4009 H         1 ATP         0.1278
     38 H3'         1.6783   -1.7629    0.2715 H         1 ATP         0.1161
     39 HO3'        2.2232   -1.2979    2.3953 H         1 ATP         0.4111
     40 H2'        -0.0011    0.0027    0.0003 H         1 ATP         0.0477
     41 HO2'       -0.1563   -0.9855    2.0596 H         1 ATP         0.4259
     42 H1'         1.7826    1.9024    1.6451 H         1 ATP         0.1524
     43 H8         -1.0749    2.5601    1.6468 H         1 ATP         0.2610
     44 HN61       -2.4460    5.7038   -1.5992 H         1 ATP         0.4534
     45 HN62       -1.8079    6.3099   -3.1040 H         1 ATP         0.4534
     46 H2          2.1601    4.0194   -3.6712 H         1 ATP         0.0900
     47 H47        -2.1877    4.3195    0.2279 H         1 ATP         0.5046
@<TRIPOS>BOND
     1    1    2 2
     2    1    3 1
     3    1    4 1
     4    1    8 1
     5    3   32 1
     6    4   33 1
     7    5    6 2
     8    5    7 1
     9    5    8 1
    10    5   12 1
    11    9   10 2
    12    9   11 1
    13    9   12 1
    14    9   13 1
    15   11   34 1
    16   13   14 1
    17   14   15 1
    18   14   35 1
    19   14   36 1
    20   15   16 1
    21   15   17 1
    22   15   37 1
    23   16   21 1
    24   17   18 1
    25   17   19 1
    26   17   38 1
    27   18   39 1
    28   19   20 1
    29   19   21 1
    30   19   40 1
    31   20   41 1
    32   21   22 1
    33   21   42 1
    34   22   23 ar
    35   22   31 ar
    36   23   24 ar
    37   23   43 1
    38   24   25 ar
    39   24   47 1
    40   25   26 ar
    41   25   31 ar
    42   26   27 1
    43   26   28 ar
    44   27   44 1
    45   27   45 1
    46   28   29 ar
    47   29   30 ar
    48   29   46 1
    49   30   31 ar
@<TRIPOS>SUBSTRUCTURE
     1 ATP         1 GROUP 0 A     ****
@<TRIPOS>MOLECULE
[[5-(6-amino-7,8-dihydropurin-8-ylium-9-yl)-3,4-dihydroxy-tetrahydrofuran-2-yl]methoxy-hydroxy-phosphoryl] phosphono phosphate
   47    49     1     0     0
SMALL
USER_CHARGES

@<TRIPOS>ATOM
      1 PG          2.2741   -3.8274   -7.0491 P.3       1 ATP         1.7526
      2 O1G         2.8482   -3.5631   -8.4096 O.2       1 ATP        -0.8534
      3 O2G         0.7592   -4.3900   -7.0349 O.3       1 ATP        -0.7661
      4 O3G         3.0852   -4.9021   -6.1553 O.3       1 ATP        -0.7661
      5 PB          1.4182   -1.1116   -6.2790 P.3       1 ATP         1.6631
      6 O1B         2.0466   -0.3620   -7.4325 O.co2     1 ATP        -0.8211
      7 O2B        -0.0712   -1.3706   -6.2322 O.co2     1 ATP        -0.8211
      8 O3B         2.2013   -2.5301   -6.0870 O.3       1 ATP        -0.7954
      9 PA          3.3376   -0.0311   -4.3149 P.3       1 ATP         1.7782
     10 O1A         4.1251    0.9098   -5.1800 O.2       1 ATP        -0.8134
     11 O2A         4.0362   -1.4721   -4.0854 O.3       1 ATP        -0.8257
     12 O3A         1.8686   -0.3982   -4.8828 O.3       1 ATP        -0.8063
     13 O5'         3.0190    0.5130   -2.8246 O.3       1 ATP        -0.5763
     14 C5'         2.2816   -0.2918   -1.9206 C.3       1 ATP         0.1790
     15 C4'         2.7248    0.0226   -0.4980 C.3       1 ATP         0.1339
     16 O4'         2.4697    1.4219   -0.2462 O.3       1 ATP        -0.4040
     17 C3'         1.9404   -0.7419    0.5596 C.3       1 ATP         0.0906
     18 O3'         2.7418   -0.8086    1.7389 O.3       1 ATP        -0.5689
     19 C2'         0.7477    0.1630    0.7858 C.3       1 ATP         0.0660
     20 O2'         0.1373   -0.0577    2.0407 O.3       1 ATP        -0.5800
     21 C1'         1.3733    1.5427    0.6747 C.3       1 ATP         0.4216
     22 N9          0.4520    2.5240    0.1767 N.pl3     1 ATP        -0.5455
     23 C8          0.0623    3.6542    0.7479 C.ar      1 ATP         0.2820
     24 N7         -0.8074    4.3516    0.0193 N.pl3     1 ATP        -0.4970
     25 C5         -0.9855    3.6123   -1.0979 C.ar      1 ATP        -0.2773
     26 C6         -1.7474    3.7860   -2.2156 C.ar      1 ATP         0.7637
     27 N6         -2.5511    4.9389   -2.3303 N.pl3     1 ATP        -0.9374
     28 N1         -1.7375    2.8675   -3.2064 N.ar      1 ATP        -0.7408
     29 C2         -0.9330    1.7853   -3.0121 C.ar      1 ATP         0.7215
     30 N3         -0.1423    1.5179   -1.9478 N.ar      1 ATP        -0.6797
     31 C4         -0.2044    2.4690   -1.0113 C.ar      1 ATP         0.6429
     32 HOG2        0.0469   -3.8460   -7.4334 H         1 ATP         0.4781
     33 HOG3        3.1910   -5.8169   -6.4932 H         1 ATP         0.4781
     34 HOA2        4.2259   -2.0366   -4.8648 H         1 ATP         0.4931
     35 H5'1        1.2149   -0.0786   -2.0446 H         1 ATP         0.0438
     36 H5'2        2.4640   -1.3459   -2.1539 H         1 ATP         0.0438
     37 H4'         3.8049   -0.1388   -0.4009 H         1 ATP         0.1278
     38 H3'         1.6783   -1.7629    0.2715 H         1 ATP         0.1161
     39 HO3'        2.2232   -1.2979    2.3953 H         1 ATP         0.4111
     40 H2'        -0.0011    0.0027    0.0003 H         1 ATP         0.0477
     41 HO2'       -0.6141    0.5574    2.1082 H         1 ATP         0.4259
     42 H1'         1.7826    1.9024    1.6451 H         1 ATP         0.1524
     43 H8          0.4111    3.9873    1.7100 H         1 ATP         0.2610
     44 HN61       -2.5859    5.5874   -1.5698 H         1 ATP         0.4534
     45 HN62       -3.1449    5.0423   -3.1284 H         1 ATP         0.4534
     46 H2         -0.9279    1.0504   -3.8088 H         1 ATP         0.0900
     47 H47        -1.2303    5.2364    0.2633 H         1 ATP         0.5046
@<TRIPOS>BOND
     1    1    2 2
     2    1    3 1
     3    1    4 1
     4    1    8 1
     5    3   32 1
     6    4   33 1
     7    5    6 2
     8    5    7 1
     9    5    8 1
    10    5   12 1
    11    9   10 2
    12    9   11 1
    13    9   12 1
    14    9   13 1
    15   11   34 1
    16   13   14 1
    17   14   15 1
    18   14   35 1
    19   14   36 1
    20   15   16 1
    21   15   17 1
    22   15   37 1
    23   16   21 1
    24   17   18 1
    25   17   19 1
    26   17   38 1
    27   18   39 1
    28   19   20 1
    29   19   21 1
    30   19   40 1
    31   20   41 1
    32   21   22 1
    33   21   42 1
    34   22   23 ar
    35   22   31 ar
    36   23   24 ar
    37   23   43 1
    38   24   25 ar
    39   24   47 1
    40   25   26 ar
    41   25   31 ar
    42   26   27 1
    43   26   28 ar
    44   27   44 1
    45   27   45 1
    46   28   29 ar
    47   29   30 ar
    48   29   46 1
    49   30   31 ar
@<TRIPOS>SUBSTRUCTURE
     1 ATP         1 GROUP 0 A     ****
@<TRIPOS>MOLECULE
[[5-(6-amino-7,8-dihydropurin-8-ylium-9-yl)-3,4-dihydroxy-tetrahydrofuran-2-yl]methoxy-hydroxy-phosphoryl] phosphono phosphate
   47    49     1     0     0
SMALL
USER_CHARGES

@<TRIPOS>ATOM
      1 PG          1.4197    5.9665   -3.1628 P.3       1 ATP         1.7526
      2 O1G         1.7478    6.2917   -1.7355 O.2       1 ATP        -0.8534
      3 O2G        -0.0969    6.2927   -3.6156 O.3       1 ATP        -0.7661
      4 O3G         2.3173    6.7311   -4.2681 O.3       1 ATP        -0.7661
      5 PB          2.9228    3.4525   -3.5110 P.3       1 ATP         1.6631
      6 O1B         3.9148    3.9457   -4.5407 O.co2     1 ATP        -0.8211
      7 O2B         3.3271    3.2526   -2.0673 O.co2     1 ATP        -0.8211
      8 O3B         1.6017    4.4088   -3.5559 O.3       1 ATP        -0.7954
      9 PA          2.8824    0.6133   -4.3155 P.3       1 ATP         1.7782
     10 O1A         4.0008    0.5891   -5.3166 O.2       1 ATP        -0.8134
     11 O2A         1.6103   -0.3046   -4.7113 O.3       1 ATP        -0.8257
     12 O3A         2.2407    2.0753   -4.0580 O.3       1 ATP        -0.8063
     13 O5'         3.2874    0.1331   -2.8242 O.3       1 ATP        -0.5763
     14 C5'         2.2816   -0.2918   -1.9206 C.3       1 ATP         0.1790
     15 C4'         2.7248    0.0226   -0.4980 C.3       1 ATP         0.1339
     16 O4'         2.4697    1.4219   -0.2462 O.3       1 ATP        -0.4040
     17 C3'         1.9404   -0.7419    0.5596 C.3       1 ATP         0.0906
     18 O3'         2.7418   -0.8086    1.7389 O.3       1 ATP        -0.5689
     19 C2'         0.7477    0.1630    0.7858 C.3       1 ATP         0.0660
     20 O2'         0.1373   -0.0577    2.0407 O.3       1 ATP        -0.5800
     21 C1'         1.3733    1.5427    0.6747 C.3       1 ATP         0.4216
     22 N9          0.4520    2.5240    0.1767 N.pl3     1 ATP        -0.5455
     23 C8          0.0623    3.6542    0.7479 C.ar      1 ATP         0.2820
     24 N7         -0.8074    4.3516    0.0193 N.pl3     1 ATP        -0.4970
     25 C5         -0.9855    3.6123   -1.0979 C.ar      1 ATP        -0.2773
     26 C6         -1.7474    3.7860   -2.2156 C.ar      1 ATP         0.7637
     27 N6         -2.5511    4.9389   -2.3303 N.pl3     1 ATP        -0.9374
     28 N1         -1.7375    2.8675   -3.2064 N.ar      1 ATP        -0.7408
     29 C2         -0.9330    1.7853   -3.0121 C.ar      1 ATP         0.7215
     30 N3         -0.1423    1.5179   -1.9478 N.ar      1 ATP        -0.6797
     31 C4         -0.2044    2.4690   -1.0113 C.ar      1 ATP         0.6429
     32 HOG2       -0.4216    7.2164   -3.5574 H         1 ATP         0.4781
     33 HOG3        3.2890    6.5970   -4.2656 H         1 ATP         0.4781
     34 HOA2        1.7413   -1.2688   -4.8338 H         1 ATP         0.4931
     35 H5'1        1.3494    0.2322   -2.1552 H         1 ATP         0.0438
     36 H5'2        2.1260   -1.3686   -2.0435 H         1 ATP         0.0438
     37 H4'         3.8049   -0.1388   -0.4009 H         1 ATP         0.1278
     38 H3'         1.6783   -1.7629    0.2715 H         1 ATP         0.1161
     39 HO3'        2.2232   -1.2979    2.3953 H         1 ATP         0.4111
     40 H2'        -0.0011    0.0027    0.0003 H         1 ATP         0.0477
     41 HO2'       -0.6141    0.5574    2.1082 H         1 ATP         0.4259
     42 H1'         1.7826    1.9024    1.6451 H         1 ATP         0.1524
     43 H8          0.4111    3.9873    1.7100 H         1 ATP         0.2610
     44 HN61       -3.0729    5.0887   -3.1703 H         1 ATP         0.4534
     45 HN62       -2.5136    5.6334   -1.6116 H         1 ATP         0.4534
     46 H2         -0.9279    1.0504   -3.8088 H         1 ATP         0.0900
     47 H47        -1.2303    5.2364    0.2633 H         1 ATP         0.5046
@<TRIPOS>BOND
     1    1    2 2
     2    1    3 1
     3    1    4 1
     4    1    8 1
     5    3   32 1
     6    4   33 1
     7    5    6 2
     8    5    7 1
     9    5    8 1
    10    5   12 1
    11    9   10 2
    12    9   11 1
    13    9   12 1
    14    9   13 1
    15   11   34 1
    16   13   14 1
    17   14   15 1
    18   14   35 1
    19   14   36 1
    20   15   16 1
    21   15   17 1
    22   15   37 1
    23   16   21 1
    24   17   18 1
    25   17   19 1
    26   17   38 1
    27   18   39 1
    28   19   20 1
    29   19   21 1
    30   19   40 1
    31   20   41 1
    32   21   22 1
    33   21   42 1
    34   22   23 ar
    35   22   31 ar
    36   23   24 ar
    37   23   43 1
    38   24   25 ar
    39   24   47 1
    40   25   26 ar
    41   25   31 ar
    42   26   27 1
    43   26   28 ar
    44   27   44 1
    45   27   45 1
    46   28   29 ar
    47   29   30 ar
    48   29   46 1
    49   30   31 ar
@<TRIPOS>SUBSTRUCTURE
     1 ATP         1 GROUP 0 A     ****
@<TRIPOS>MOLECULE
[[5-(6-amino-7,8-dihydropurin-8-ylium-9-yl)-3,4-dihydroxy-tetrahydrofuran-2-yl]methoxy-hydroxy-phosphoryl] phosphono phosphate
   47    49     1     0     0
SMALL
USER_CHARGES

@<TRIPOS>ATOM
      1 PG          1.6064    1.2478   -8.6028 P.3       1 ATP         1.7526
      2 O1G         2.3239    0.4226   -9.6298 O.2       1 ATP        -0.8534
      3 O2G         2.0630    2.7956   -8.5171 O.3       1 ATP        -0.7661
      4 O3G         0.0032    1.3359   -8.7866 O.3       1 ATP        -0.7661
      5 PB          1.3645   -0.7034   -6.4039 P.3       1 ATP         1.6631
      6 O1B        -0.1429   -0.8257   -6.4010 O.co2     1 ATP        -0.8211
      7 O2B         2.2369   -1.7886   -6.9947 O.co2     1 ATP        -0.8211
      8 O3B         1.7734    0.7228   -7.0828 O.3       1 ATP        -0.7954
      9 PA          3.3376   -0.0311   -4.3149 P.3       1 ATP         1.7782
     10 O1A         4.1251    0.9098   -5.1800 O.2       1 ATP        -0.8134
     11 O2A         4.0362   -1.4721   -4.0854 O.3       1 ATP        -0.8257
     12 O3A         1.8686   -0.3982   -4.8828 O.3       1 ATP        -0.8063
     13 O5'         3.0190    0.5130   -2.8246 O.3       1 ATP        -0.5763
     14 C5'         2.2816   -0.2918   -1.9206 C.3       1 ATP         0.1790
     15 C4'         2.7248    0.0226   -0.4980 C.3       1 ATP         0.1339
     16 O4'         2.4697    1.4219   -0.2462 O.3       1 ATP        -0.4040
     17 C3'         1.9404   -0.7419    0.5596 C.3       1 ATP         0.0906
     18 O3'         2.7418   -0.8086    1.7389 O.3       1 ATP        -0.5689
     19 C2'         0.7477    0.1630    0.7858 C.3       1 ATP         0.0660
     20 O2'         0.1373   -0.0577    2.0407 O.3       1 ATP        -0.5800
     21 C1'         1.3733    1.5427    0.6747 C.3       1 ATP         0.4216
     22 N9          0.4520    2.5240    0.1767 N.pl3     1 ATP        -0.5455
     23 C8          0.0623    3.6542    0.7479 C.ar      1 ATP         0.2820
     24 N7         -0.8074    4.3516    0.0193 N.pl3     1 ATP        -0.4970
     25 C5         -0.9855    3.6123   -1.0979 C.ar      1 ATP        -0.2773
     26 C6         -1.7474    3.7860   -2.2156 C.ar      1 ATP         0.7637
     27 N6         -2.5511    4.9389   -2.3303 N.pl3     1 ATP        -0.9374
     28 N1         -1.7375    2.8675   -3.2064 N.ar      1 ATP        -0.7408
     29 C2         -0.9330    1.7853   -3.0121 C.ar      1 ATP         0.7215
     30 N3         -0.1423    1.5179   -1.9478 N.ar      1 ATP        -0.6797
     31 C4         -0.2044    2.4690   -1.0113 C.ar      1 ATP         0.6429
     32 HOG2        1.9665    3.3638   -9.3107 H         1 ATP         0.4781
     33 HOG3       -0.5236    0.5088   -8.7613 H         1 ATP         0.4781
     34 HOA2        4.2259   -2.0366   -4.8648 H         1 ATP         0.4931
     35 H5'1        1.2149   -0.0786   -2.0446 H         1 ATP         0.0438
     36 H5'2        2.4640   -1.3459   -2.1539 H         1 ATP         0.0438
     37 H4'         3.8049   -0.1388   -0.4009 H         1 ATP         0.1278
     38 H3'         1.6783   -1.7629    0.2715 H         1 ATP         0.1161
     39 HO3'        2.2232   -1.2979    2.3953 H         1 ATP         0.4111
     40 H2'        -0.0011    0.0027    0.0003 H         1 ATP         0.0477
     41 HO2'       -0.6141    0.5574    2.1082 H         1 ATP         0.4259
     42 H1'         1.7826    1.9024    1.6451 H         1 ATP         0.1524
     43 H8          0.4111    3.9873    1.7100 H         1 ATP         0.2610
     44 HN61       -2.5859    5.5874   -1.5698 H         1 ATP         0.4534
     45 HN62       -3.1449    5.0423   -3.1284 H         1 ATP         0.4534
     46 H2         -0.9279    1.0504   -3.8088 H         1 ATP         0.0900
     47 H47        -1.2303    5.2364    0.2633 H         1 ATP         0.5046
@<TRIPOS>BOND
     1    1    2 2
     2    1    3 1
     3    1    4 1
     4    1    8 1
     5    3   32 1
     6    4   33 1
     7    5    6 2
     8    5    7 1
     9    5    8 1
    10    5   12 1
    11    9   10 2
    12    9   11 1
    13    9   12 1
    14    9   13 1
    15   11   34 1
    16   13   14 1
    17   14   15 1
    18   14   35 1
    19   14   36 1
    20   15   16 1
    21   15   17 1
    22   15   37 1
    23   16   21 1
    24   17   18 1
    25   17   19 1
    26   17   38 1
    27   18   39 1
    28   19   20 1
    29   19   21 1
    30   19   40 1
    31   20   41 1
    32   21   22 1
    33   21   42 1
    34   22   23 ar
    35   22   31 ar
    36   23   24 ar
    37   23   43 1
    38   24   25 ar
    39   24   47 1
    40   25   26 ar
    41   25   31 ar
    42   26   27 1
    43   26   28 ar
    44   27   44 1
    45   27   45 1
    46   28   29 ar
    47   29   30 ar
    48   29   46 1
    49   30   31 ar
@<TRIPOS>SUBSTRUCTURE
     1 ATP         1 GROUP 0 A     ****
@<TRIPOS>MOLECULE
[[5-(6-amino-7,8-dihydropurin-8-ylium-9-yl)-3,4-dihydroxy-tetrahydrofuran-2-yl]methoxy-hydroxy-phosphoryl] phosphono phosphate
   47    49     1     0     0
SMALL
USER_CHARGES

@<TRIPOS>ATOM
      1 PG          6.6626   -1.3974   -2.2789 P.3       1 ATP         1.7526
      2 O1G         7.7162   -0.5516   -2.9308 O.2       1 ATP        -0.8534
      3 O2G         7.0498   -2.9537   -2.0803 O.3       1 ATP        -0.7661
      4 O3G         6.2186   -0.9260   -0.7981 O.3       1 ATP        -0.7661
      5 PB          4.9239   -1.9830   -4.5887 P.3       1 ATP         1.6631
      6 O1B         5.5819   -1.0531   -5.5836 O.co2     1 ATP        -0.8211
      7 O2B         5.1519   -3.4772   -4.6444 O.co2     1 ATP        -0.8211
      8 O3B         5.2598   -1.4593   -3.0803 O.3       1 ATP        -0.7954
      9 PA          2.1463   -2.2799   -3.6368 P.3       1 ATP         1.7782
     10 O1A         1.9958   -3.7731   -3.6708 O.2       1 ATP        -0.8134
     11 O2A         0.8287   -1.4640   -4.1009 O.3       1 ATP        -0.8257
     12 O3A         3.3175   -1.6992   -4.5889 O.3       1 ATP        -0.8063
     13 O5'         2.5233   -1.6622   -2.1894 O.3       1 ATP        -0.5763
     14 C5'         2.2816   -0.2918   -1.9206 C.3       1 ATP         0.1790
     15 C4'         2.7248    0.0226   -0.4980 C.3       1 ATP         0.1339
     16 O4'         2.4697    1.4219   -0.2462 O.3       1 ATP        -0.4040
     17 C3'         1.9404   -0.7419    0.5596 C.3       1 ATP         0.0906
     18 O3'         2.7418   -0.8086    1.7389 O.3       1 ATP        -0.5689
     19 C2'         0.7477    0.1630    0.7858 C.3       1 ATP         0.0660
     20 O2'         0.1373   -0.0577    2.0407 O.3       1 ATP        -0.5800
     21 C1'         1.3733    1.5427    0.6747 C.3       1 ATP         0.4216
     22 N9          0.4520    2.5240    0.1767 N.pl3     1 ATP        -0.5455
     23 C8          0.0623    3.6542    0.7479 C.ar      1 ATP         0.2820
     24 N7         -0.8074    4.3516    0.0193 N.pl3     1 ATP        -0.4970
     25 C5         -0.9855    3.6123   -1.0979 C.ar      1 ATP        -0.2773
     26 C6         -1.7474    3.7860   -2.2156 C.ar      1 ATP         0.7637
     27 N6         -2.5511    4.9389   -2.3303 N.pl3     1 ATP        -0.9374
     28 N1         -1.7375    2.8675   -3.2064 N.ar      1 ATP        -0.7408
     29 C2         -0.9330    1.7853   -3.0121 C.ar      1 ATP         0.7215
     30 N3         -0.1423    1.5179   -1.9478 N.ar      1 ATP        -0.6797
     31 C4         -0.2044    2.4690   -1.0113 C.ar      1 ATP         0.6429
     32 HOG2        7.2586   -3.4957   -2.8707 H         1 ATP         0.4781
     33 HOG3        6.8949   -0.8919   -0.0883 H         1 ATP         0.4781
     34 HOA2       -0.0059   -1.5871   -3.6006 H         1 ATP         0.4931
     35 H5'1        2.8428    0.3150   -2.6387 H         1 ATP         0.0438
     36 H5'2        1.2124   -0.0896   -2.0417 H         1 ATP         0.0438
     37 H4'         3.8049   -0.1388   -0.4009 H         1 ATP         0.1278
     38 H3'         1.6783   -1.7629    0.2715 H         1 ATP         0.1161
     39 HO3'        2.2232   -1.2979    2.3953 H         1 ATP         0.4111
     40 H2'        -0.0011    0.0027    0.0003 H         1 ATP         0.0477
     41 HO2'       -0.1563   -0.9855    2.0596 H         1 ATP         0.4259
     42 H1'         1.7826    1.9024    1.6451 H         1 ATP         0.1524
     43 H8          0.4111    3.9873    1.7100 H         1 ATP         0.2610
     44 HN61       -2.5859    5.5874   -1.5698 H         1 ATP         0.4534
     45 HN62       -3.1449    5.0423   -3.1284 H         1 ATP         0.4534
     46 H2         -0.9279    1.0504   -3.8088 H         1 ATP         0.0900
     47 H47        -1.2303    5.2364    0.2633 H         1 ATP         0.5046
@<TRIPOS>BOND
     1    1    2 2
     2    1    3 1
     3    1    4 1
     4    1    8 1
     5    3   32 1
     6    4   33 1
     7    5    6 2
     8    5    7 1
     9    5    8 1
    10    5   12 1
    11    9   10 2
    12    9   11 1
    13    9   12 1
    14    9   13 1
    15   11   34 1
    16   13   14 1
    17   14   15 1
    18   14   35 1
    19   14   36 1
    20   15   16 1
    21   15   17 1
    22   15   37 1
    23   16   21 1
    24   17   18 1
    25   17   19 1
    26   17   38 1
    27   18   39 1
    28   19   20 1
    29   19   21 1
    30   19   40 1
    31   20   41 1
    32   21   22 1
    33   21   42 1
    34   22   23 ar
    35   22   31 ar
    36   23   24 ar
    37   23   43 1
    38   24   25 ar
    39   24   47 1
    40   25   26 ar
    41   25   31 ar
    42   26   27 1
    43   26   28 ar
    44   27   44 1
    45   27   45 1
    46   28   29 ar
    47   29   30 ar
    48   29   46 1
    49   30   31 ar
@<TRIPOS>SUBSTRUCTURE
     1 ATP         1 GROUP 0 A     ****
@<TRIPOS>MOLECULE
[[5-(6-amino-7,8-dihydropurin-8-ylium-9-yl)-3,4-dihydroxy-tetrahydrofuran-2-yl]methoxy-hydroxy-phosphoryl] phosphono phosphate
   47    49     1     0     0
SMALL
USER_CHARGES

@<TRIPOS>ATOM
      1 PG          5.6400    0.8059   -6.8611 P.3       1 ATP         1.7526
      2 O1G         6.5756   -0.0954   -7.6113 O.2       1 ATP        -0.8534
      3 O2G         6.3276    1.7228   -5.7219 O.3       1 ATP        -0.7661
      4 O3G         4.8336    1.8721   -7.7693 O.3       1 ATP        -0.7661
      5 PB          4.5401   -1.0774   -4.8751 P.3       1 ATP         1.6631
      6 O1B         5.1420   -2.3458   -5.4376 O.co2     1 ATP        -0.8211
      7 O2B         5.1084   -0.4241   -3.6350 O.co2     1 ATP        -0.8211
      8 O3B         4.4620    0.0376   -6.0638 O.3       1 ATP        -0.7954
      9 PA          2.1463   -2.2799   -3.6368 P.3       1 ATP         1.7782
     10 O1A         2.4483   -3.7410   -3.8024 O.2       1 ATP        -0.8134
     11 O2A         0.5922   -1.8888   -3.8580 O.3       1 ATP        -0.8257
     12 O3A         2.9399   -1.3083   -4.6574 O.3       1 ATP        -0.8063
     13 O5'         2.5233   -1.6622   -2.1894 O.3       1 ATP        -0.5763
     14 C5'         2.2816   -0.2918   -1.9206 C.3       1 ATP         0.1790
     15 C4'         2.7248    0.0226   -0.4980 C.3       1 ATP         0.1339
     16 O4'         2.4697    1.4219   -0.2462 O.3       1 ATP        -0.4040
     17 C3'         1.9404   -0.7419    0.5596 C.3       1 ATP         0.0906
     18 O3'         2.7418   -0.8086    1.7389 O.3       1 ATP        -0.5689
     19 C2'         0.7477    0.1630    0.7858 C.3       1 ATP         0.0660
     20 O2'         0.1373   -0.0577    2.0407 O.3       1 ATP        -0.5800
     21 C1'         1.3733    1.5427    0.6747 C.3       1 ATP         0.4216
     22 N9          0.4520    2.5240    0.1767 N.pl3     1 ATP        -0.5455
     23 C8          0.0623    3.6542    0.7479 C.ar      1 ATP         0.2820
     24 N7         -0.8074    4.3516    0.0193 N.pl3     1 ATP        -0.4970
     25 C5         -0.9855    3.6123   -1.0979 C.ar      1 ATP        -0.2773
     26 C6         -1.7474    3.7860   -2.2156 C.ar      1 ATP         0.7637
     27 N6         -2.5511    4.9389   -2.3303 N.pl3     1 ATP        -0.9374
     28 N1         -1.7375    2.8675   -3.2064 N.ar      1 ATP        -0.7408
     29 C2         -0.9330    1.7853   -3.0121 C.ar      1 ATP         0.7215
     30 N3         -0.1423    1.5179   -1.9478 N.ar      1 ATP        -0.6797
     31 C4         -0.2044    2.4690   -1.0113 C.ar      1 ATP         0.6429
     32 HOG2        7.0273    2.3589   -5.9825 H         1 ATP         0.4781
     33 HOG3        4.2430    1.5404   -8.4788 H         1 ATP         0.4781
     34 HOA2        0.1748   -2.0769   -4.7254 H         1 ATP         0.4931
     35 H5'1        2.8428    0.3150   -2.6387 H         1 ATP         0.0438
     36 H5'2        1.2124   -0.0896   -2.0417 H         1 ATP         0.0438
     37 H4'         3.8049   -0.1388   -0.4009 H         1 ATP         0.1278
     38 H3'         1.6783   -1.7629    0.2715 H         1 ATP         0.1161
     39 HO3'        3.5554   -1.2733    1.4914 H         1 ATP         0.4111
     40 H2'        -0.0011    0.0027    0.0003 H         1 ATP         0.0477
     41 HO2'       -0.1563   -0.9855    2.0596 H         1 ATP         0.4259
     42 H1'         1.7826    1.9024    1.6451 H         1 ATP         0.1524
     43 H8          0.4111    3.9873    1.7100 H         1 ATP         0.2610
     44 HN61       -2.5859    5.5874   -1.5698 H         1 ATP         0.4534
     45 HN62       -3.1449    5.0423   -3.1284 H         1 ATP         0.4534
     46 H2         -0.9279    1.0504   -3.8088 H         1 ATP         0.0900
     47 H47        -1.2303    5.2364    0.2633 H         1 ATP         0.5046
@<TRIPOS>BOND
     1    1    2 2
     2    1    3 1
     3    1    4 1
     4    1    8 1
     5    3   32 1
     6    4   33 1
     7    5    6 2
     8    5    7 1
     9    5    8 1
    10    5   12 1
    11    9   10 2
    12    9   11 1
    13    9   12 1
    14    9   13 1
    15   11   34 1
    16   13   14 1
    17   14   15 1
    18   14   35 1
    19   14   36 1
    20   15   16 1
    21   15   17 1
    22   15   37 1
    23   16   21 1
    24   17   18 1
    25   17   19 1
    26   17   38 1
    27   18   39 1
    28   19   20 1
    29   19   21 1
    30   19   40 1
    31   20   41 1
    32   21   22 1
    33   21   42 1
    34   22   23 ar
    35   22   31 ar
    36   23   24 ar
    37   23   43 1
    38   24   25 ar
    39   24   47 1
    40   25   26 ar
    41   25   31 ar
    42   26   27 1
    43   26   28 ar
    44   27   44 1
    45   27   45 1
    46   28   29 ar
    47   29   30 ar
    48   29   46 1
    49   30   31 ar
@<TRIPOS>SUBSTRUCTURE
     1 ATP         1 GROUP 0 A     ****
@<TRIPOS>MOLECULE
[[5-(6-amino-7,8-dihydropurin-8-ylium-9-yl)-3,4-dihydroxy-tetrahydrofuran-2-yl]methoxy-hydroxy-phosphoryl] phosphono phosphate
   47    49     1     0     0
SMALL
USER_CHARGES

@<TRIPOS>ATOM
      1 PG          3.7535   -3.5187   -7.9844 P.3       1 ATP         1.7526
      2 O1G         2.5536   -3.6476   -8.8756 O.2       1 ATP        -0.8534
      3 O2G         4.4280   -4.9140   -7.5263 O.3       1 ATP        -0.7661
      4 O3G         4.9906   -2.6876   -8.6095 O.3       1 ATP        -0.7661
      5 PB          2.9340   -1.2493   -6.2876 P.3       1 ATP         1.6631
      6 O1B         3.9852   -0.2614   -6.7420 O.co2     1 ATP        -0.8211
      7 O2B         1.5022   -1.1430   -6.7633 O.co2     1 ATP        -0.8211
      8 O3B         3.4721   -2.7608   -6.5843 O.3       1 ATP        -0.7954
      9 PA          2.1463   -2.2799   -3.6368 P.3       1 ATP         1.7782
     10 O1A         2.4483   -3.7410   -3.8024 O.2       1 ATP        -0.8134
     11 O2A         0.5922   -1.8888   -3.8580 O.3       1 ATP        -0.8257
     12 O3A         2.9399   -1.3083   -4.6574 O.3       1 ATP        -0.8063
     13 O5'         2.5233   -1.6622   -2.1894 O.3       1 ATP        -0.5763
     14 C5'         2.2816   -0.2918   -1.9206 C.3       1 ATP         0.1790
     15 C4'         2.7248    0.0226   -0.4980 C.3       1 ATP         0.1339
     16 O4'         2.4697    1.4219   -0.2462 O.3       1 ATP        -0.4040
     17 C3'         1.9404   -0.7419    0.5596 C.3       1 ATP         0.0906
     18 O3'         2.7418   -0.8086    1.7389 O.3       1 ATP        -0.5689
     19 C2'         0.7477    0.1630    0.7858 C.3       1 ATP         0.0660
     20 O2'         0.1373   -0.0577    2.0407 O.3       1 ATP        -0.5800
     21 C1'         1.3733    1.5427    0.6747 C.3       1 ATP         0.4216
     22 N9          0.4520    2.5240    0.1767 N.pl3     1 ATP        -0.5455
     23 C8          0.0623    3.6542    0.7479 C.ar      1 ATP         0.2820
     24 N7         -0.8074    4.3516    0.0193 N.pl3     1 ATP        -0.4970
     25 C5         -0.9855    3.6123   -1.0979 C.ar      1 ATP        -0.2773
     26 C6         -1.7474    3.7860   -2.2156 C.ar      1 ATP         0.7637
     27 N6         -2.5511    4.9389   -2.3303 N.pl3     1 ATP        -0.9374
     28 N1         -1.7375    2.8675   -3.2064 N.ar      1 ATP        -0.7408
     29 C2         -0.9330    1.7853   -3.0121 C.ar      1 ATP         0.7215
     30 N3         -0.1423    1.5179   -1.9478 N.ar      1 ATP        -0.6797
     31 C4         -0.2044    2.4690   -1.0113 C.ar      1 ATP         0.6429
     32 HOG2        3.8894   -5.5577   -7.0187 H         1 ATP         0.4781
     33 HOG3        4.8507   -1.7521   -8.8692 H         1 ATP         0.4781
     34 HOA2        0.1748   -2.0769   -4.7254 H         1 ATP         0.4931
     35 H5'1        2.8428    0.3150   -2.6387 H         1 ATP         0.0438
     36 H5'2        1.2124   -0.0896   -2.0417 H         1 ATP         0.0438
     37 H4'         3.8049   -0.1388   -0.4009 H         1 ATP         0.1278
     38 H3'         1.6783   -1.7629    0.2715 H         1 ATP         0.1161
     39 HO3'        3.5554   -1.2733    1.4914 H         1 ATP         0.4111
     40 H2'        -0.0011    0.0027    0.0003 H         1 ATP         0.0477
     41 HO2'        0.8082    0.1199    2.7232 H         1 ATP         0.4259
     42 H1'         1.7826    1.9024    1.6451 H         1 ATP         0.1524
     43 H8          0.4111    3.9873    1.7100 H         1 ATP         0.2610
     44 HN61       -2.5859    5.5874   -1.5698 H         1 ATP         0.4534
     45 HN62       -3.1449    5.0423   -3.1284 H         1 ATP         0.4534
     46 H2         -0.9279    1.0504   -3.8088 H         1 ATP         0.0900
     47 H47        -1.2303    5.2364    0.2633 H         1 ATP         0.5046
@<TRIPOS>BOND
     1    1    2 2
     2    1    3 1
     3    1    4 1
     4    1    8 1
     5    3   32 1
     6    4   33 1
     7    5    6 2
     8    5    7 1
     9    5    8 1
    10    5   12 1
    11    9   10 2
    12    9   11 1
    13    9   12 1
    14    9   13 1
    15   11   34 1
    16   13   14 1
    17   14   15 1
    18   14   35 1
    19   14   36 1
    20   15   16 1
    21   15   17 1
    22   15   37 1
    23   16   21 1
    24   17   18 1
    25   17   19 1
    26   17   38 1
    27   18   39 1
    28   19   20 1
    29   19   21 1
    30   19   40 1
    31   20   41 1
    32   21   22 1
    33   21   42 1
    34   22   23 ar
    35   22   31 ar
    36   23   24 ar
    37   23   43 1
    38   24   25 ar
    39   24   47 1
    40   25   26 ar
    41   25   31 ar
    42   26   27 1
    43   26   28 ar
    44   27   44 1
    45   27   45 1
    46   28   29 ar
    47   29   30 ar
    48   29   46 1
    49   30   31 ar
@<TRIPOS>SUBSTRUCTURE
     1 ATP         1 GROUP 0 A     ****
@<TRIPOS>MOLECULE
[[5-(6-amino-7,8-dihydropurin-8-ylium-9-yl)-3,4-dihydroxy-tetrahydrofuran-2-yl]methoxy-hydroxy-phosphoryl] phosphono phosphate
   47    49     1     0     0
SMALL
USER_CHARGES

@<TRIPOS>ATOM
      1 PG          5.1601    4.7975   -4.8845 P.3       1 ATP         1.7526
      2 O1G         4.6055    6.1839   -5.0283 O.2       1 ATP        -0.8534
      3 O2G         6.0238    4.2642   -6.1419 O.3       1 ATP        -0.7661
      4 O3G         6.1493    4.5777   -3.6255 O.3       1 ATP        -0.7661
      5 PB          2.9228    3.4525   -3.5110 P.3       1 ATP         1.6631
      6 O1B         3.6277    3.1603   -2.2052 O.co2     1 ATP        -0.8211
      7 O2B         1.9110    4.5713   -3.6213 O.co2     1 ATP        -0.8211
      8 O3B         4.0444    3.6454   -4.6803 O.3       1 ATP        -0.7954
      9 PA          2.8824    0.6133   -4.3155 P.3       1 ATP         1.7782
     10 O1A         4.0008    0.5891   -5.3166 O.2       1 ATP        -0.8134
     11 O2A         1.6103   -0.3046   -4.7113 O.3       1 ATP        -0.8257
     12 O3A         2.2407    2.0753   -4.0580 O.3       1 ATP        -0.8063
     13 O5'         3.2874    0.1331   -2.8242 O.3       1 ATP        -0.5763
     14 C5'         2.2816   -0.2918   -1.9206 C.3       1 ATP         0.1790
     15 C4'         2.7248    0.0226   -0.4980 C.3       1 ATP         0.1339
     16 O4'         2.4697    1.4219   -0.2462 O.3       1 ATP        -0.4040
     17 C3'         1.9404   -0.7419    0.5596 C.3       1 ATP         0.0906
     18 O3'         2.7418   -0.8086    1.7389 O.3       1 ATP        -0.5689
     19 C2'         0.7477    0.1630    0.7858 C.3       1 ATP         0.0660
     20 O2'         0.1373   -0.0577    2.0407 O.3       1 ATP        -0.5800
     21 C1'         1.3733    1.5427    0.6747 C.3       1 ATP         0.4216
     22 N9          0.4520    2.5240    0.1767 N.pl3     1 ATP        -0.5455
     23 C8          0.0623    3.6542    0.7479 C.ar      1 ATP         0.2820
     24 N7         -0.8074    4.3516    0.0193 N.pl3     1 ATP        -0.4970
     25 C5         -0.9855    3.6123   -1.0979 C.ar      1 ATP        -0.2773
     26 C6         -1.7474    3.7860   -2.2156 C.ar      1 ATP         0.7637
     27 N6         -2.5511    4.9389   -2.3303 N.pl3     1 ATP        -0.9374
     28 N1         -1.7375    2.8675   -3.2064 N.ar      1 ATP        -0.7408
     29 C2         -0.9330    1.7853   -3.0121 C.ar      1 ATP         0.7215
     30 N3         -0.1423    1.5179   -1.9478 N.ar      1 ATP        -0.6797
     31 C4         -0.2044    2.4690   -1.0113 C.ar      1 ATP         0.6429
     32 HOG2        6.8281    4.7579   -6.4092 H         1 ATP         0.4781
     33 HOG3        5.8071    4.7357   -2.7199 H         1 ATP         0.4781
     34 HOA2        1.7413   -1.2688   -4.8338 H         1 ATP         0.4931
     35 H5'1        1.3494    0.2322   -2.1552 H         1 ATP         0.0438
     36 H5'2        2.1260   -1.3686   -2.0435 H         1 ATP         0.0438
     37 H4'         3.8049   -0.1388   -0.4009 H         1 ATP         0.1278
     38 H3'         1.6783   -1.7629    0.2715 H         1 ATP         0.1161
     39 HO3'        2.2232   -1.2979    2.3953 H         1 ATP         0.4111
     40 H2'        -0.0011    0.0027    0.0003 H         1 ATP         0.0477
     41 HO2'       -0.6141    0.5574    2.1082 H         1 ATP         0.4259
     42 H1'         1.7826    1.9024    1.6451 H         1 ATP         0.1524
     43 H8          0.4111    3.9873    1.7100 H         1 ATP         0.2610
     44 HN61       -2.5859    5.5874   -1.5698 H         1 ATP         0.4534
     45 HN62       -3.1449    5.0423   -3.1284 H         1 ATP         0.4534
     46 H2         -0.9279    1.0504   -3.8088 H         1 ATP         0.0900
     47 H47        -1.2303    5.2364    0.2633 H         1 ATP         0.5046
@<TRIPOS>BOND
     1    1    2 2
     2    1    3 1
     3    1    4 1
     4    1    8 1
     5    3   32 1
     6    4   33 1
     7    5    6 2
     8    5    7 1
     9    5    8 1
    10    5   12 1
    11    9   10 2
    12    9   11 1
    13    9   12 1
    14    9   13 1
    15   11   34 1
    16   13   14 1
    17   14   15 1
    18   14   35 1
    19   14   36 1
    20   15   16 1
    21   15   17 1
    22   15   37 1
    23   16   21 1
    24   17   18 1
    25   17   19 1
    26   17   38 1
    27   18   39 1
    28   19   20 1
    29   19   21 1
    30   19   40 1
    31   20   41 1
    32   21   22 1
    33   21   42 1
    34   22   23 ar
    35   22   31 ar
    36   23   24 ar
    37   23   43 1
    38   24   25 ar
    39   24   47 1
    40   25   26 ar
    41   25   31 ar
    42   26   27 1
    43   26   28 ar
    44   27   44 1
    45   27   45 1
    46   28   29 ar
    47   29   30 ar
    48   29   46 1
    49   30   31 ar
@<TRIPOS>SUBSTRUCTURE
     1 ATP         1 GROUP 0 A     ****
@<TRIPOS>MOLECULE
[[5-(6-amino-7,8-dihydropurin-8-ylium-9-yl)-3,4-dihydroxy-tetrahydrofuran-2-yl]methoxy-hydroxy-phosphoryl] phosphono phosphate
   47    49     1     0     0
SMALL
USER_CHARGES

@<TRIPOS>ATOM
      1 PG          4.1154    4.2009   -6.3280 P.3       1 ATP         1.7526
      2 O1G         4.7639    5.0185   -5.2503 O.2       1 ATP        -0.8534
      3 O2G         2.9731    4.9619   -7.1809 O.3       1 ATP        -0.7661
      4 O3G         5.1185    3.6333   -7.4609 O.3       1 ATP        -0.7661
      5 PB          2.1282    2.6950   -4.7518 P.3       1 ATP         1.6631
      6 O1B         2.5960    3.1132   -3.3757 O.co2     1 ATP        -0.8211
      7 O2B         0.8821    3.2897   -5.3693 O.co2     1 ATP        -0.8211
      8 O3B         3.3653    2.8690   -5.8013 O.3       1 ATP        -0.7954
      9 PA          3.0839   -0.0768   -4.4158 P.3       1 ATP         1.7782
     10 O1A         4.3457   -0.0393   -5.2282 O.2       1 ATP        -0.8134
     11 O2A         2.2462   -1.4549   -4.5445 O.3       1 ATP        -0.8257
     12 O3A         2.0063    1.0688   -4.7923 O.3       1 ATP        -0.8063
     13 O5'         3.2874    0.1331   -2.8242 O.3       1 ATP        -0.5763
     14 C5'         2.2816   -0.2918   -1.9206 C.3       1 ATP         0.1790
     15 C4'         2.7248    0.0226   -0.4980 C.3       1 ATP         0.1339
     16 O4'         2.4697    1.4219   -0.2462 O.3       1 ATP        -0.4040
     17 C3'         1.9404   -0.7419    0.5596 C.3       1 ATP         0.0906
     18 O3'         2.7418   -0.8086    1.7389 O.3       1 ATP        -0.5689
     19 C2'         0.7477    0.1630    0.7858 C.3       1 ATP         0.0660
     20 O2'         0.1373   -0.0577    2.0407 O.3       1 ATP        -0.5800
     21 C1'         1.3733    1.5427    0.6747 C.3       1 ATP         0.4216
     22 N9          0.4520    2.5240    0.1767 N.pl3     1 ATP        -0.5455
     23 C8          0.0623    3.6542    0.7479 C.ar      1 ATP         0.2820
     24 N7         -0.8074    4.3516    0.0193 N.pl3     1 ATP        -0.4970
     25 C5         -0.9855    3.6123   -1.0979 C.ar      1 ATP        -0.2773
     26 C6         -1.7474    3.7860   -2.2156 C.ar      1 ATP         0.7637
     27 N6         -2.5511    4.9389   -2.3303 N.pl3     1 ATP        -0.9374
     28 N1         -1.7375    2.8675   -3.2064 N.ar      1 ATP        -0.7408
     29 C2         -0.9330    1.7853   -3.0121 C.ar      1 ATP         0.7215
     30 N3         -0.1423    1.5179   -1.9478 N.ar      1 ATP        -0.6797
     31 C4         -0.2044    2.4690   -1.0113 C.ar      1 ATP         0.6429
     32 HOG2        2.1842    5.3101   -6.7135 H         1 ATP         0.4781
     33 HOG3        5.6372    4.2699   -7.9975 H         1 ATP         0.4781
     34 HOA2        2.6742   -2.2964   -4.2787 H         1 ATP         0.4931
     35 H5'1        1.3494    0.2322   -2.1552 H         1 ATP         0.0438
     36 H5'2        2.1260   -1.3686   -2.0435 H         1 ATP         0.0438
     37 H4'         3.8049   -0.1388   -0.4009 H         1 ATP         0.1278
     38 H3'         1.6783   -1.7629    0.2715 H         1 ATP         0.1161
     39 HO3'        2.2232   -1.2979    2.3953 H         1 ATP         0.4111
     40 H2'        -0.0011    0.0027    0.0003 H         1 ATP         0.0477
     41 HO2'       -0.6141    0.5574    2.1082 H         1 ATP         0.4259
     42 H1'         1.7826    1.9024    1.6451 H         1 ATP         0.1524
     43 H8          0.4111    3.9873    1.7100 H         1 ATP         0.2610
     44 HN61       -2.5859    5.5874   -1.5698 H         1 ATP         0.4534
     45 HN62       -3.1449    5.0423   -3.1284 H         1 ATP         0.4534
     46 H2         -0.9279    1.0504   -3.8088 H         1 ATP         0.0900
     47 H47        -1.2303    5.2364    0.2633 H         1 ATP         0.5046
@<TRIPOS>BOND
     1    1    2 2
     2    1    3 1
     3    1    4 1
     4    1    8 1
     5    3   32 1
     6    4   33 1
     7    5    6 2
     8    5    7 1
     9    5    8 1
    10    5   12 1
    11    9   10 2
    12    9   11 1
    13    9   12 1
    14    9   13 1
    15   11   34 1
    16   13   14 1
    17   14   15 1
    18   14   35 1
    19   14   36 1
    20   15   16 1
    21   15   17 1
    22   15   37 1
    23   16   21 1
    24   17   18 1
    25   17   19 1
    26   17   38 1
    27   18   39 1
    28   19   20 1
    29   19   21 1
    30   19   40 1
    31   20   41 1
    32   21   22 1
    33   21   42 1
    34   22   23 ar
    35   22   31 ar
    36   23   24 ar
    37   23   43 1
    38   24   25 ar
    39   24   47 1
    40   25   26 ar
    41   25   31 ar
    42   26   27 1
    43   26   28 ar
    44   27   44 1
    45   27   45 1
    46   28   29 ar
    47   29   30 ar
    48   29   46 1
    49   30   31 ar
@<TRIPOS>SUBSTRUCTURE
     1 ATP         1 GROUP 0 A     ****
@<TRIPOS>MOLECULE
[[5-(6-amino-7,8-dihydropurin-8-ylium-9-yl)-3,4-dihydroxy-tetrahydrofuran-2-yl]methoxy-hydroxy-phosphoryl] phosphono phosphate
   47    49     1     0     0
SMALL
USER_CHARGES

@<TRIPOS>ATOM
      1 PG         -0.6923    3.5901   -6.5178 P.3       1 ATP         1.7526
      2 O1G        -1.8738    2.8491   -7.0705 O.2       1 ATP        -0.8534
      3 O2G         0.2305    4.3368   -7.6143 O.3       1 ATP        -0.7661
      4 O3G        -1.0453    4.7602   -5.4604 O.3       1 ATP        -0.7661
      5 PB          1.2372    1.3822   -6.1963 P.3       1 ATP         1.6631
      6 O1B         0.2953    0.2387   -6.5003 O.co2     1 ATP        -0.8211
      7 O2B         2.2555    1.8490   -7.2127 O.co2     1 ATP        -0.8211
      8 O3B         0.3599    2.6681   -5.7074 O.3       1 ATP        -0.7954
      9 PA          3.0839   -0.0768   -4.4158 P.3       1 ATP         1.7782
     10 O1A         4.3457   -0.0393   -5.2282 O.2       1 ATP        -0.8134
     11 O2A         2.2462   -1.4549   -4.5445 O.3       1 ATP        -0.8257
     12 O3A         2.0063    1.0688   -4.7923 O.3       1 ATP        -0.8063
     13 O5'         3.2874    0.1331   -2.8242 O.3       1 ATP        -0.5763
     14 C5'         2.2816   -0.2918   -1.9206 C.3       1 ATP         0.1790
     15 C4'         2.7248    0.0226   -0.4980 C.3       1 ATP         0.1339
     16 O4'         2.4697    1.4219   -0.2462 O.3       1 ATP        -0.4040
     17 C3'         1.9404   -0.7419    0.5596 C.3       1 ATP         0.0906
     18 O3'         2.7418   -0.8086    1.7389 O.3       1 ATP        -0.5689
     19 C2'         0.7477    0.1630    0.7858 C.3       1 ATP         0.0660
     20 O2'         0.1373   -0.0577    2.0407 O.3       1 ATP        -0.5800
     21 C1'         1.3733    1.5427    0.6747 C.3       1 ATP         0.4216
     22 N9          0.4520    2.5240    0.1767 N.pl3     1 ATP        -0.5455
     23 C8          0.0623    3.6542    0.7479 C.ar      1 ATP         0.2820
     24 N7         -0.8074    4.3516    0.0193 N.pl3     1 ATP        -0.4970
     25 C5         -0.9855    3.6123   -1.0979 C.ar      1 ATP        -0.2773
     26 C6         -1.7474    3.7860   -2.2156 C.ar      1 ATP         0.7637
     27 N6         -2.5511    4.9389   -2.3303 N.pl3     1 ATP        -0.9374
     28 N1         -1.7375    2.8675   -3.2064 N.ar      1 ATP        -0.7408
     29 C2         -0.9330    1.7853   -3.0121 C.ar      1 ATP         0.7215
     30 N3         -0.1423    1.5179   -1.9478 N.ar      1 ATP        -0.6797
     31 C4         -0.2044    2.4690   -1.0113 C.ar      1 ATP         0.6429
     32 HOG2        0.6594    3.8031   -8.3166 H         1 ATP         0.4781
     33 HOG3       -1.6134    5.5057   -5.7497 H         1 ATP         0.4781
     34 HOA2        1.9180   -1.7296   -5.4270 H         1 ATP         0.4931
     35 H5'1        1.3494    0.2322   -2.1552 H         1 ATP         0.0438
     36 H5'2        2.1260   -1.3686   -2.0435 H         1 ATP         0.0438
     37 H4'         3.8049   -0.1388   -0.4009 H         1 ATP         0.1278
     38 H3'         1.6783   -1.7629    0.2715 H         1 ATP         0.1161
     39 HO3'        2.2232   -1.2979    2.3953 H         1 ATP         0.4111
     40 H2'        -0.0011    0.0027    0.0003 H         1 ATP         0.0477
     41 HO2'       -0.6141    0.5574    2.1082 H         1 ATP         0.4259
     42 H1'         1.7826    1.9024    1.6451 H         1 ATP         0.1524
     43 H8          0.4111    3.9873    1.7100 H         1 ATP         0.2610
     44 HN61       -3.0729    5.0887   -3.1703 H         1 ATP         0.4534
     45 HN62       -2.5136    5.6334   -1.6116 H         1 ATP         0.4534
     46 H2         -0.9279    1.0504   -3.8088 H         1 ATP         0.0900
     47 H47        -1.2303    5.2364    0.2633 H         1 ATP         0.5046
@<TRIPOS>BOND
     1    1    2 2
     2    1    3 1
     3    1    4 1
     4    1    8 1
     5    3   32 1
     6    4   33 1
     7    5    6 2
     8    5    7 1
     9    5    8 1
    10    5   12 1
    11    9   10 2
    12    9   11 1
    13    9   12 1
    14    9   13 1
    15   11   34 1
    16   13   14 1
    17   14   15 1
    18   14   35 1
    19   14   36 1
    20   15   16 1
    21   15   17 1
    22   15   37 1
    23   16   21 1
    24   17   18 1
    25   17   19 1
    26   17   38 1
    27   18   39 1
    28   19   20 1
    29   19   21 1
    30   19   40 1
    31   20   41 1
    32   21   22 1
    33   21   42 1
    34   22   23 ar
    35   22   31 ar
    36   23   24 ar
    37   23   43 1
    38   24   25 ar
    39   24   47 1
    40   25   26 ar
    41   25   31 ar
    42   26   27 1
    43   26   28 ar
    44   27   44 1
    45   27   45 1
    46   28   29 ar
    47   29   30 ar
    48   29   46 1
    49   30   31 ar
@<TRIPOS>SUBSTRUCTURE
     1 ATP         1 GROUP 0 A     ****
@<TRIPOS>MOLECULE
[[5-(6-amino-7,8-dihydropurin-8-ylium-9-yl)-3,4-dihydroxy-tetrahydrofuran-2-yl]methoxy-hydroxy-phosphoryl] phosphono phosphate
   47    49     1     0     0
SMALL
USER_CHARGES

@<TRIPOS>ATOM
      1 PG         -0.0780    4.4952   -5.5219 P.3       1 ATP         1.7526
      2 O1G        -0.1667    5.3645   -4.3026 O.2       1 ATP        -0.8534
      3 O2G        -1.4931    4.1058   -6.1982 O.3       1 ATP        -0.7661
      4 O3G         0.7706    5.1144   -6.7500 O.3       1 ATP        -0.7661
      5 PB          2.1282    2.6950   -4.7518 P.3       1 ATP         1.6631
      6 O1B         3.1278    3.1336   -5.7986 O.co2     1 ATP        -0.8211
      7 O2B         2.2596    3.1352   -3.3107 O.co2     1 ATP        -0.8211
      8 O3B         0.6267    3.0612   -5.2749 O.3       1 ATP        -0.7954
      9 PA          3.0839   -0.0768   -4.4158 P.3       1 ATP         1.7782
     10 O1A         4.3457   -0.0393   -5.2282 O.2       1 ATP        -0.8134
     11 O2A         2.2462   -1.4549   -4.5445 O.3       1 ATP        -0.8257
     12 O3A         2.0063    1.0688   -4.7923 O.3       1 ATP        -0.8063
     13 O5'         3.2874    0.1331   -2.8242 O.3       1 ATP        -0.5763
     14 C5'         2.2816   -0.2918   -1.9206 C.3       1 ATP         0.1790
     15 C4'         2.7248    0.0226   -0.4980 C.3       1 ATP         0.1339
     16 O4'         2.4697    1.4219   -0.2462 O.3       1 ATP        -0.4040
     17 C3'         1.9404   -0.7419    0.5596 C.3       1 ATP         0.0906
     18 O3'         2.7418   -0.8086    1.7389 O.3       1 ATP        -0.5689
     19 C2'         0.7477    0.1630    0.7858 C.3       1 ATP         0.0660
     20 O2'         0.1373   -0.0577    2.0407 O.3       1 ATP        -0.5800
     21 C1'         1.3733    1.5427    0.6747 C.3       1 ATP         0.4216
     22 N9          0.4520    2.5240    0.1767 N.pl3     1 ATP        -0.5455
     23 C8          0.0623    3.6542    0.7479 C.ar      1 ATP         0.2820
     24 N7         -0.8074    4.3516    0.0193 N.pl3     1 ATP        -0.4970
     25 C5         -0.9855    3.6123   -1.0979 C.ar      1 ATP        -0.2773
     26 C6         -1.7474    3.7860   -2.2156 C.ar      1 ATP         0.7637
     27 N6         -2.5511    4.9389   -2.3303 N.pl3     1 ATP        -0.9374
     28 N1         -1.7375    2.8675   -3.2064 N.ar      1 ATP        -0.7408
     29 C2         -0.9330    1.7853   -3.0121 C.ar      1 ATP         0.7215
     30 N3         -0.1423    1.5179   -1.9478 N.ar      1 ATP        -0.6797
     31 C4         -0.2044    2.4690   -1.0113 C.ar      1 ATP         0.6429
     32 HOG2       -2.1534    3.6119   -5.6670 H         1 ATP         0.4781
     33 HOG3        1.7161    5.3349   -6.6100 H         1 ATP         0.4781
     34 HOA2        2.6742   -2.2964   -4.2787 H         1 ATP         0.4931
     35 H5'1        1.3494    0.2322   -2.1552 H         1 ATP         0.0438
     36 H5'2        2.1260   -1.3686   -2.0435 H         1 ATP         0.0438
     37 H4'         3.8049   -0.1388   -0.4009 H         1 ATP         0.1278
     38 H3'         1.6783   -1.7629    0.2715 H         1 ATP         0.1161
     39 HO3'        2.2232   -1.2979    2.3953 H         1 ATP         0.4111
     40 H2'        -0.0011    0.0027    0.0003 H         1 ATP         0.0477
     41 HO2'       -0.1563   -0.9855    2.0596 H         1 ATP         0.4259
     42 H1'         1.7826    1.9024    1.6451 H         1 ATP         0.1524
     43 H8          0.4111    3.9873    1.7100 H         1 ATP         0.2610
     44 HN61       -3.0729    5.0887   -3.1703 H         1 ATP         0.4534
     45 HN62       -2.5136    5.6334   -1.6116 H         1 ATP         0.4534
     46 H2         -0.9279    1.0504   -3.8088 H         1 ATP         0.0900
     47 H47        -1.2303    5.2364    0.2633 H         1 ATP         0.5046
@<TRIPOS>BOND
     1    1    2 2
     2    1    3 1
     3    1    4 1
     4    1    8 1
     5    3   32 1
     6    4   33 1
     7    5    6 2
     8    5    7 1
     9    5    8 1
    10    5   12 1
    11    9   10 2
    12    9   11 1
    13    9   12 1
    14    9   13 1
    15   11   34 1
    16   13   14 1
    17   14   15 1
    18   14   35 1
    19   14   36 1
    20   15   16 1
    21   15   17 1
    22   15   37 1
    23   16   21 1
    24   17   18 1
    25   17   19 1
    26   17   38 1
    27   18   39 1
    28   19   20 1
    29   19   21 1
    30   19   40 1
    31   20   41 1
    32   21   22 1
    33   21   42 1
    34   22   23 ar
    35   22   31 ar
    36   23   24 ar
    37   23   43 1
    38   24   25 ar
    39   24   47 1
    40   25   26 ar
    41   25   31 ar
    42   26   27 1
    43   26   28 ar
    44   27   44 1
    45   27   45 1
    46   28   29 ar
    47   29   30 ar
    48   29   46 1
    49   30   31 ar
@<TRIPOS>SUBSTRUCTURE
     1 ATP         1 GROUP 0 A     ****
@<TRIPOS>MOLECULE
[[5-(6-amino-7,8-dihydropurin-8-ylium-9-yl)-3,4-dihydroxy-tetrahydrofuran-2-yl]methoxy-hydroxy-phosphoryl] phosphono phosphate
   47    49     1     0     0
SMALL
USER_CHARGES

@<TRIPOS>ATOM
      1 PG          2.8385    4.2329   -7.4645 P.3       1 ATP         1.7526
      2 O1G         1.8499    3.8725   -8.5338 O.2       1 ATP        -0.8534
      3 O2G         4.3928    4.1091   -7.8892 O.3       1 ATP        -0.7661
      4 O3G         2.7204    5.7413   -6.8965 O.3       1 ATP        -0.7661
      5 PB          1.5062    3.1079   -5.0853 P.3       1 ATP         1.6631
      6 O1B         1.2433    4.4093   -4.3610 O.co2     1 ATP        -0.8211
      7 O2B         0.3952    2.3716   -5.8004 O.co2     1 ATP        -0.8211
      8 O3B         2.7418    3.3286   -6.1278 O.3       1 ATP        -0.7954
      9 PA          2.8824    0.6133   -4.3155 P.3       1 ATP         1.7782
     10 O1A         4.0008    0.5891   -5.3166 O.2       1 ATP        -0.8134
     11 O2A         1.6103   -0.3046   -4.7113 O.3       1 ATP        -0.8257
     12 O3A         2.2407    2.0753   -4.0580 O.3       1 ATP        -0.8063
     13 O5'         3.2874    0.1331   -2.8242 O.3       1 ATP        -0.5763
     14 C5'         2.2816   -0.2918   -1.9206 C.3       1 ATP         0.1790
     15 C4'         2.7248    0.0226   -0.4980 C.3       1 ATP         0.1339
     16 O4'         2.4697    1.4219   -0.2462 O.3       1 ATP        -0.4040
     17 C3'         1.9404   -0.7419    0.5596 C.3       1 ATP         0.0906
     18 O3'         2.7418   -0.8086    1.7389 O.3       1 ATP        -0.5689
     19 C2'         0.7477    0.1630    0.7858 C.3       1 ATP         0.0660
     20 O2'         0.1373   -0.0577    2.0407 O.3       1 ATP        -0.5800
     21 C1'         1.3733    1.5427    0.6747 C.3       1 ATP         0.4216
     22 N9          0.4520    2.5240    0.1767 N.pl3     1 ATP        -0.5455
     23 C8          0.0623    3.6542    0.7479 C.ar      1 ATP         0.2820
     24 N7         -0.8074    4.3516    0.0193 N.pl3     1 ATP        -0.4970
     25 C5         -0.9855    3.6123   -1.0979 C.ar      1 ATP        -0.2773
     26 C6         -1.7474    3.7860   -2.2156 C.ar      1 ATP         0.7637
     27 N6         -2.5511    4.9389   -2.3303 N.pl3     1 ATP        -0.9374
     28 N1         -1.7375    2.8675   -3.2064 N.ar      1 ATP        -0.7408
     29 C2         -0.9330    1.7853   -3.0121 C.ar      1 ATP         0.7215
     30 N3         -0.1423    1.5179   -1.9478 N.ar      1 ATP        -0.6797
     31 C4         -0.2044    2.4690   -1.0113 C.ar      1 ATP         0.6429
     32 HOG2        4.7391    3.2368   -8.1743 H         1 ATP         0.4781
     33 HOG3        1.8808    6.0260   -6.4768 H         1 ATP         0.4781
     34 HOA2        1.1298   -0.1148   -5.5450 H         1 ATP         0.4931
     35 H5'1        1.3494    0.2322   -2.1552 H         1 ATP         0.0438
     36 H5'2        2.1260   -1.3686   -2.0435 H         1 ATP         0.0438
     37 H4'         3.8049   -0.1388   -0.4009 H         1 ATP         0.1278
     38 H3'         1.6783   -1.7629    0.2715 H         1 ATP         0.1161
     39 HO3'        2.2232   -1.2979    2.3953 H         1 ATP         0.4111
     40 H2'        -0.0011    0.0027    0.0003 H         1 ATP         0.0477
     41 HO2'       -0.1563   -0.9855    2.0596 H         1 ATP         0.4259
     42 H1'         1.7826    1.9024    1.6451 H         1 ATP         0.1524
     43 H8          0.4111    3.9873    1.7100 H         1 ATP         0.2610
     44 HN61       -2.5859    5.5874   -1.5698 H         1 ATP         0.4534
     45 HN62       -3.1449    5.0423   -3.1284 H         1 ATP         0.4534
     46 H2         -0.9279    1.0504   -3.8088 H         1 ATP         0.0900
     47 H47        -1.2303    5.2364    0.2633 H         1 ATP         0.5046
@<TRIPOS>BOND
     1    1    2 2
     2    1    3 1
     3    1    4 1
     4    1    8 1
     5    3   32 1
     6    4   33 1
     7    5    6 2
     8    5    7 1
     9    5    8 1
    10    5   12 1
    11    9   10 2
    12    9   11 1
    13    9   12 1
    14    9   13 1
    15   11   34 1
    16   13   14 1
    17   14   15 1
    18   14   35 1
    19   14   36 1
    20   15   16 1
    21   15   17 1
    22   15   37 1
    23   16   21 1
    24   17   18 1
    25   17   19 1
    26   17   38 1
    27   18   39 1
    28   19   20 1
    29   19   21 1
    30   19   40 1
    31   20   41 1
    32   21   22 1
    33   21   42 1
    34   22   23 ar
    35   22   31 ar
    36   23   24 ar
    37   23   43 1
    38   24   25 ar
    39   24   47 1
    40   25   26 ar
    41   25   31 ar
    42   26   27 1
    43   26   28 ar
    44   27   44 1
    45   27   45 1
    46   28   29 ar
    47   29   30 ar
    48   29   46 1
    49   30   31 ar
@<TRIPOS>SUBSTRUCTURE
     1 ATP         1 GROUP 0 A     ****
@<TRIPOS>MOLECULE
[[5-(6-amino-7,8-dihydropurin-8-ylium-9-yl)-3,4-dihydroxy-tetrahydrofuran-2-yl]methoxy-hydroxy-phosphoryl] phosphono phosphate
   47    49     1     0     0
SMALL
USER_CHARGES

@<TRIPOS>ATOM
      1 PG          2.6553    2.0495   -8.6953 P.3       1 ATP         1.7526
      2 O1G         1.9721    3.3316   -9.0693 O.2       1 ATP        -0.8534
      3 O2G         2.1068    0.7285   -9.4475 O.3       1 ATP        -0.7661
      4 O3G         4.2469    2.0097   -8.9731 O.3       1 ATP        -0.7661
      5 PB          1.2372    1.3822   -6.1963 P.3       1 ATP         1.6631
      6 O1B         0.4615    2.6721   -6.0482 O.co2     1 ATP        -0.8211
      7 O2B         0.5644    0.1145   -6.6736 O.co2     1 ATP        -0.8211
      8 O3B         2.5461    1.6620   -7.1295 O.3       1 ATP        -0.7954
      9 PA          3.0839   -0.0768   -4.4158 P.3       1 ATP         1.7782
     10 O1A         4.3457   -0.0393   -5.2282 O.2       1 ATP        -0.8134
     11 O2A         2.2462   -1.4549   -4.5445 O.3       1 ATP        -0.8257
     12 O3A         2.0063    1.0688   -4.7923 O.3       1 ATP        -0.8063
     13 O5'         3.2874    0.1331   -2.8242 O.3       1 ATP        -0.5763
     14 C5'         2.2816   -0.2918   -1.9206 C.3       1 ATP         0.1790
     15 C4'         2.7248    0.0226   -0.4980 C.3       1 ATP         0.1339
     16 O4'         2.4697    1.4219   -0.2462 O.3       1 ATP        -0.4040
     17 C3'         1.9404   -0.7419    0.5596 C.3       1 ATP         0.0906
     18 O3'         2.7418   -0.8086    1.7389 O.3       1 ATP        -0.5689
     19 C2'         0.7477    0.1630    0.7858 C.3       1 ATP         0.0660
     20 O2'         0.1373   -0.0577    2.0407 O.3       1 ATP        -0.5800
     21 C1'         1.3733    1.5427    0.6747 C.3       1 ATP         0.4216
     22 N9          0.4520    2.5240    0.1767 N.pl3     1 ATP        -0.5455
     23 C8          0.0623    3.6542    0.7479 C.ar      1 ATP         0.2820
     24 N7         -0.8074    4.3516    0.0193 N.pl3     1 ATP        -0.4970
     25 C5         -0.9855    3.6123   -1.0979 C.ar      1 ATP        -0.2773
     26 C6         -1.7474    3.7860   -2.2156 C.ar      1 ATP         0.7637
     27 N6         -2.5511    4.9389   -2.3303 N.pl3     1 ATP        -0.9374
     28 N1         -1.7375    2.8675   -3.2064 N.ar      1 ATP        -0.7408
     29 C2         -0.9330    1.7853   -3.0121 C.ar      1 ATP         0.7215
     30 N3         -0.1423    1.5179   -1.9478 N.ar      1 ATP        -0.6797
     31 C4         -0.2044    2.4690   -1.0113 C.ar      1 ATP         0.6429
     32 HOG2        1.1657    0.4753   -9.3368 H         1 ATP         0.4781
     33 HOG3        4.5717    2.1325   -9.8905 H         1 ATP         0.4781
     34 HOA2        1.9180   -1.7296   -5.4270 H         1 ATP         0.4931
     35 H5'1        1.3494    0.2322   -2.1552 H         1 ATP         0.0438
     36 H5'2        2.1260   -1.3686   -2.0435 H         1 ATP         0.0438
     37 H4'         3.8049   -0.1388   -0.4009 H         1 ATP         0.1278
     38 H3'         1.6783   -1.7629    0.2715 H         1 ATP         0.1161
     39 HO3'        2.2232   -1.2979    2.3953 H         1 ATP         0.4111
     40 H2'        -0.0011    0.0027    0.0003 H         1 ATP         0.0477
     41 HO2'       -0.6141    0.5574    2.1082 H         1 ATP         0.4259
     42 H1'         1.7826    1.9024    1.6451 H         1 ATP         0.1524
     43 H8          0.4111    3.9873    1.7100 H         1 ATP         0.2610
     44 HN61       -2.5859    5.5874   -1.5698 H         1 ATP         0.4534
     45 HN62       -3.1449    5.0423   -3.1284 H         1 ATP         0.4534
     46 H2         -0.9279    1.0504   -3.8088 H         1 ATP         0.0900
     47 H47        -1.2303    5.2364    0.2633 H         1 ATP         0.5046
@<TRIPOS>BOND
     1    1    2 2
     2    1    3 1
     3    1    4 1
     4    1    8 1
     5    3   32 1
     6    4   33 1
     7    5    6 2
     8    5    7 1
     9    5    8 1
    10    5   12 1
    11    9   10 2
    12    9   11 1
    13    9   12 1
    14    9   13 1
    15   11   34 1
    16   13   14 1
    17   14   15 1
    18   14   35 1
    19   14   36 1
    20   15   16 1
    21   15   17 1
    22   15   37 1
    23   16   21 1
    24   17   18 1
    25   17   19 1
    26   17   38 1
    27   18   39 1
    28   19   20 1
    29   19   21 1
    30   19   40 1
    31   20   41 1
    32   21   22 1
    33   21   42 1
    34   22   23 ar
    35   22   31 ar
    36   23   24 ar
    37   23   43 1
    38   24   25 ar
    39   24   47 1
    40   25   26 ar
    41   25   31 ar
    42   26   27 1
    43   26   28 ar
    44   27   44 1
    45   27   45 1
    46   28   29 ar
    47   29   30 ar
    48   29   46 1
    49   30   31 ar
@<TRIPOS>SUBSTRUCTURE
     1 ATP         1 GROUP 0 A     ****
@<TRIPOS>MOLECULE
[[5-(6-amino-7,8-dihydropurin-8-ylium-9-yl)-3,4-dihydroxy-tetrahydrofuran-2-yl]methoxy-hydroxy-phosphoryl] phosphono phosphate
   47    49     1     0     0
SMALL
USER_CHARGES

@<TRIPOS>ATOM
      1 PG         -0.5292   -0.5645   -7.5346 P.3       1 ATP         1.7526
      2 O1G         0.0762   -0.5925   -8.9068 O.2       1 ATP        -0.8534
      3 O2G        -1.8260    0.3856   -7.3699 O.3       1 ATP        -0.7661
      4 O3G        -1.0339   -1.9940   -6.9743 O.3       1 ATP        -0.7661
      5 PB          1.2372    1.3822   -6.1963 P.3       1 ATP         1.6631
      6 O1B         2.2675    1.5160   -7.2954 O.co2     1 ATP        -0.8211
      7 O2B         0.2067    2.4624   -5.9536 O.co2     1 ATP        -0.8211
      8 O3B         0.4664   -0.0451   -6.3714 O.3       1 ATP        -0.7954
      9 PA          3.0839   -0.0768   -4.4158 P.3       1 ATP         1.7782
     10 O1A         4.3457   -0.0393   -5.2282 O.2       1 ATP        -0.8134
     11 O2A         2.2462   -1.4549   -4.5445 O.3       1 ATP        -0.8257
     12 O3A         2.0063    1.0688   -4.7923 O.3       1 ATP        -0.8063
     13 O5'         3.2874    0.1331   -2.8242 O.3       1 ATP        -0.5763
     14 C5'         2.2816   -0.2918   -1.9206 C.3       1 ATP         0.1790
     15 C4'         2.7248    0.0226   -0.4980 C.3       1 ATP         0.1339
     16 O4'         2.4697    1.4219   -0.2462 O.3       1 ATP        -0.4040
     17 C3'         1.9404   -0.7419    0.5596 C.3       1 ATP         0.0906
     18 O3'         2.7418   -0.8086    1.7389 O.3       1 ATP        -0.5689
     19 C2'         0.7477    0.1630    0.7858 C.3       1 ATP         0.0660
     20 O2'         0.1373   -0.0577    2.0407 O.3       1 ATP        -0.5800
     21 C1'         1.3733    1.5427    0.6747 C.3       1 ATP         0.4216
     22 N9          0.4520    2.5240    0.1767 N.pl3     1 ATP        -0.5455
     23 C8          0.0623    3.6542    0.7479 C.ar      1 ATP         0.2820
     24 N7         -0.8074    4.3516    0.0193 N.pl3     1 ATP        -0.4970
     25 C5         -0.9855    3.6123   -1.0979 C.ar      1 ATP        -0.2773
     26 C6         -1.7474    3.7860   -2.2156 C.ar      1 ATP         0.7637
     27 N6         -2.5511    4.9389   -2.3303 N.pl3     1 ATP        -0.9374
     28 N1         -1.7375    2.8675   -3.2064 N.ar      1 ATP        -0.7408
     29 C2         -0.9330    1.7853   -3.0121 C.ar      1 ATP         0.7215
     30 N3         -0.1423    1.5179   -1.9478 N.ar      1 ATP        -0.6797
     31 C4         -0.2044    2.4690   -1.0113 C.ar      1 ATP         0.6429
     32 HOG2       -1.7378    1.3453   -7.5523 H         1 ATP         0.4781
     33 HOG3       -1.7242   -2.4819   -7.4720 H         1 ATP         0.4781
     34 HOA2        1.9180   -1.7296   -5.4270 H         1 ATP         0.4931
     35 H5'1        1.3494    0.2322   -2.1552 H         1 ATP         0.0438
     36 H5'2        2.1260   -1.3686   -2.0435 H         1 ATP         0.0438
     37 H4'         3.8049   -0.1388   -0.4009 H         1 ATP         0.1278
     38 H3'         1.6783   -1.7629    0.2715 H         1 ATP         0.1161
     39 HO3'        2.2232   -1.2979    2.3953 H         1 ATP         0.4111
     40 H2'        -0.0011    0.0027    0.0003 H         1 ATP         0.0477
     41 HO2'       -0.6141    0.5574    2.1082 H         1 ATP         0.4259
     42 H1'         1.7826    1.9024    1.6451 H         1 ATP         0.1524
     43 H8          0.4111    3.9873    1.7100 H         1 ATP         0.2610
     44 HN61       -2.5859    5.5874   -1.5698 H         1 ATP         0.4534
     45 HN62       -3.1449    5.0423   -3.1284 H         1 ATP         0.4534
     46 H2         -0.9279    1.0504   -3.8088 H         1 ATP         0.0900
     47 H47        -1.2303    5.2364    0.2633 H         1 ATP         0.5046
@<TRIPOS>BOND
     1    1    2 2
     2    1    3 1
     3    1    4 1
     4    1    8 1
     5    3   32 1
     6    4   33 1
     7    5    6 2
     8    5    7 1
     9    5    8 1
    10    5   12 1
    11    9   10 2
    12    9   11 1
    13    9   12 1
    14    9   13 1
    15   11   34 1
    16   13   14 1
    17   14   15 1
    18   14   35 1
    19   14   36 1
    20   15   16 1
    21   15   17 1
    22   15   37 1
    23   16   21 1
    24   17   18 1
    25   17   19 1
    26   17   38 1
    27   18   39 1
    28   19   20 1
    29   19   21 1
    30   19   40 1
    31   20   41 1
    32   21   22 1
    33   21   42 1
    34   22   23 ar
    35   22   31 ar
    36   23   24 ar
    37   23   43 1
    38   24   25 ar
    39   24   47 1
    40   25   26 ar
    41   25   31 ar
    42   26   27 1
    43   26   28 ar
    44   27   44 1
    45   27   45 1
    46   28   29 ar
    47   29   30 ar
    48   29   46 1
    49   30   31 ar
@<TRIPOS>SUBSTRUCTURE
     1 ATP         1 GROUP 0 A     ****
@<TRIPOS>MOLECULE
[[5-(6-amino-7,8-dihydropurin-8-ylium-9-yl)-3,4-dihydroxy-tetrahydrofuran-2-yl]methoxy-hydroxy-phosphoryl] phosphono phosphate
   47    49     1     0     0
SMALL
USER_CHARGES

@<TRIPOS>ATOM
      1 PG         -0.0780    4.4952   -5.5219 P.3       1 ATP         1.7526
      2 O1G        -0.1667    5.3645   -4.3026 O.2       1 ATP        -0.8534
      3 O2G        -1.4931    4.1058   -6.1982 O.3       1 ATP        -0.7661
      4 O3G         0.7706    5.1144   -6.7500 O.3       1 ATP        -0.7661
      5 PB          2.1282    2.6950   -4.7518 P.3       1 ATP         1.6631
      6 O1B         3.1278    3.1336   -5.7986 O.co2     1 ATP        -0.8211
      7 O2B         2.2596    3.1352   -3.3107 O.co2     1 ATP        -0.8211
      8 O3B         0.6267    3.0612   -5.2749 O.3       1 ATP        -0.7954
      9 PA          3.0839   -0.0768   -4.4158 P.3       1 ATP         1.7782
     10 O1A         4.3457   -0.0393   -5.2282 O.2       1 ATP        -0.8134
     11 O2A         2.2462   -1.4549   -4.5445 O.3       1 ATP        -0.8257
     12 O3A         2.0063    1.0688   -4.7923 O.3       1 ATP        -0.8063
     13 O5'         3.2874    0.1331   -2.8242 O.3       1 ATP        -0.5763
     14 C5'         2.2816   -0.2918   -1.9206 C.3       1 ATP         0.1790
     15 C4'         2.7248    0.0226   -0.4980 C.3       1 ATP         0.1339
     16 O4'         2.4697    1.4219   -0.2462 O.3       1 ATP        -0.4040
     17 C3'         1.9404   -0.7419    0.5596 C.3       1 ATP         0.0906
     18 O3'         2.7418   -0.8086    1.7389 O.3       1 ATP        -0.5689
     19 C2'         0.7477    0.1630    0.7858 C.3       1 ATP         0.0660
     20 O2'         0.1373   -0.0577    2.0407 O.3       1 ATP        -0.5800
     21 C1'         1.3733    1.5427    0.6747 C.3       1 ATP         0.4216
     22 N9          0.4520    2.5240    0.1767 N.pl3     1 ATP        -0.5455
     23 C8          0.5305    3.2394   -0.9358 C.ar      1 ATP         0.2820
     24 N7         -0.4966    4.0680   -1.1145 N.pl3     1 ATP        -0.4970
     25 C5         -1.2879    3.8664   -0.0375 C.ar      1 ATP        -0.2773
     26 C6         -2.4754    4.4084    0.3577 C.ar      1 ATP         0.7637
     27 N6         -3.0892    5.3882   -0.4495 N.pl3     1 ATP        -0.9374
     28 N1         -3.0632    4.0158    1.5092 N.ar      1 ATP        -0.7408
     29 C2         -2.4008    3.0654    2.2262 C.ar      1 ATP         0.7215
     30 N3         -1.2259    2.4663    1.9260 N.ar      1 ATP        -0.6797
     31 C4         -0.7062    2.9047    0.7757 C.ar      1 ATP         0.6429
     32 HOG2       -2.0766    4.8233   -6.5251 H         1 ATP         0.4781
     33 HOG3        1.7161    5.3349   -6.6100 H         1 ATP         0.4781
     34 HOA2        2.6742   -2.2964   -4.2787 H         1 ATP         0.4931
     35 H5'1        1.3494    0.2322   -2.1552 H         1 ATP         0.0438
     36 H5'2        2.1260   -1.3686   -2.0435 H         1 ATP         0.0438
     37 H4'         3.8049   -0.1388   -0.4009 H         1 ATP         0.1278
     38 H3'         1.6783   -1.7629    0.2715 H         1 ATP         0.1161
     39 HO3'        2.2232   -1.2979    2.3953 H         1 ATP         0.4111
     40 H2'        -0.0011    0.0027    0.0003 H         1 ATP         0.0477
     41 HO2'       -0.1563   -0.9855    2.0596 H         1 ATP         0.4259
     42 H1'         1.7826    1.9024    1.6451 H         1 ATP         0.1524
     43 H8          1.3437    3.1645   -1.6367 H         1 ATP         0.2610
     44 HN61       -2.6210    5.7042   -1.2748 H         1 ATP         0.4534
     45 HN62       -3.9356    5.8187   -0.1356 H         1 ATP         0.4534
     46 H2         -2.8752    2.7532    3.1495 H         1 ATP         0.0900
     47 H47        -0.6372    4.7004   -1.8900 H         1 ATP         0.5046
@<TRIPOS>BOND
     1    1    2 2
     2    1    3 1
     3    1    4 1
     4    1    8 1
     5    3   32 1
     6    4   33 1
     7    5    6 2
     8    5    7 1
     9    5    8 1
    10    5   12 1
    11    9   10 2
    12    9   11 1
    13    9   12 1
    14    9   13 1
    15   11   34 1
    16   13   14 1
    17   14   15 1
    18   14   35 1
    19   14   36 1
    20   15   16 1
    21   15   17 1
    22   15   37 1
    23   16   21 1
    24   17   18 1
    25   17   19 1
    26   17   38 1
    27   18   39 1
    28   19   20 1
    29   19   21 1
    30   19   40 1
    31   20   41 1
    32   21   22 1
    33   21   42 1
    34   22   23 ar
    35   22   31 ar
    36   23   24 ar
    37   23   43 1
    38   24   25 ar
    39   24   47 1
    40   25   26 ar
    41   25   31 ar
    42   26   27 1
    43   26   28 ar
    44   27   44 1
    45   27   45 1
    46   28   29 ar
    47   29   30 ar
    48   29   46 1
    49   30   31 ar
@<TRIPOS>SUBSTRUCTURE
     1 ATP         1 GROUP 0 A     ****
@<TRIPOS>MOLECULE
[[5-(6-amino-7,8-dihydropurin-8-ylium-9-yl)-3,4-dihydroxy-tetrahydrofuran-2-yl]methoxy-hydroxy-phosphoryl] phosphono phosphate
   47    49     1     0     0
SMALL
USER_CHARGES

@<TRIPOS>ATOM
      1 PG          0.4430    5.7290   -4.2482 P.3       1 ATP         1.7526
      2 O1G        -0.9666    5.6315   -4.7520 O.2       1 ATP        -0.8534
      3 O2G         1.4659    6.5339   -5.2059 O.3       1 ATP        -0.7661
      4 O3G         0.6143    6.4566   -2.8153 O.3       1 ATP        -0.7661
      5 PB          1.5062    3.1079   -5.0853 P.3       1 ATP         1.6631
      6 O1B         0.2026    2.4928   -5.5433 O.co2     1 ATP        -0.8211
      7 O2B         2.5281    3.6089   -6.0816 O.co2     1 ATP        -0.8211
      8 O3B         1.1775    4.3057   -4.0273 O.3       1 ATP        -0.7954
      9 PA          2.8824    0.6133   -4.3155 P.3       1 ATP         1.7782
     10 O1A         4.0008    0.5891   -5.3166 O.2       1 ATP        -0.8134
     11 O2A         1.6103   -0.3046   -4.7113 O.3       1 ATP        -0.8257
     12 O3A         2.2407    2.0753   -4.0580 O.3       1 ATP        -0.8063
     13 O5'         3.2874    0.1331   -2.8242 O.3       1 ATP        -0.5763
     14 C5'         2.2816   -0.2918   -1.9206 C.3       1 ATP         0.1790
     15 C4'         2.7248    0.0226   -0.4980 C.3       1 ATP         0.1339
     16 O4'         2.4697    1.4219   -0.2462 O.3       1 ATP        -0.4040
     17 C3'         1.9404   -0.7419    0.5596 C.3       1 ATP         0.0906
     18 O3'         2.7418   -0.8086    1.7389 O.3       1 ATP        -0.5689
     19 C2'         0.7477    0.1630    0.7858 C.3       1 ATP         0.0660
     20 O2'         0.1373   -0.0577    2.0407 O.3       1 ATP        -0.5800
     21 C1'         1.3733    1.5427    0.6747 C.3       1 ATP         0.4216
     22 N9          0.4520    2.5240    0.1767 N.pl3     1 ATP        -0.5455
     23 C8          0.0623    3.6542    0.7479 C.ar      1 ATP         0.2820
     24 N7         -0.8074    4.3516    0.0193 N.pl3     1 ATP        -0.4970
     25 C5         -0.9855    3.6123   -1.0979 C.ar      1 ATP        -0.2773
     26 C6         -1.7474    3.7860   -2.2156 C.ar      1 ATP         0.7637
     27 N6         -2.5511    4.9389   -2.3303 N.pl3     1 ATP        -0.9374
     28 N1         -1.7375    2.8675   -3.2064 N.ar      1 ATP        -0.7408
     29 C2         -0.9330    1.7853   -3.0121 C.ar      1 ATP         0.7215
     30 N3         -0.1423    1.5179   -1.9478 N.ar      1 ATP        -0.6797
     31 C4         -0.2044    2.4690   -1.0113 C.ar      1 ATP         0.6429
     32 HOG2        1.6182    6.2080   -6.1184 H         1 ATP         0.4781
     33 HOG3        0.1632    6.0749   -2.0323 H         1 ATP         0.4781
     34 HOA2        1.1298   -0.1148   -5.5450 H         1 ATP         0.4931
     35 H5'1        1.3494    0.2322   -2.1552 H         1 ATP         0.0438
     36 H5'2        2.1260   -1.3686   -2.0435 H         1 ATP         0.0438
     37 H4'         3.8049   -0.1388   -0.4009 H         1 ATP         0.1278
     38 H3'         1.6783   -1.7629    0.2715 H         1 ATP         0.1161
     39 HO3'        2.2232   -1.2979    2.3953 H         1 ATP         0.4111
     40 H2'        -0.0011    0.0027    0.0003 H         1 ATP         0.0477
     41 HO2'       -0.6141    0.5574    2.1082 H         1 ATP         0.4259
     42 H1'         1.7826    1.9024    1.6451 H         1 ATP         0.1524
     43 H8          0.4111    3.9873    1.7100 H         1 ATP         0.2610
     44 HN61       -3.0729    5.0887   -3.1703 H         1 ATP         0.4534
     45 HN62       -2.5136    5.6334   -1.6116 H         1 ATP         0.4534
     46 H2         -0.9279    1.0504   -3.8088 H         1 ATP         0.0900
     47 H47        -1.2303    5.2364    0.2633 H         1 ATP         0.5046
@<TRIPOS>BOND
     1    1    2 2
     2    1    3 1
     3    1    4 1
     4    1    8 1
     5    3   32 1
     6    4   33 1
     7    5    6 2
     8    5    7 1
     9    5    8 1
    10    5   12 1
    11    9   10 2
    12    9   11 1
    13    9   12 1
    14    9   13 1
    15   11   34 1
    16   13   14 1
    17   14   15 1
    18   14   35 1
    19   14   36 1
    20   15   16 1
    21   15   17 1
    22   15   37 1
    23   16   21 1
    24   17   18 1
    25   17   19 1
    26   17   38 1
    27   18   39 1
    28   19   20 1
    29   19   21 1
    30   19   40 1
    31   20   41 1
    32   21   22 1
    33   21   42 1
    34   22   23 ar
    35   22   31 ar
    36   23   24 ar
    37   23   43 1
    38   24   25 ar
    39   24   47 1
    40   25   26 ar
    41   25   31 ar
    42   26   27 1
    43   26   28 ar
    44   27   44 1
    45   27   45 1
    46   28   29 ar
    47   29   30 ar
    48   29   46 1
    49   30   31 ar
@<TRIPOS>SUBSTRUCTURE
     1 ATP         1 GROUP 0 A     ****
@<TRIPOS>MOLECULE
[[5-(6-amino-7,8-dihydropurin-8-ylium-9-yl)-3,4-dihydroxy-tetrahydrofuran-2-yl]methoxy-hydroxy-phosphoryl] phosphono phosphate
   47    49     1     0     0
SMALL
USER_CHARGES

@<TRIPOS>ATOM
      1 PG         -0.9384    2.4204   -6.5861 P.3       1 ATP         1.7526
      2 O1G        -1.8281    3.5682   -6.2101 O.2       1 ATP        -0.8534
      3 O2G        -1.6709    0.9841   -6.6952 O.3       1 ATP        -0.7661
      4 O3G        -0.1844    2.5694   -8.0079 O.3       1 ATP        -0.7661
      5 PB          1.5062    3.1079   -5.0853 P.3       1 ATP         1.6631
      6 O1B         2.4163    3.3445   -6.2699 O.co2     1 ATP        -0.8211
      7 O2B         0.9410    4.2632   -4.2893 O.co2     1 ATP        -0.8211
      8 O3B         0.2753    2.1449   -5.5541 O.3       1 ATP        -0.7954
      9 PA          2.8824    0.6133   -4.3155 P.3       1 ATP         1.7782
     10 O1A         4.0008    0.5891   -5.3166 O.2       1 ATP        -0.8134
     11 O2A         1.6103   -0.3046   -4.7113 O.3       1 ATP        -0.8257
     12 O3A         2.2407    2.0753   -4.0580 O.3       1 ATP        -0.8063
     13 O5'         3.2874    0.1331   -2.8242 O.3       1 ATP        -0.5763
     14 C5'         2.2816   -0.2918   -1.9206 C.3       1 ATP         0.1790
     15 C4'         2.7248    0.0226   -0.4980 C.3       1 ATP         0.1339
     16 O4'         2.4697    1.4219   -0.2462 O.3       1 ATP        -0.4040
     17 C3'         1.9404   -0.7419    0.5596 C.3       1 ATP         0.0906
     18 O3'         2.7418   -0.8086    1.7389 O.3       1 ATP        -0.5689
     19 C2'         0.7477    0.1630    0.7858 C.3       1 ATP         0.0660
     20 O2'         0.1373   -0.0577    2.0407 O.3       1 ATP        -0.5800
     21 C1'         1.3733    1.5427    0.6747 C.3       1 ATP         0.4216
     22 N9          0.4520    2.5240    0.1767 N.pl3     1 ATP        -0.5455
     23 C8          0.0623    3.6542    0.7479 C.ar      1 ATP         0.2820
     24 N7         -0.8074    4.3516    0.0193 N.pl3     1 ATP        -0.4970
     25 C5         -0.9855    3.6123   -1.0979 C.ar      1 ATP        -0.2773
     26 C6         -1.7474    3.7860   -2.2156 C.ar      1 ATP         0.7637
     27 N6         -2.5511    4.9389   -2.3303 N.pl3     1 ATP        -0.9374
     28 N1         -1.7375    2.8675   -3.2064 N.ar      1 ATP        -0.7408
     29 C2         -0.9330    1.7853   -3.0121 C.ar      1 ATP         0.7215
     30 N3         -0.1423    1.5179   -1.9478 N.ar      1 ATP        -0.6797
     31 C4         -0.2044    2.4690   -1.0113 C.ar      1 ATP         0.6429
     32 HOG2       -2.1192    0.6183   -5.9031 H         1 ATP         0.4781
     33 HOG3        0.4222    3.3278   -8.1461 H         1 ATP         0.4781
     34 HOA2        1.1298   -0.1148   -5.5450 H         1 ATP         0.4931
     35 H5'1        1.3494    0.2322   -2.1552 H         1 ATP         0.0438
     36 H5'2        2.1260   -1.3686   -2.0435 H         1 ATP         0.0438
     37 H4'         3.8049   -0.1388   -0.4009 H         1 ATP         0.1278
     38 H3'         1.6783   -1.7629    0.2715 H         1 ATP         0.1161
     39 HO3'        2.2232   -1.2979    2.3953 H         1 ATP         0.4111
     40 H2'        -0.0011    0.0027    0.0003 H         1 ATP         0.0477
     41 HO2'       -0.6141    0.5574    2.1082 H         1 ATP         0.4259
     42 H1'         1.7826    1.9024    1.6451 H         1 ATP         0.1524
     43 H8          0.4111    3.9873    1.7100 H         1 ATP         0.2610
     44 HN61       -3.0729    5.0887   -3.1703 H         1 ATP         0.4534
     45 HN62       -2.5136    5.6334   -1.6116 H         1 ATP         0.4534
     46 H2         -0.9279    1.0504   -3.8088 H         1 ATP         0.0900
     47 H47        -1.2303    5.2364    0.2633 H         1 ATP         0.5046
@<TRIPOS>BOND
     1    1    2 2
     2    1    3 1
     3    1    4 1
     4    1    8 1
     5    3   32 1
     6    4   33 1
     7    5    6 2
     8    5    7 1
     9    5    8 1
    10    5   12 1
    11    9   10 2
    12    9   11 1
    13    9   12 1
    14    9   13 1
    15   11   34 1
    16   13   14 1
    17   14   15 1
    18   14   35 1
    19   14   36 1
    20   15   16 1
    21   15   17 1
    22   15   37 1
    23   16   21 1
    24   17   18 1
    25   17   19 1
    26   17   38 1
    27   18   39 1
    28   19   20 1
    29   19   21 1
    30   19   40 1
    31   20   41 1
    32   21   22 1
    33   21   42 1
    34   22   23 ar
    35   22   31 ar
    36   23   24 ar
    37   23   43 1
    38   24   25 ar
    39   24   47 1
    40   25   26 ar
    41   25   31 ar
    42   26   27 1
    43   26   28 ar
    44   27   44 1
    45   27   45 1
    46   28   29 ar
    47   29   30 ar
    48   29   46 1
    49   30   31 ar
@<TRIPOS>SUBSTRUCTURE
     1 ATP         1 GROUP 0 A     ****
@<TRIPOS>MOLECULE
[[5-(6-amino-7,8-dihydropurin-8-ylium-9-yl)-3,4-dihydroxy-tetrahydrofuran-2-yl]methoxy-hydroxy-phosphoryl] phosphono phosphate
   47    49     1     0     0
SMALL
USER_CHARGES

@<TRIPOS>ATOM
      1 PG         -2.6435    3.5140   -3.4252 P.3       1 ATP         1.7526
      2 O1G        -2.6731    4.8258   -4.1524 O.2       1 ATP        -0.8534
      3 O2G        -3.0469    3.5805   -1.8618 O.3       1 ATP        -0.7661
      4 O3G        -3.6220    2.3736   -4.0203 O.3       1 ATP        -0.7661
      5 PB         -0.2612    2.2685   -4.6393 P.3       1 ATP         1.6631
      6 O1B        -0.9590    1.1192   -5.3317 O.co2     1 ATP        -0.8211
      7 O2B         0.2263    3.4710   -5.4166 O.co2     1 ATP        -0.8211
      8 O3B        -1.1995    2.7871   -3.4094 O.3       1 ATP        -0.7954
      9 PA          2.3549    0.9657   -4.2291 P.3       1 ATP         1.7782
     10 O1A         3.2319    1.8157   -5.1020 O.2       1 ATP        -0.8134
     11 O2A         1.8647   -0.4148   -4.9154 O.3       1 ATP        -0.8257
     12 O3A         0.9794    1.6761   -3.7612 O.3       1 ATP        -0.8063
     13 O5'         3.0190    0.5130   -2.8246 O.3       1 ATP        -0.5763
     14 C5'         2.2816   -0.2918   -1.9206 C.3       1 ATP         0.1790
     15 C4'         2.7248    0.0226   -0.4980 C.3       1 ATP         0.1339
     16 O4'         2.4697    1.4219   -0.2462 O.3       1 ATP        -0.4040
     17 C3'         1.9404   -0.7419    0.5596 C.3       1 ATP         0.0906
     18 O3'         2.7418   -0.8086    1.7389 O.3       1 ATP        -0.5689
     19 C2'         0.7477    0.1630    0.7858 C.3       1 ATP         0.0660
     20 O2'         0.1373   -0.0577    2.0407 O.3       1 ATP        -0.5800
     21 C1'         1.3733    1.5427    0.6747 C.3       1 ATP         0.4216
     22 N9          0.4520    2.5240    0.1767 N.pl3     1 ATP        -0.5455
     23 C8         -0.8602    2.5861    0.3496 C.ar      1 ATP         0.2820
     24 N7         -1.4308    3.6326   -0.2443 N.pl3     1 ATP        -0.4970
     25 C5         -0.4080    4.2856   -0.8394 C.ar      1 ATP        -0.2773
     26 C6         -0.3432    5.4196   -1.5943 C.ar      1 ATP         0.7637
     27 N6         -1.5276    6.1333   -1.8702 N.pl3     1 ATP        -0.9374
     28 N1          0.8395    5.8603   -2.0764 N.ar      1 ATP        -0.7408
     29 C2          1.9319    5.1095   -1.7617 C.ar      1 ATP         0.7215
     30 N3          1.9773    3.9761   -1.0249 N.ar      1 ATP        -0.6797
     31 C4          0.7724    3.6031   -0.5836 C.ar      1 ATP         0.6429
     32 HOG2       -3.9377    3.9084   -1.6147 H         1 ATP         0.4781
     33 HOG3       -3.4954    2.0756   -4.9462 H         1 ATP         0.4781
     34 HOA2        1.3360   -0.3725   -5.7405 H         1 ATP         0.4931
     35 H5'1        1.2149   -0.0786   -2.0446 H         1 ATP         0.0438
     36 H5'2        2.4640   -1.3459   -2.1539 H         1 ATP         0.0438
     37 H4'         3.8049   -0.1388   -0.4009 H         1 ATP         0.1278
     38 H3'         1.6783   -1.7629    0.2715 H         1 ATP         0.1161
     39 HO3'        2.2232   -1.2979    2.3953 H         1 ATP         0.4111
     40 H2'        -0.0011    0.0027    0.0003 H         1 ATP         0.0477
     41 HO2'       -0.1563   -0.9855    2.0596 H         1 ATP         0.4259
     42 H1'         1.7826    1.9024    1.6451 H         1 ATP         0.1524
     43 H8         -1.4217    1.8638    0.9164 H         1 ATP         0.2610
     44 HN61       -2.4023    5.7711   -1.5477 H         1 ATP         0.4534
     45 HN62       -1.4857    6.9379   -2.4627 H         1 ATP         0.4534
     46 H2          2.8789    5.4660   -2.1503 H         1 ATP         0.0900
     47 H47        -2.4129    3.8706   -0.2402 H         1 ATP         0.5046
@<TRIPOS>BOND
     1    1    2 2
     2    1    3 1
     3    1    4 1
     4    1    8 1
     5    3   32 1
     6    4   33 1
     7    5    6 2
     8    5    7 1
     9    5    8 1
    10    5   12 1
    11    9   10 2
    12    9   11 1
    13    9   12 1
    14    9   13 1
    15   11   34 1
    16   13   14 1
    17   14   15 1
    18   14   35 1
    19   14   36 1
    20   15   16 1
    21   15   17 1
    22   15   37 1
    23   16   21 1
    24   17   18 1
    25   17   19 1
    26   17   38 1
    27   18   39 1
    28   19   20 1
    29   19   21 1
    30   19   40 1
    31   20   41 1
    32   21   22 1
    33   21   42 1
    34   22   23 ar
    35   22   31 ar
    36   23   24 ar
    37   23   43 1
    38   24   25 ar
    39   24   47 1
    40   25   26 ar
    41   25   31 ar
    42   26   27 1
    43   26   28 ar
    44   27   44 1
    45   27   45 1
    46   28   29 ar
    47   29   30 ar
    48   29   46 1
    49   30   31 ar
@<TRIPOS>SUBSTRUCTURE
     1 ATP         1 GROUP 0 A     ****
@<TRIPOS>MOLECULE
[[5-(6-amino-7,8-dihydropurin-8-ylium-9-yl)-3,4-dihydroxy-tetrahydrofuran-2-yl]methoxy-hydroxy-phosphoryl] phosphono phosphate
   47    49     1     0     0
SMALL
USER_CHARGES

@<TRIPOS>ATOM
      1 PG          2.1992    3.0491   -7.9464 P.3       1 ATP         1.7526
      2 O1G         2.1677    2.2679   -9.2266 O.2       1 ATP        -0.8534
      3 O2G         3.5231    3.9467   -7.7160 O.3       1 ATP        -0.7661
      4 O3G         0.9892    4.1027   -7.7516 O.3       1 ATP        -0.7661
      5 PB          0.9672    1.1131   -6.0930 P.3       1 ATP         1.6631
      6 O1B        -0.2844    1.8999   -5.7741 O.co2     1 ATP        -0.8211
      7 O2B         0.9284   -0.0733   -7.0304 O.co2     1 ATP        -0.8211
      8 O3B         2.1198    2.1473   -6.6069 O.3       1 ATP        -0.7954
      9 PA          3.0839   -0.0768   -4.4158 P.3       1 ATP         1.7782
     10 O1A         4.2162    0.4129   -5.2713 O.2       1 ATP        -0.8134
     11 O2A         2.7515   -1.6512   -4.5832 O.3       1 ATP        -0.8257
     12 O3A         1.6665    0.6506   -4.6937 O.3       1 ATP        -0.8063
     13 O5'         3.2874    0.1331   -2.8242 O.3       1 ATP        -0.5763
     14 C5'         2.2816   -0.2918   -1.9206 C.3       1 ATP         0.1790
     15 C4'         2.7248    0.0226   -0.4980 C.3       1 ATP         0.1339
     16 O4'         2.4697    1.4219   -0.2462 O.3       1 ATP        -0.4040
     17 C3'         1.9404   -0.7419    0.5596 C.3       1 ATP         0.0906
     18 O3'         2.7418   -0.8086    1.7389 O.3       1 ATP        -0.5689
     19 C2'         0.7477    0.1630    0.7858 C.3       1 ATP         0.0660
     20 O2'         0.1373   -0.0577    2.0407 O.3       1 ATP        -0.5800
     21 C1'         1.3733    1.5427    0.6747 C.3       1 ATP         0.4216
     22 N9          0.4520    2.5240    0.1767 N.pl3     1 ATP        -0.5455
     23 C8          0.0623    3.6542    0.7479 C.ar      1 ATP         0.2820
     24 N7         -0.8074    4.3516    0.0193 N.pl3     1 ATP        -0.4970
     25 C5         -0.9855    3.6123   -1.0979 C.ar      1 ATP        -0.2773
     26 C6         -1.7474    3.7860   -2.2156 C.ar      1 ATP         0.7637
     27 N6         -2.5511    4.9389   -2.3303 N.pl3     1 ATP        -0.9374
     28 N1         -1.7375    2.8675   -3.2064 N.ar      1 ATP        -0.7408
     29 C2         -0.9330    1.7853   -3.0121 C.ar      1 ATP         0.7215
     30 N3         -0.1423    1.5179   -1.9478 N.ar      1 ATP        -0.6797
     31 C4         -0.2044    2.4690   -1.0113 C.ar      1 ATP         0.6429
     32 HOG2        4.3975    3.5034   -7.6833 H         1 ATP         0.4781
     33 HOG3        0.0666    3.7696   -7.7433 H         1 ATP         0.4781
     34 HOA2        2.4892   -1.9892   -5.4658 H         1 ATP         0.4931
     35 H5'1        1.3494    0.2322   -2.1552 H         1 ATP         0.0438
     36 H5'2        2.1260   -1.3686   -2.0435 H         1 ATP         0.0438
     37 H4'         3.8049   -0.1388   -0.4009 H         1 ATP         0.1278
     38 H3'         1.6783   -1.7629    0.2715 H         1 ATP         0.1161
     39 HO3'        3.5554   -1.2733    1.4914 H         1 ATP         0.4111
     40 H2'        -0.0011    0.0027    0.0003 H         1 ATP         0.0477
     41 HO2'       -0.6141    0.5574    2.1082 H         1 ATP         0.4259
     42 H1'         1.7826    1.9024    1.6451 H         1 ATP         0.1524
     43 H8          0.4111    3.9873    1.7100 H         1 ATP         0.2610
     44 HN61       -3.0729    5.0887   -3.1703 H         1 ATP         0.4534
     45 HN62       -2.5136    5.6334   -1.6116 H         1 ATP         0.4534
     46 H2         -0.9279    1.0504   -3.8088 H         1 ATP         0.0900
     47 H47        -1.2303    5.2364    0.2633 H         1 ATP         0.5046
@<TRIPOS>BOND
     1    1    2 2
     2    1    3 1
     3    1    4 1
     4    1    8 1
     5    3   32 1
     6    4   33 1
     7    5    6 2
     8    5    7 1
     9    5    8 1
    10    5   12 1
    11    9   10 2
    12    9   11 1
    13    9   12 1
    14    9   13 1
    15   11   34 1
    16   13   14 1
    17   14   15 1
    18   14   35 1
    19   14   36 1
    20   15   16 1
    21   15   17 1
    22   15   37 1
    23   16   21 1
    24   17   18 1
    25   17   19 1
    26   17   38 1
    27   18   39 1
    28   19   20 1
    29   19   21 1
    30   19   40 1
    31   20   41 1
    32   21   22 1
    33   21   42 1
    34   22   23 ar
    35   22   31 ar
    36   23   24 ar
    37   23   43 1
    38   24   25 ar
    39   24   47 1
    40   25   26 ar
    41   25   31 ar
    42   26   27 1
    43   26   28 ar
    44   27   44 1
    45   27   45 1
    46   28   29 ar
    47   29   30 ar
    48   29   46 1
    49   30   31 ar
@<TRIPOS>SUBSTRUCTURE
     1 ATP         1 GROUP 0 A     ****
