@<TRIPOS>MOLECULE
[[5-(6-amino-1,8-dihydropurine-6,8-diylium-7-id-9-yl)-3,4-dihydroxy-tetrahydrofuran-2-yl]methoxy-hydroxy-phosphoryl] phosphono hydrogen phosphate
   48    50     1     0     0
SMALL
USER_CHARGES

@<TRIPOS>ATOM
      1 PG         -2.1804    0.4452   -4.0128 P.3       1 ATP         1.7931
      2 O1G        -1.5212    0.2680   -2.6767 O.2       1 ATP        -0.8245
      3 O2G        -2.7525   -0.9081   -4.6858 O.3       1 ATP        -0.7758
      4 O3G        -3.4549    1.4392   -4.0235 O.3       1 ATP        -0.7758
      5 PB          0.1630    0.5424   -5.8024 P.3       1 ATP         1.9416
      6 O1B         0.0870   -0.7982   -6.4717 O.2       1 ATP        -0.8420
      7 O2B         0.6240    1.7563   -6.7653 O.3       1 ATP        -0.7993
      8 O3B        -1.2241    1.0643   -5.1591 O.3       1 ATP        -0.7763
      9 PA          2.7556    0.3903   -4.4163 P.3       1 ATP         1.7989
     10 O1A         3.5951    1.2919   -5.2741 O.2       1 ATP        -0.8148
     11 O2A         2.9235   -1.1858   -4.7401 O.3       1 ATP        -0.8139
     12 O3A         1.1636    0.6363   -4.5388 O.3       1 ATP        -0.8202
     13 O5'         3.0192    0.5132   -2.8246 O.3       1 ATP        -0.5616
     14 C5'         2.2816   -0.2918   -1.9206 C.3       1 ATP         0.1639
     15 C4'         2.7248    0.0226   -0.4980 C.3       1 ATP         0.1354
     16 O4'         2.4697    1.4219   -0.2462 O.3       1 ATP        -0.4135
     17 C3'         1.9404   -0.7419    0.5596 C.3       1 ATP         0.0995
     18 O3'         2.7418   -0.8086    1.7389 O.3       1 ATP        -0.5734
     19 C2'         0.7477    0.1630    0.7858 C.3       1 ATP         0.0652
     20 O2'         0.1373   -0.0577    2.0407 O.3       1 ATP        -0.5780
     21 C1'         1.3733    1.5427    0.6747 C.3       1 ATP         0.4207
     22 N9          0.4520    2.5240    0.1767 N.pl3     1 ATP        -0.4600
     23 C8          0.1798    2.8712   -1.2933 C.ar      1 ATP         0.1694
     24 N7         -0.7494    3.8400   -1.3610 N.2       1 ATP        -0.2540
     25 C5         -1.0173    4.0603   -0.0358 C.ar      1 ATP        -0.1403
     26 C6         -2.0105    5.0717    0.4241 C.ar      1 ATP         0.4951
     27 N6         -2.6723    5.7982   -0.4628 N.pl3     1 ATP        -0.8019
     28 N1         -2.1445    5.1522    1.7502 N.pl3     1 ATP        -0.6941
     29 C2         -1.3755    4.3143    2.6427 C.ar      1 ATP         0.6475
     30 N3         -0.5075    3.4292    2.2616 N.ar      1 ATP        -0.5183
     31 C4         -0.3667    3.3425    0.9070 C.ar      1 ATP         0.3000
     32 HOG2       -2.1307   -1.6407   -4.8823 H         1 ATP         0.4939
     33 HOG3       -4.2289    1.2249   -3.4604 H         1 ATP         0.4939
     34 HOB2        1.5022    1.7103   -7.1997 H         1 ATP         0.5072
     35 HOA2        3.8091   -1.5971   -4.6476 H         1 ATP         0.5058
     36 H5'1        1.2150   -0.0785   -2.0448 H         1 ATP         0.0543
     37 H5'2        2.4641   -1.3458   -2.1540 H         1 ATP         0.0543
     38 H4'         3.8046   -0.1390   -0.4012 H         1 ATP         0.1294
     39 H3'         1.6787   -1.7628    0.2719 H         1 ATP         0.0900
     40 HO3'        2.2231   -1.2979    2.3952 H         1 ATP         0.4260
     41 H2'         0.0002   -0.0084   -0.0014 H         1 ATP         0.0698
     42 HO2'       -0.6132    0.5577    2.1063 H         1 ATP         0.4288
     43 H1'         1.7718    1.9211    1.6015 H         1 ATP         0.1374
     44 H8          0.6089    2.4651   -2.2147 H         1 ATP         0.2460
     45 HN61       -3.3458    6.4845   -0.1543 H         1 ATP         0.4865
     46 HN62       -2.5050    5.6683   -1.4502 H         1 ATP         0.4865
     47 H2         -1.5932    4.4937    3.7066 H         1 ATP         0.1083
     48 H48        -2.8098    5.8270    2.1160 H         1 ATP         0.4893
@<TRIPOS>BOND
     1    1    2 2
     2    1    3 1
     3    1    4 1
     4    1    8 1
     5    3   32 1
     6    4   33 1
     7    5    6 2
     8    5    7 1
     9    5    8 1
    10    5   12 1
    11    7   34 1
    12    9   10 2
    13    9   11 1
    14    9   12 1
    15    9   13 1
    16   11   35 1
    17   13   14 1
    18   14   15 1
    19   14   36 1
    20   14   37 1
    21   15   16 1
    22   15   17 1
    23   15   38 1
    24   16   21 1
    25   17   18 1
    26   17   19 1
    27   17   39 1
    28   18   40 1
    29   19   20 1
    30   19   21 1
    31   19   41 1
    32   20   42 1
    33   21   22 1
    34   21   43 1
    35   22   23 ar
    36   22   31 ar
    37   23   24 ar
    38   23   44 1
    39   24   25 ar
    40   25   26 ar
    41   25   31 ar
    42   26   27 1
    43   26   28 ar
    44   27   45 1
    45   27   46 1
    46   28   29 ar
    47   28   48 1
    48   29   30 ar
    49   29   47 1
    50   30   31 ar
@<TRIPOS>SUBSTRUCTURE
     1 ATP         1 GROUP 0 A     ****
@<TRIPOS>MOLECULE
[[5-(6-amino-1,8-dihydropurine-6,8-diylium-7-id-9-yl)-3,4-dihydroxy-tetrahydrofuran-2-yl]methoxy-hydroxy-phosphoryl] phosphono hydrogen phosphate
   48    50     1     0     0
SMALL
USER_CHARGES

@<TRIPOS>ATOM
      1 PG         -2.6677    1.3733   -5.8164 P.3       1 ATP         1.7931
      2 O1G        -3.3148    0.1970   -6.4862 O.2       1 ATP        -0.8245
      3 O2G        -2.3847    2.6441   -6.7738 O.3       1 ATP        -0.7758
      4 O3G        -3.5019    2.0074   -4.5856 O.3       1 ATP        -0.7758
      5 PB          0.1630    0.5424   -5.8024 P.3       1 ATP         1.9416
      6 O1B         0.0870   -0.7982   -6.4717 O.2       1 ATP        -0.8420
      7 O2B         0.6240    1.7563   -6.7653 O.3       1 ATP        -0.7993
      8 O3B        -1.2241    1.0643   -5.1591 O.3       1 ATP        -0.7763
      9 PA          2.7556    0.3903   -4.4163 P.3       1 ATP         1.7989
     10 O1A         3.5951    1.2919   -5.2741 O.2       1 ATP        -0.8148
     11 O2A         2.9235   -1.1858   -4.7401 O.3       1 ATP        -0.8139
     12 O3A         1.1636    0.6363   -4.5388 O.3       1 ATP        -0.8202
     13 O5'         3.0192    0.5132   -2.8246 O.3       1 ATP        -0.5616
     14 C5'         2.2816   -0.2918   -1.9206 C.3       1 ATP         0.1639
     15 C4'         2.7248    0.0226   -0.4980 C.3       1 ATP         0.1354
     16 O4'         2.4697    1.4219   -0.2462 O.3       1 ATP        -0.4135
     17 C3'         1.9404   -0.7419    0.5596 C.3       1 ATP         0.0995
     18 O3'         2.7418   -0.8086    1.7389 O.3       1 ATP        -0.5734
     19 C2'         0.7477    0.1630    0.7858 C.3       1 ATP         0.0652
     20 O2'         0.1373   -0.0577    2.0407 O.3       1 ATP        -0.5780
     21 C1'         1.3733    1.5427    0.6747 C.3       1 ATP         0.4207
     22 N9          0.4520    2.5240    0.1767 N.pl3     1 ATP        -0.4600
     23 C8          0.1798    2.8712   -1.2933 C.ar      1 ATP         0.1694
     24 N7         -0.7494    3.8400   -1.3610 N.2       1 ATP        -0.2540
     25 C5         -1.0173    4.0603   -0.0358 C.ar      1 ATP        -0.1403
     26 C6         -2.0105    5.0717    0.4241 C.ar      1 ATP         0.4951
     27 N6         -2.6723    5.7982   -0.4628 N.pl3     1 ATP        -0.8019
     28 N1         -2.1445    5.1522    1.7502 N.pl3     1 ATP        -0.6941
     29 C2         -1.3755    4.3143    2.6427 C.ar      1 ATP         0.6475
     30 N3         -0.5075    3.4292    2.2616 N.ar      1 ATP        -0.5183
     31 C4         -0.3667    3.3425    0.9070 C.ar      1 ATP         0.3000
     32 HOG2       -1.8002    2.5308   -7.5533 H         1 ATP         0.4939
     33 HOG3       -4.4017    2.3598   -4.7535 H         1 ATP         0.4939
     34 HOB2        1.5022    1.7103   -7.1997 H         1 ATP         0.5072
     35 HOA2        3.8091   -1.5971   -4.6476 H         1 ATP         0.5058
     36 H5'1        1.2150   -0.0785   -2.0448 H         1 ATP         0.0543
     37 H5'2        2.4641   -1.3458   -2.1540 H         1 ATP         0.0543
     38 H4'         3.8046   -0.1390   -0.4012 H         1 ATP         0.1294
     39 H3'         1.6787   -1.7628    0.2719 H         1 ATP         0.0900
     40 HO3'        2.2231   -1.2979    2.3952 H         1 ATP         0.4260
     41 H2'         0.0002   -0.0084   -0.0014 H         1 ATP         0.0698
     42 HO2'       -0.6132    0.5577    2.1063 H         1 ATP         0.4288
     43 H1'         1.7718    1.9211    1.6015 H         1 ATP         0.1374
     44 H8          0.6089    2.4651   -2.2147 H         1 ATP         0.2460
     45 HN61       -2.5055    5.6680   -1.4503 H         1 ATP         0.4865
     46 HN62       -3.3462    6.4841   -0.1542 H         1 ATP         0.4865
     47 H2         -1.5932    4.4937    3.7066 H         1 ATP         0.1083
     48 H48        -2.8098    5.8270    2.1160 H         1 ATP         0.4893
@<TRIPOS>BOND
     1    1    2 2
     2    1    3 1
     3    1    4 1
     4    1    8 1
     5    3   32 1
     6    4   33 1
     7    5    6 2
     8    5    7 1
     9    5    8 1
    10    5   12 1
    11    7   34 1
    12    9   10 2
    13    9   11 1
    14    9   12 1
    15    9   13 1
    16   11   35 1
    17   13   14 1
    18   14   15 1
    19   14   36 1
    20   14   37 1
    21   15   16 1
    22   15   17 1
    23   15   38 1
    24   16   21 1
    25   17   18 1
    26   17   19 1
    27   17   39 1
    28   18   40 1
    29   19   20 1
    30   19   21 1
    31   19   41 1
    32   20   42 1
    33   21   22 1
    34   21   43 1
    35   22   23 ar
    36   22   31 ar
    37   23   24 ar
    38   23   44 1
    39   24   25 ar
    40   25   26 ar
    41   25   31 ar
    42   26   27 1
    43   26   28 ar
    44   27   45 1
    45   27   46 1
    46   28   29 ar
    47   28   48 1
    48   29   30 ar
    49   29   47 1
    50   30   31 ar
@<TRIPOS>SUBSTRUCTURE
     1 ATP         1 GROUP 0 A     ****
@<TRIPOS>MOLECULE
[[5-(6-amino-1,8-dihydropurine-6,8-diylium-7-id-9-yl)-3,4-dihydroxy-tetrahydrofuran-2-yl]methoxy-hydroxy-phosphoryl] phosphono hydrogen phosphate
   48    50     1     0     0
SMALL
USER_CHARGES

@<TRIPOS>ATOM
      1 PG         -2.1804    0.4452   -4.0128 P.3       1 ATP         1.7931
      2 O1G        -2.7307   -0.9153   -4.3248 O.2       1 ATP        -0.8245
      3 O2G        -3.2857    1.6001   -3.7761 O.3       1 ATP        -0.7758
      4 O3G        -1.2607    0.5263   -2.6860 O.3       1 ATP        -0.7758
      5 PB          0.1630    0.5424   -5.8024 P.3       1 ATP         1.9416
      6 O1B         0.0870   -0.7982   -6.4717 O.2       1 ATP        -0.8420
      7 O2B         0.6240    1.7563   -6.7653 O.3       1 ATP        -0.7993
      8 O3B        -1.2241    1.0643   -5.1591 O.3       1 ATP        -0.7763
      9 PA          2.7556    0.3903   -4.4163 P.3       1 ATP         1.7989
     10 O1A         3.5951    1.2919   -5.2741 O.2       1 ATP        -0.8148
     11 O2A         2.9235   -1.1858   -4.7401 O.3       1 ATP        -0.8139
     12 O3A         1.1636    0.6363   -4.5388 O.3       1 ATP        -0.8202
     13 O5'         3.0192    0.5132   -2.8246 O.3       1 ATP        -0.5616
     14 C5'         2.2816   -0.2918   -1.9206 C.3       1 ATP         0.1639
     15 C4'         2.7248    0.0226   -0.4980 C.3       1 ATP         0.1354
     16 O4'         2.4697    1.4219   -0.2462 O.3       1 ATP        -0.4135
     17 C3'         1.9404   -0.7419    0.5596 C.3       1 ATP         0.0995
     18 O3'         2.7418   -0.8086    1.7389 O.3       1 ATP        -0.5734
     19 C2'         0.7477    0.1630    0.7858 C.3       1 ATP         0.0652
     20 O2'         0.1373   -0.0577    2.0407 O.3       1 ATP        -0.5780
     21 C1'         1.3733    1.5427    0.6747 C.3       1 ATP         0.4207
     22 N9          0.4520    2.5240    0.1767 N.pl3     1 ATP        -0.4600
     23 C8          0.5793    3.3338   -1.1209 C.ar      1 ATP         0.1694
     24 N7         -0.4807    4.1508   -1.2458 N.2       1 ATP        -0.2540
     25 C5         -1.1921    3.8572   -0.1126 C.ar      1 ATP        -0.1403
     26 C6         -2.4855    4.5203    0.2163 C.ar      1 ATP         0.4951
     27 N6         -2.9873    5.4319   -0.6020 N.pl3     1 ATP        -0.8019
     28 N1         -3.0414    4.1119    1.3596 N.pl3     1 ATP        -0.6941
     29 C2         -2.4169    3.1071    2.1904 C.ar      1 ATP         0.6475
     30 N3         -1.2928    2.5191    1.9210 N.ar      1 ATP        -0.5183
     31 C4         -0.7202    2.9326    0.7534 C.ar      1 ATP         0.3000
     32 HOG2       -3.9106    1.8154   -4.5008 H         1 ATP         0.4939
     33 HOG3       -1.6525    0.2805   -1.8210 H         1 ATP         0.4939
     34 HOB2        1.5022    1.7103   -7.1997 H         1 ATP         0.5072
     35 HOA2        2.7040   -1.5112   -5.6389 H         1 ATP         0.5058
     36 H5'1        1.2150   -0.0785   -2.0448 H         1 ATP         0.0543
     37 H5'2        2.4641   -1.3458   -2.1540 H         1 ATP         0.0543
     38 H4'         3.8046   -0.1390   -0.4012 H         1 ATP         0.1294
     39 H3'         1.6787   -1.7628    0.2719 H         1 ATP         0.0900
     40 HO3'        2.2231   -1.2979    2.3952 H         1 ATP         0.4260
     41 H2'         0.0002   -0.0084   -0.0014 H         1 ATP         0.0698
     42 HO2'       -0.1554   -0.9852    2.0577 H         1 ATP         0.4288
     43 H1'         1.7718    1.9211    1.6015 H         1 ATP         0.1374
     44 H8          1.3565    3.3309   -1.8916 H         1 ATP         0.2460
     45 HN61       -2.4952    5.6785   -1.4487 H         1 ATP         0.4865
     46 HN62       -3.8637    5.8828   -0.3819 H         1 ATP         0.4865
     47 H2         -2.9911    2.8734    3.1000 H         1 ATP         0.1083
     48 H48        -3.9253    4.5332    1.6302 H         1 ATP         0.4893
@<TRIPOS>BOND
     1    1    2 2
     2    1    3 1
     3    1    4 1
     4    1    8 1
     5    3   32 1
     6    4   33 1
     7    5    6 2
     8    5    7 1
     9    5    8 1
    10    5   12 1
    11    7   34 1
    12    9   10 2
    13    9   11 1
    14    9   12 1
    15    9   13 1
    16   11   35 1
    17   13   14 1
    18   14   15 1
    19   14   36 1
    20   14   37 1
    21   15   16 1
    22   15   17 1
    23   15   38 1
    24   16   21 1
    25   17   18 1
    26   17   19 1
    27   17   39 1
    28   18   40 1
    29   19   20 1
    30   19   21 1
    31   19   41 1
    32   20   42 1
    33   21   22 1
    34   21   43 1
    35   22   23 ar
    36   22   31 ar
    37   23   24 ar
    38   23   44 1
    39   24   25 ar
    40   25   26 ar
    41   25   31 ar
    42   26   27 1
    43   26   28 ar
    44   27   45 1
    45   27   46 1
    46   28   29 ar
    47   28   48 1
    48   29   30 ar
    49   29   47 1
    50   30   31 ar
@<TRIPOS>SUBSTRUCTURE
     1 ATP         1 GROUP 0 A     ****
@<TRIPOS>MOLECULE
[[5-(6-amino-1,8-dihydropurine-6,8-diylium-7-id-9-yl)-3,4-dihydroxy-tetrahydrofuran-2-yl]methoxy-hydroxy-phosphoryl] phosphono hydrogen phosphate
   48    50     1     0     0
SMALL
USER_CHARGES

@<TRIPOS>ATOM
      1 PG         -0.5814   -1.9338   -7.2228 P.3       1 ATP         1.7931
      2 O1G        -2.0681   -1.9512   -7.0213 O.2       1 ATP        -0.8245
      3 O2G         0.1447   -3.3748   -7.1340 O.3       1 ATP        -0.7758
      4 O3G        -0.0881   -1.3505   -8.6472 O.3       1 ATP        -0.7758
      5 PB          0.1630    0.5424   -5.8024 P.3       1 ATP         1.9416
      6 O1B         0.4729    1.4639   -6.9452 O.2       1 ATP        -0.8420
      7 O2B        -1.3081    0.7301   -5.1593 O.3       1 ATP        -0.7993
      8 O3B         0.2325   -1.0323   -6.1567 O.3       1 ATP        -0.7763
      9 PA          2.7556    0.3903   -4.4163 P.3       1 ATP         1.7989
     10 O1A         3.5951    1.2919   -5.2741 O.2       1 ATP        -0.8148
     11 O2A         2.9235   -1.1858   -4.7401 O.3       1 ATP        -0.8139
     12 O3A         1.1636    0.6363   -4.5388 O.3       1 ATP        -0.8202
     13 O5'         3.0192    0.5132   -2.8246 O.3       1 ATP        -0.5616
     14 C5'         2.2816   -0.2918   -1.9206 C.3       1 ATP         0.1639
     15 C4'         2.7248    0.0226   -0.4980 C.3       1 ATP         0.1354
     16 O4'         2.4697    1.4219   -0.2462 O.3       1 ATP        -0.4135
     17 C3'         1.9404   -0.7419    0.5596 C.3       1 ATP         0.0995
     18 O3'         2.7418   -0.8086    1.7389 O.3       1 ATP        -0.5734
     19 C2'         0.7477    0.1630    0.7858 C.3       1 ATP         0.0652
     20 O2'         0.1373   -0.0577    2.0407 O.3       1 ATP        -0.5780
     21 C1'         1.3733    1.5427    0.6747 C.3       1 ATP         0.4207
     22 N9          0.4520    2.5240    0.1767 N.pl3     1 ATP        -0.4600
     23 C8          0.1798    2.8712   -1.2933 C.ar      1 ATP         0.1694
     24 N7         -0.7494    3.8400   -1.3610 N.2       1 ATP        -0.2540
     25 C5         -1.0173    4.0603   -0.0358 C.ar      1 ATP        -0.1403
     26 C6         -2.0105    5.0717    0.4241 C.ar      1 ATP         0.4951
     27 N6         -2.6723    5.7982   -0.4628 N.pl3     1 ATP        -0.8019
     28 N1         -2.1445    5.1522    1.7502 N.pl3     1 ATP        -0.6941
     29 C2         -1.3755    4.3143    2.6427 C.ar      1 ATP         0.6475
     30 N3         -0.5075    3.4292    2.2616 N.ar      1 ATP        -0.5183
     31 C4         -0.3667    3.3425    0.9070 C.ar      1 ATP         0.3000
     32 HOG2       -0.1188   -4.0792   -7.7636 H         1 ATP         0.4939
     33 HOG3       -0.3201   -0.4286   -8.8888 H         1 ATP         0.4939
     34 HOB2       -1.5505    1.5991   -4.7743 H         1 ATP         0.5072
     35 HOA2        2.7040   -1.5112   -5.6389 H         1 ATP         0.5058
     36 H5'1        1.2150   -0.0785   -2.0448 H         1 ATP         0.0543
     37 H5'2        2.4641   -1.3458   -2.1540 H         1 ATP         0.0543
     38 H4'         3.8046   -0.1390   -0.4012 H         1 ATP         0.1294
     39 H3'         1.6787   -1.7628    0.2719 H         1 ATP         0.0900
     40 HO3'        2.2231   -1.2979    2.3952 H         1 ATP         0.4260
     41 H2'         0.0002   -0.0084   -0.0014 H         1 ATP         0.0698
     42 HO2'       -0.6132    0.5577    2.1063 H         1 ATP         0.4288
     43 H1'         1.7718    1.9211    1.6015 H         1 ATP         0.1374
     44 H8          0.6089    2.4651   -2.2147 H         1 ATP         0.2460
     45 HN61       -2.5055    5.6680   -1.4503 H         1 ATP         0.4865
     46 HN62       -3.3462    6.4841   -0.1542 H         1 ATP         0.4865
     47 H2         -1.5932    4.4937    3.7066 H         1 ATP         0.1083
     48 H48        -2.8098    5.8270    2.1160 H         1 ATP         0.4893
@<TRIPOS>BOND
     1    1    2 2
     2    1    3 1
     3    1    4 1
     4    1    8 1
     5    3   32 1
     6    4   33 1
     7    5    6 2
     8    5    7 1
     9    5    8 1
    10    5   12 1
    11    7   34 1
    12    9   10 2
    13    9   11 1
    14    9   12 1
    15    9   13 1
    16   11   35 1
    17   13   14 1
    18   14   15 1
    19   14   36 1
    20   14   37 1
    21   15   16 1
    22   15   17 1
    23   15   38 1
    24   16   21 1
    25   17   18 1
    26   17   19 1
    27   17   39 1
    28   18   40 1
    29   19   20 1
    30   19   21 1
    31   19   41 1
    32   20   42 1
    33   21   22 1
    34   21   43 1
    35   22   23 ar
    36   22   31 ar
    37   23   24 ar
    38   23   44 1
    39   24   25 ar
    40   25   26 ar
    41   25   31 ar
    42   26   27 1
    43   26   28 ar
    44   27   45 1
    45   27   46 1
    46   28   29 ar
    47   28   48 1
    48   29   30 ar
    49   29   47 1
    50   30   31 ar
@<TRIPOS>SUBSTRUCTURE
     1 ATP         1 GROUP 0 A     ****
@<TRIPOS>MOLECULE
[[5-(6-amino-1,8-dihydropurine-6,8-diylium-7-id-9-yl)-3,4-dihydroxy-tetrahydrofuran-2-yl]methoxy-hydroxy-phosphoryl] phosphono hydrogen phosphate
   48    50     1     0     0
SMALL
USER_CHARGES

@<TRIPOS>ATOM
      1 PG          0.7043    5.8654   -4.4055 P.3       1 ATP         1.7931
      2 O1G         1.4939    6.6465   -5.4142 O.2       1 ATP        -0.8245
      3 O2G         0.6016    6.5361   -2.9388 O.3       1 ATP        -0.7758
      4 O3G        -0.8383    5.5917   -4.8034 O.3       1 ATP        -0.7758
      5 PB          1.5015    3.1025   -5.0646 P.3       1 ATP         1.9416
      6 O1B         0.2637    2.5833   -5.7349 O.2       1 ATP        -0.8420
      7 O2B         2.6708    3.5783   -6.0742 O.3       1 ATP        -0.7993
      8 O3B         1.2733    4.3827   -4.1060 O.3       1 ATP        -0.7763
      9 PA          2.8837    0.6137   -4.3156 P.3       1 ATP         1.7989
     10 O1A         4.0005    0.5905   -5.3184 O.2       1 ATP        -0.8148
     11 O2A         1.6113   -0.3033   -4.7122 O.3       1 ATP        -0.8139
     12 O3A         2.2372    2.0724   -4.0624 O.3       1 ATP        -0.8202
     13 O5'         3.2876    0.1332   -2.8242 O.3       1 ATP        -0.5616
     14 C5'         2.2816   -0.2918   -1.9206 C.3       1 ATP         0.1639
     15 C4'         2.7248    0.0226   -0.4980 C.3       1 ATP         0.1354
     16 O4'         2.4697    1.4219   -0.2462 O.3       1 ATP        -0.4135
     17 C3'         1.9404   -0.7419    0.5596 C.3       1 ATP         0.0995
     18 O3'         2.7418   -0.8086    1.7389 O.3       1 ATP        -0.5734
     19 C2'         0.7477    0.1630    0.7858 C.3       1 ATP         0.0652
     20 O2'         0.1373   -0.0577    2.0407 O.3       1 ATP        -0.5780
     21 C1'         1.3733    1.5427    0.6747 C.3       1 ATP         0.4207
     22 N9          0.4520    2.5240    0.1767 N.pl3     1 ATP        -0.4600
     23 C8         -0.3054    2.4845   -1.1576 C.ar      1 ATP         0.1694
     24 N7         -1.0755    3.5806   -1.2691 N.2       1 ATP        -0.2540
     25 C5         -0.8043    4.2306   -0.0942 C.ar      1 ATP        -0.1403
     26 C6         -1.4324    5.5335    0.2646 C.ar      1 ATP         0.4951
     27 N6         -2.2885    6.1055   -0.5675 N.pl3     1 ATP        -0.8019
     28 N1         -1.0537    6.0229    1.4478 N.pl3     1 ATP        -0.6941
     29 C2         -0.1096    5.3242    2.2908 C.ar      1 ATP         0.6475
     30 N3          0.4468    4.1904    1.9960 N.ar      1 ATP        -0.5183
     31 C4          0.0631    3.6855    0.7877 C.ar      1 ATP         0.3000
     32 HOG2        0.1906    7.4221   -2.8492 H         1 ATP         0.4939
     33 HOG3       -1.0355    5.0908   -5.6233 H         1 ATP         0.4939
     34 HOB2        3.0523    2.9262   -6.6997 H         1 ATP         0.5072
     35 HOA2        1.7421   -1.2674   -4.8367 H         1 ATP         0.5058
     36 H5'1        1.3495    0.2323   -2.1554 H         1 ATP         0.0543
     37 H5'2        2.1262   -1.3685   -2.0437 H         1 ATP         0.0543
     38 H4'         3.8046   -0.1390   -0.4012 H         1 ATP         0.1294
     39 H3'         1.6787   -1.7628    0.2719 H         1 ATP         0.0900
     40 HO3'        2.2231   -1.2979    2.3952 H         1 ATP         0.4260
     41 H2'         0.0002   -0.0084   -0.0014 H         1 ATP         0.0698
     42 HO2'       -0.1554   -0.9852    2.0577 H         1 ATP         0.4288
     43 H1'         1.7718    1.9211    1.6015 H         1 ATP         0.1374
     44 H8         -0.2991    1.7413   -1.9611 H         1 ATP         0.2460
     45 HN61       -2.5167    5.6603   -1.4447 H         1 ATP         0.4865
     46 HN62       -2.7159    6.9882   -0.3270 H         1 ATP         0.4865
     47 H2          0.1059    5.8491    3.2340 H         1 ATP         0.1083
     48 H48        -1.4532    6.9099    1.7401 H         1 ATP         0.4893
@<TRIPOS>BOND
     1    1    2 2
     2    1    3 1
     3    1    4 1
     4    1    8 1
     5    3   32 1
     6    4   33 1
     7    5    6 2
     8    5    7 1
     9    5    8 1
    10    5   12 1
    11    7   34 1
    12    9   10 2
    13    9   11 1
    14    9   12 1
    15    9   13 1
    16   11   35 1
    17   13   14 1
    18   14   15 1
    19   14   36 1
    20   14   37 1
    21   15   16 1
    22   15   17 1
    23   15   38 1
    24   16   21 1
    25   17   18 1
    26   17   19 1
    27   17   39 1
    28   18   40 1
    29   19   20 1
    30   19   21 1
    31   19   41 1
    32   20   42 1
    33   21   22 1
    34   21   43 1
    35   22   23 ar
    36   22   31 ar
    37   23   24 ar
    38   23   44 1
    39   24   25 ar
    40   25   26 ar
    41   25   31 ar
    42   26   27 1
    43   26   28 ar
    44   27   45 1
    45   27   46 1
    46   28   29 ar
    47   28   48 1
    48   29   30 ar
    49   29   47 1
    50   30   31 ar
@<TRIPOS>SUBSTRUCTURE
     1 ATP         1 GROUP 0 A     ****
@<TRIPOS>MOLECULE
[[5-(6-amino-1,8-dihydropurine-6,8-diylium-7-id-9-yl)-3,4-dihydroxy-tetrahydrofuran-2-yl]methoxy-hydroxy-phosphoryl] phosphono hydrogen phosphate
   48    50     1     0     0
SMALL
USER_CHARGES

@<TRIPOS>ATOM
      1 PG         -1.6452    2.4075   -6.3635 P.3       1 ATP         1.7931
      2 O1G        -1.2356    3.2827   -7.5113 O.2       1 ATP        -0.8245
      3 O2G        -2.5004    3.1419   -5.2055 O.3       1 ATP        -0.7758
      4 O3G        -2.5626    1.1376   -6.7614 O.3       1 ATP        -0.7758
      5 PB          0.7601    0.7320   -6.0303 P.3       1 ATP         1.9416
      6 O1B         0.2914   -0.5816   -6.5832 O.2       1 ATP        -0.8420
      7 O2B         1.6400    1.6231   -7.0524 O.3       1 ATP        -0.7993
      8 O3B        -0.4167    1.7334   -5.5585 O.3       1 ATP        -0.7763
      9 PA          3.0852   -0.0762   -4.4159 P.3       1 ATP         1.7989
     10 O1A         4.2162    0.4128   -5.2733 O.2       1 ATP        -0.8148
     11 O2A         2.7521   -1.6504   -4.5840 O.3       1 ATP        -0.8139
     12 O3A         1.6672    0.6448   -4.6975 O.3       1 ATP        -0.8202
     13 O5'         3.2876    0.1332   -2.8242 O.3       1 ATP        -0.5616
     14 C5'         2.2816   -0.2918   -1.9206 C.3       1 ATP         0.1639
     15 C4'         2.7248    0.0226   -0.4980 C.3       1 ATP         0.1354
     16 O4'         2.4697    1.4219   -0.2462 O.3       1 ATP        -0.4135
     17 C3'         1.9404   -0.7419    0.5596 C.3       1 ATP         0.0995
     18 O3'         2.7418   -0.8086    1.7389 O.3       1 ATP        -0.5734
     19 C2'         0.7477    0.1630    0.7858 C.3       1 ATP         0.0652
     20 O2'         0.1373   -0.0577    2.0407 O.3       1 ATP        -0.5780
     21 C1'         1.3733    1.5427    0.6747 C.3       1 ATP         0.4207
     22 N9          0.4520    2.5240    0.1767 N.pl3     1 ATP        -0.4600
     23 C8          0.1798    2.8712   -1.2933 C.ar      1 ATP         0.1694
     24 N7         -0.7494    3.8400   -1.3610 N.2       1 ATP        -0.2540
     25 C5         -1.0173    4.0603   -0.0358 C.ar      1 ATP        -0.1403
     26 C6         -2.0105    5.0717    0.4241 C.ar      1 ATP         0.4951
     27 N6         -2.6723    5.7982   -0.4628 N.pl3     1 ATP        -0.8019
     28 N1         -2.1445    5.1522    1.7502 N.pl3     1 ATP        -0.6941
     29 C2         -1.3755    4.3143    2.6427 C.ar      1 ATP         0.6475
     30 N3         -0.5075    3.4292    2.2616 N.ar      1 ATP        -0.5183
     31 C4         -0.3667    3.3425    0.9070 C.ar      1 ATP         0.3000
     32 HOG2       -2.1003    3.8989   -4.7271 H         1 ATP         0.4939
     33 HOG3       -3.4285    1.2945   -7.1947 H         1 ATP         0.4939
     34 HOB2        1.2389    1.9063   -7.9015 H         1 ATP         0.5072
     35 HOA2        2.4883   -1.9875   -5.4665 H         1 ATP         0.5058
     36 H5'1        1.3495    0.2323   -2.1554 H         1 ATP         0.0543
     37 H5'2        2.1262   -1.3685   -2.0437 H         1 ATP         0.0543
     38 H4'         3.8046   -0.1390   -0.4012 H         1 ATP         0.1294
     39 H3'         1.6787   -1.7628    0.2719 H         1 ATP         0.0900
     40 HO3'        2.2231   -1.2979    2.3952 H         1 ATP         0.4260
     41 H2'         0.0002   -0.0084   -0.0014 H         1 ATP         0.0698
     42 HO2'       -0.1554   -0.9852    2.0577 H         1 ATP         0.4288
     43 H1'         1.7718    1.9211    1.6015 H         1 ATP         0.1374
     44 H8          0.6089    2.4651   -2.2147 H         1 ATP         0.2460
     45 HN61       -2.5055    5.6680   -1.4503 H         1 ATP         0.4865
     46 HN62       -3.3462    6.4841   -0.1542 H         1 ATP         0.4865
     47 H2         -1.5932    4.4937    3.7066 H         1 ATP         0.1083
     48 H48        -2.8098    5.8270    2.1160 H         1 ATP         0.4893
@<TRIPOS>BOND
     1    1    2 2
     2    1    3 1
     3    1    4 1
     4    1    8 1
     5    3   32 1
     6    4   33 1
     7    5    6 2
     8    5    7 1
     9    5    8 1
    10    5   12 1
    11    7   34 1
    12    9   10 2
    13    9   11 1
    14    9   12 1
    15    9   13 1
    16   11   35 1
    17   13   14 1
    18   14   15 1
    19   14   36 1
    20   14   37 1
    21   15   16 1
    22   15   17 1
    23   15   38 1
    24   16   21 1
    25   17   18 1
    26   17   19 1
    27   17   39 1
    28   18   40 1
    29   19   20 1
    30   19   21 1
    31   19   41 1
    32   20   42 1
    33   21   22 1
    34   21   43 1
    35   22   23 ar
    36   22   31 ar
    37   23   24 ar
    38   23   44 1
    39   24   25 ar
    40   25   26 ar
    41   25   31 ar
    42   26   27 1
    43   26   28 ar
    44   27   45 1
    45   27   46 1
    46   28   29 ar
    47   28   48 1
    48   29   30 ar
    49   29   47 1
    50   30   31 ar
@<TRIPOS>SUBSTRUCTURE
     1 ATP         1 GROUP 0 A     ****
@<TRIPOS>MOLECULE
[[5-(6-amino-1,8-dihydropurine-6,8-diylium-7-id-9-yl)-3,4-dihydroxy-tetrahydrofuran-2-yl]methoxy-hydroxy-phosphoryl] phosphono hydrogen phosphate
   48    50     1     0     0
SMALL
USER_CHARGES

@<TRIPOS>ATOM
      1 PG         -0.1497    4.5345   -5.2002 P.3       1 ATP         1.7931
      2 O1G        -0.1651    5.2812   -3.8990 O.2       1 ATP        -0.8245
      3 O2G        -1.6034    4.1933   -5.8183 O.3       1 ATP        -0.7758
      4 O3G         0.6088    5.2854   -6.4141 O.3       1 ATP        -0.7758
      5 PB          2.1000    2.6750   -4.7704 P.3       1 ATP         1.9416
      6 O1B         3.1596    3.2763   -5.6461 O.2       1 ATP        -0.8420
      7 O2B         2.2285    3.0412   -3.2012 O.3       1 ATP        -0.7993
      8 O3B         0.5856    3.0965   -5.1433 O.3       1 ATP        -0.7763
      9 PA          3.0852   -0.0762   -4.4159 P.3       1 ATP         1.7989
     10 O1A         4.3456   -0.0389   -5.2303 O.2       1 ATP        -0.8148
     11 O2A         2.2470   -1.4538   -4.5457 O.3       1 ATP        -0.8139
     12 O3A         2.0050    1.0635   -4.7956 O.3       1 ATP        -0.8202
     13 O5'         3.2876    0.1332   -2.8242 O.3       1 ATP        -0.5616
     14 C5'         2.2816   -0.2918   -1.9206 C.3       1 ATP         0.1639
     15 C4'         2.7248    0.0226   -0.4980 C.3       1 ATP         0.1354
     16 O4'         2.4697    1.4219   -0.2462 O.3       1 ATP        -0.4135
     17 C3'         1.9404   -0.7419    0.5596 C.3       1 ATP         0.0995
     18 O3'         2.7418   -0.8086    1.7389 O.3       1 ATP        -0.5734
     19 C2'         0.7477    0.1630    0.7858 C.3       1 ATP         0.0652
     20 O2'         0.1373   -0.0577    2.0407 O.3       1 ATP        -0.5780
     21 C1'         1.3733    1.5427    0.6747 C.3       1 ATP         0.4207
     22 N9          0.4520    2.5240    0.1767 N.pl3     1 ATP        -0.4600
     23 C8         -0.3054    2.4845   -1.1576 C.ar      1 ATP         0.1694
     24 N7         -1.0755    3.5806   -1.2691 N.2       1 ATP        -0.2540
     25 C5         -0.8043    4.2306   -0.0942 C.ar      1 ATP        -0.1403
     26 C6         -1.4324    5.5335    0.2646 C.ar      1 ATP         0.4951
     27 N6         -2.2885    6.1055   -0.5675 N.pl3     1 ATP        -0.8019
     28 N1         -1.0537    6.0229    1.4478 N.pl3     1 ATP        -0.6941
     29 C2         -0.1096    5.3242    2.2908 C.ar      1 ATP         0.6475
     30 N3          0.4468    4.1904    1.9960 N.ar      1 ATP        -0.5183
     31 C4          0.0631    3.6855    0.7877 C.ar      1 ATP         0.3000
     32 HOG2       -2.2241    3.6418   -5.2962 H         1 ATP         0.4939
     33 HOG3        1.5590    5.5077   -6.3151 H         1 ATP         0.4939
     34 HOB2        3.0429    2.7836   -2.7189 H         1 ATP         0.5072
     35 HOA2        2.6751   -2.2959   -4.2818 H         1 ATP         0.5058
     36 H5'1        1.3495    0.2323   -2.1554 H         1 ATP         0.0543
     37 H5'2        2.1262   -1.3685   -2.0437 H         1 ATP         0.0543
     38 H4'         3.8046   -0.1390   -0.4012 H         1 ATP         0.1294
     39 H3'         1.6787   -1.7628    0.2719 H         1 ATP         0.0900
     40 HO3'        2.2231   -1.2979    2.3952 H         1 ATP         0.4260
     41 H2'         0.0002   -0.0084   -0.0014 H         1 ATP         0.0698
     42 HO2'       -0.6132    0.5577    2.1063 H         1 ATP         0.4288
     43 H1'         1.7718    1.9211    1.6015 H         1 ATP         0.1374
     44 H8         -0.2991    1.7413   -1.9611 H         1 ATP         0.2460
     45 HN61       -2.5167    5.6603   -1.4447 H         1 ATP         0.4865
     46 HN62       -2.7159    6.9882   -0.3270 H         1 ATP         0.4865
     47 H2          0.1059    5.8491    3.2340 H         1 ATP         0.1083
     48 H48        -1.4532    6.9099    1.7401 H         1 ATP         0.4893
@<TRIPOS>BOND
     1    1    2 2
     2    1    3 1
     3    1    4 1
     4    1    8 1
     5    3   32 1
     6    4   33 1
     7    5    6 2
     8    5    7 1
     9    5    8 1
    10    5   12 1
    11    7   34 1
    12    9   10 2
    13    9   11 1
    14    9   12 1
    15    9   13 1
    16   11   35 1
    17   13   14 1
    18   14   15 1
    19   14   36 1
    20   14   37 1
    21   15   16 1
    22   15   17 1
    23   15   38 1
    24   16   21 1
    25   17   18 1
    26   17   19 1
    27   17   39 1
    28   18   40 1
    29   19   20 1
    30   19   21 1
    31   19   41 1
    32   20   42 1
    33   21   22 1
    34   21   43 1
    35   22   23 ar
    36   22   31 ar
    37   23   24 ar
    38   23   44 1
    39   24   25 ar
    40   25   26 ar
    41   25   31 ar
    42   26   27 1
    43   26   28 ar
    44   27   45 1
    45   27   46 1
    46   28   29 ar
    47   28   48 1
    48   29   30 ar
    49   29   47 1
    50   30   31 ar
@<TRIPOS>SUBSTRUCTURE
     1 ATP         1 GROUP 0 A     ****
@<TRIPOS>MOLECULE
[[5-(6-amino-1,8-dihydropurine-6,8-diylium-7-id-9-yl)-3,4-dihydroxy-tetrahydrofuran-2-yl]methoxy-hydroxy-phosphoryl] phosphono hydrogen phosphate
   48    50     1     0     0
SMALL
USER_CHARGES

@<TRIPOS>ATOM
      1 PG         -1.5824    1.5795   -4.4498 P.3       1 ATP         1.7931
      2 O1G        -1.0894    1.3529   -3.0510 O.2       1 ATP        -0.8245
      3 O2G        -2.5238    0.4103   -5.0485 O.3       1 ATP        -0.7758
      4 O3G        -2.4649    2.9176   -4.6586 O.3       1 ATP        -0.7758
      5 PB          0.7601    0.7320   -6.0303 P.3       1 ATP         1.9416
      6 O1B         0.2914   -0.5816   -6.5832 O.2       1 ATP        -0.8420
      7 O2B         1.6400    1.6231   -7.0524 O.3       1 ATP        -0.7993
      8 O3B        -0.4167    1.7334   -5.5585 O.3       1 ATP        -0.7763
      9 PA          3.0852   -0.0762   -4.4159 P.3       1 ATP         1.7989
     10 O1A         4.2162    0.4128   -5.2733 O.2       1 ATP        -0.8148
     11 O2A         2.7521   -1.6504   -4.5840 O.3       1 ATP        -0.8139
     12 O3A         1.6672    0.6448   -4.6975 O.3       1 ATP        -0.8202
     13 O5'         3.2876    0.1332   -2.8242 O.3       1 ATP        -0.5616
     14 C5'         2.2816   -0.2918   -1.9206 C.3       1 ATP         0.1639
     15 C4'         2.7248    0.0226   -0.4980 C.3       1 ATP         0.1354
     16 O4'         2.4697    1.4219   -0.2462 O.3       1 ATP        -0.4135
     17 C3'         1.9404   -0.7419    0.5596 C.3       1 ATP         0.0995
     18 O3'         2.7418   -0.8086    1.7389 O.3       1 ATP        -0.5734
     19 C2'         0.7477    0.1630    0.7858 C.3       1 ATP         0.0652
     20 O2'         0.1373   -0.0577    2.0407 O.3       1 ATP        -0.5780
     21 C1'         1.3733    1.5427    0.6747 C.3       1 ATP         0.4207
     22 N9          0.4520    2.5240    0.1767 N.pl3     1 ATP        -0.4600
     23 C8          0.5793    3.3338   -1.1209 C.ar      1 ATP         0.1694
     24 N7         -0.4807    4.1508   -1.2458 N.2       1 ATP        -0.2540
     25 C5         -1.1921    3.8572   -0.1126 C.ar      1 ATP        -0.1403
     26 C6         -2.4855    4.5203    0.2163 C.ar      1 ATP         0.4951
     27 N6         -2.9873    5.4319   -0.6020 N.pl3     1 ATP        -0.8019
     28 N1         -3.0414    4.1119    1.3596 N.pl3     1 ATP        -0.6941
     29 C2         -2.4169    3.1071    2.1904 C.ar      1 ATP         0.6475
     30 N3         -1.2928    2.5191    1.9210 N.ar      1 ATP        -0.5183
     31 C4         -0.7202    2.9326    0.7534 C.ar      1 ATP         0.3000
     32 HOG2       -3.3633    0.1944   -4.5895 H         1 ATP         0.4939
     33 HOG3       -2.0606    3.7888   -4.4597 H         1 ATP         0.4939
     34 HOB2        1.2389    1.9063   -7.9015 H         1 ATP         0.5072
     35 HOA2        2.4883   -1.9875   -5.4665 H         1 ATP         0.5058
     36 H5'1        1.3495    0.2323   -2.1554 H         1 ATP         0.0543
     37 H5'2        2.1262   -1.3685   -2.0437 H         1 ATP         0.0543
     38 H4'         3.8046   -0.1390   -0.4012 H         1 ATP         0.1294
     39 H3'         1.6787   -1.7628    0.2719 H         1 ATP         0.0900
     40 HO3'        3.5553   -1.2733    1.4913 H         1 ATP         0.4260
     41 H2'         0.0002   -0.0084   -0.0014 H         1 ATP         0.0698
     42 HO2'       -0.1554   -0.9852    2.0577 H         1 ATP         0.4288
     43 H1'         1.7718    1.9211    1.6015 H         1 ATP         0.1374
     44 H8          1.3565    3.3309   -1.8916 H         1 ATP         0.2460
     45 HN61       -2.4952    5.6785   -1.4487 H         1 ATP         0.4865
     46 HN62       -3.8637    5.8828   -0.3819 H         1 ATP         0.4865
     47 H2         -2.9911    2.8734    3.1000 H         1 ATP         0.1083
     48 H48        -3.9253    4.5332    1.6302 H         1 ATP         0.4893
@<TRIPOS>BOND
     1    1    2 2
     2    1    3 1
     3    1    4 1
     4    1    8 1
     5    3   32 1
     6    4   33 1
     7    5    6 2
     8    5    7 1
     9    5    8 1
    10    5   12 1
    11    7   34 1
    12    9   10 2
    13    9   11 1
    14    9   12 1
    15    9   13 1
    16   11   35 1
    17   13   14 1
    18   14   15 1
    19   14   36 1
    20   14   37 1
    21   15   16 1
    22   15   17 1
    23   15   38 1
    24   16   21 1
    25   17   18 1
    26   17   19 1
    27   17   39 1
    28   18   40 1
    29   19   20 1
    30   19   21 1
    31   19   41 1
    32   20   42 1
    33   21   22 1
    34   21   43 1
    35   22   23 ar
    36   22   31 ar
    37   23   24 ar
    38   23   44 1
    39   24   25 ar
    40   25   26 ar
    41   25   31 ar
    42   26   27 1
    43   26   28 ar
    44   27   45 1
    45   27   46 1
    46   28   29 ar
    47   28   48 1
    48   29   30 ar
    49   29   47 1
    50   30   31 ar
@<TRIPOS>SUBSTRUCTURE
     1 ATP         1 GROUP 0 A     ****
@<TRIPOS>MOLECULE
[[5-(6-amino-1,8-dihydropurine-6,8-diylium-7-id-9-yl)-3,4-dihydroxy-tetrahydrofuran-2-yl]methoxy-hydroxy-phosphoryl] phosphono hydrogen phosphate
   48    50     1     0     0
SMALL
USER_CHARGES

@<TRIPOS>ATOM
      1 PG          4.1295    1.4618   -6.2031 P.3       1 ATP         1.7931
      2 O1G         4.0303    1.7886   -4.7421 O.2       1 ATP        -0.8245
      3 O2G         2.9720    2.0989   -7.1338 O.3       1 ATP        -0.7758
      4 O3G         5.4962    1.9389   -6.9223 O.3       1 ATP        -0.7758
      5 PB          2.9332   -1.2340   -6.2727 P.3       1 ATP         1.9416
      6 O1B         1.6029   -0.9572   -6.9088 O.2       1 ATP        -0.8420
      7 O2B         3.6323   -2.6160   -6.7360 O.3       1 ATP        -0.7993
      8 O3B         4.0670   -0.1161   -6.5464 O.3       1 ATP        -0.7763
      9 PA          2.1468   -2.2811   -3.6362 P.3       1 ATP         1.7989
     10 O1A         2.4480   -3.7421   -3.8041 O.2       1 ATP        -0.8148
     11 O2A         0.5929   -1.8899   -3.8585 O.3       1 ATP        -0.8139
     12 O3A         2.9337   -1.3101   -4.6600 O.3       1 ATP        -0.8202
     13 O5'         2.5234   -1.6624   -2.1893 O.3       1 ATP        -0.5616
     14 C5'         2.2816   -0.2918   -1.9206 C.3       1 ATP         0.1639
     15 C4'         2.7248    0.0226   -0.4980 C.3       1 ATP         0.1354
     16 O4'         2.4697    1.4219   -0.2462 O.3       1 ATP        -0.4135
     17 C3'         1.9404   -0.7419    0.5596 C.3       1 ATP         0.0995
     18 O3'         2.7418   -0.8086    1.7389 O.3       1 ATP        -0.5734
     19 C2'         0.7477    0.1630    0.7858 C.3       1 ATP         0.0652
     20 O2'         0.1373   -0.0577    2.0407 O.3       1 ATP        -0.5780
     21 C1'         1.3733    1.5427    0.6747 C.3       1 ATP         0.4207
     22 N9          0.4520    2.5240    0.1767 N.pl3     1 ATP        -0.4600
     23 C8          0.1798    2.8712   -1.2933 C.ar      1 ATP         0.1694
     24 N7         -0.7494    3.8400   -1.3610 N.2       1 ATP        -0.2540
     25 C5         -1.0173    4.0603   -0.0358 C.ar      1 ATP        -0.1403
     26 C6         -2.0105    5.0717    0.4241 C.ar      1 ATP         0.4951
     27 N6         -2.6723    5.7982   -0.4628 N.pl3     1 ATP        -0.8019
     28 N1         -2.1445    5.1522    1.7502 N.pl3     1 ATP        -0.6941
     29 C2         -1.3755    4.3143    2.6427 C.ar      1 ATP         0.6475
     30 N3         -0.5075    3.4292    2.2616 N.ar      1 ATP        -0.5183
     31 C4         -0.3667    3.3425    0.9070 C.ar      1 ATP         0.3000
     32 HOG2        2.0364    1.8649   -6.9553 H         1 ATP         0.4939
     33 HOG3        5.7212    2.8936   -6.9288 H         1 ATP         0.4939
     34 HOB2        3.1639   -3.4624   -6.5739 H         1 ATP         0.5072
     35 HOA2       -0.0860   -2.2971   -3.2795 H         1 ATP         0.5058
     36 H5'1        2.8429    0.3147   -2.6388 H         1 ATP         0.0543
     37 H5'2        1.2125   -0.0898   -2.0417 H         1 ATP         0.0543
     38 H4'         3.8046   -0.1390   -0.4012 H         1 ATP         0.1294
     39 H3'         1.6787   -1.7628    0.2719 H         1 ATP         0.0900
     40 HO3'        2.2231   -1.2979    2.3952 H         1 ATP         0.4260
     41 H2'         0.0002   -0.0084   -0.0014 H         1 ATP         0.0698
     42 HO2'       -0.6132    0.5577    2.1063 H         1 ATP         0.4288
     43 H1'         1.7718    1.9211    1.6015 H         1 ATP         0.1374
     44 H8          0.6089    2.4651   -2.2147 H         1 ATP         0.2460
     45 HN61       -3.3458    6.4845   -0.1543 H         1 ATP         0.4865
     46 HN62       -2.5050    5.6683   -1.4502 H         1 ATP         0.4865
     47 H2         -1.5932    4.4937    3.7066 H         1 ATP         0.1083
     48 H48        -2.8098    5.8270    2.1160 H         1 ATP         0.4893
@<TRIPOS>BOND
     1    1    2 2
     2    1    3 1
     3    1    4 1
     4    1    8 1
     5    3   32 1
     6    4   33 1
     7    5    6 2
     8    5    7 1
     9    5    8 1
    10    5   12 1
    11    7   34 1
    12    9   10 2
    13    9   11 1
    14    9   12 1
    15    9   13 1
    16   11   35 1
    17   13   14 1
    18   14   15 1
    19   14   36 1
    20   14   37 1
    21   15   16 1
    22   15   17 1
    23   15   38 1
    24   16   21 1
    25   17   18 1
    26   17   19 1
    27   17   39 1
    28   18   40 1
    29   19   20 1
    30   19   21 1
    31   19   41 1
    32   20   42 1
    33   21   22 1
    34   21   43 1
    35   22   23 ar
    36   22   31 ar
    37   23   24 ar
    38   23   44 1
    39   24   25 ar
    40   25   26 ar
    41   25   31 ar
    42   26   27 1
    43   26   28 ar
    44   27   45 1
    45   27   46 1
    46   28   29 ar
    47   28   48 1
    48   29   30 ar
    49   29   47 1
    50   30   31 ar
@<TRIPOS>SUBSTRUCTURE
     1 ATP         1 GROUP 0 A     ****
@<TRIPOS>MOLECULE
[[5-(6-amino-1,8-dihydropurine-6,8-diylium-7-id-9-yl)-3,4-dihydroxy-tetrahydrofuran-2-yl]methoxy-hydroxy-phosphoryl] phosphono hydrogen phosphate
   48    50     1     0     0
SMALL
USER_CHARGES

@<TRIPOS>ATOM
      1 PG          4.8629    5.0919   -4.9805 P.3       1 ATP         1.7931
      2 O1G         4.1223    6.3897   -5.1154 O.2       1 ATP        -0.8245
      3 O2G         5.7445    4.6626   -6.2652 O.3       1 ATP        -0.7758
      4 O3G         5.9203    5.0282   -3.7597 O.3       1 ATP        -0.7758
      5 PB          2.8877    3.4503   -3.5287 P.3       1 ATP         1.9416
      6 O1B         3.4929    3.3935   -2.1570 O.2       1 ATP        -0.8420
      7 O2B         1.7081    4.5413   -3.7052 O.3       1 ATP        -0.7993
      8 O3B         3.9228    3.8039   -4.7178 O.3       1 ATP        -0.7763
      9 PA          2.8837    0.6137   -4.3156 P.3       1 ATP         1.7989
     10 O1A         4.0005    0.5905   -5.3184 O.2       1 ATP        -0.8148
     11 O2A         1.6113   -0.3033   -4.7122 O.3       1 ATP        -0.8139
     12 O3A         2.2372    2.0724   -4.0624 O.3       1 ATP        -0.8202
     13 O5'         3.2876    0.1332   -2.8242 O.3       1 ATP        -0.5616
     14 C5'         2.2816   -0.2918   -1.9206 C.3       1 ATP         0.1639
     15 C4'         2.7248    0.0226   -0.4980 C.3       1 ATP         0.1354
     16 O4'         2.4697    1.4219   -0.2462 O.3       1 ATP        -0.4135
     17 C3'         1.9404   -0.7419    0.5596 C.3       1 ATP         0.0995
     18 O3'         2.7418   -0.8086    1.7389 O.3       1 ATP        -0.5734
     19 C2'         0.7477    0.1630    0.7858 C.3       1 ATP         0.0652
     20 O2'         0.1373   -0.0577    2.0407 O.3       1 ATP        -0.5780
     21 C1'         1.3733    1.5427    0.6747 C.3       1 ATP         0.4207
     22 N9          0.4520    2.5240    0.1767 N.pl3     1 ATP        -0.4600
     23 C8         -0.3054    2.4845   -1.1576 C.ar      1 ATP         0.1694
     24 N7         -1.0755    3.5806   -1.2691 N.2       1 ATP        -0.2540
     25 C5         -0.8043    4.2306   -0.0942 C.ar      1 ATP        -0.1403
     26 C6         -1.4324    5.5335    0.2646 C.ar      1 ATP         0.4951
     27 N6         -2.2885    6.1055   -0.5675 N.pl3     1 ATP        -0.8019
     28 N1         -1.0537    6.0229    1.4478 N.pl3     1 ATP        -0.6941
     29 C2         -0.1096    5.3242    2.2908 C.ar      1 ATP         0.6475
     30 N3          0.4468    4.1904    1.9960 N.ar      1 ATP        -0.5183
     31 C4          0.0631    3.6855    0.7877 C.ar      1 ATP         0.3000
     32 HOG2        5.2952    4.5302   -7.1269 H         1 ATP         0.4939
     33 HOG3        5.5951    5.1538   -2.8429 H         1 ATP         0.4939
     34 HOB2        0.9056    4.4673   -3.1460 H         1 ATP         0.5072
     35 HOA2        1.7421   -1.2674   -4.8367 H         1 ATP         0.5058
     36 H5'1        1.3495    0.2323   -2.1554 H         1 ATP         0.0543
     37 H5'2        2.1262   -1.3685   -2.0437 H         1 ATP         0.0543
     38 H4'         3.8046   -0.1390   -0.4012 H         1 ATP         0.1294
     39 H3'         1.6787   -1.7628    0.2719 H         1 ATP         0.0900
     40 HO3'        2.2231   -1.2979    2.3952 H         1 ATP         0.4260
     41 H2'         0.0002   -0.0084   -0.0014 H         1 ATP         0.0698
     42 HO2'       -0.6132    0.5577    2.1063 H         1 ATP         0.4288
     43 H1'         1.7718    1.9211    1.6015 H         1 ATP         0.1374
     44 H8         -0.2991    1.7413   -1.9611 H         1 ATP         0.2460
     45 HN61       -2.5167    5.6603   -1.4447 H         1 ATP         0.4865
     46 HN62       -2.7159    6.9882   -0.3270 H         1 ATP         0.4865
     47 H2          0.1059    5.8491    3.2340 H         1 ATP         0.1083
     48 H48        -1.4532    6.9099    1.7401 H         1 ATP         0.4893
@<TRIPOS>BOND
     1    1    2 2
     2    1    3 1
     3    1    4 1
     4    1    8 1
     5    3   32 1
     6    4   33 1
     7    5    6 2
     8    5    7 1
     9    5    8 1
    10    5   12 1
    11    7   34 1
    12    9   10 2
    13    9   11 1
    14    9   12 1
    15    9   13 1
    16   11   35 1
    17   13   14 1
    18   14   15 1
    19   14   36 1
    20   14   37 1
    21   15   16 1
    22   15   17 1
    23   15   38 1
    24   16   21 1
    25   17   18 1
    26   17   19 1
    27   17   39 1
    28   18   40 1
    29   19   20 1
    30   19   21 1
    31   19   41 1
    32   20   42 1
    33   21   22 1
    34   21   43 1
    35   22   23 ar
    36   22   31 ar
    37   23   24 ar
    38   23   44 1
    39   24   25 ar
    40   25   26 ar
    41   25   31 ar
    42   26   27 1
    43   26   28 ar
    44   27   45 1
    45   27   46 1
    46   28   29 ar
    47   28   48 1
    48   29   30 ar
    49   29   47 1
    50   30   31 ar
@<TRIPOS>SUBSTRUCTURE
     1 ATP         1 GROUP 0 A     ****
@<TRIPOS>MOLECULE
[[5-(6-amino-1,8-dihydropurine-6,8-diylium-7-id-9-yl)-3,4-dihydroxy-tetrahydrofuran-2-yl]methoxy-hydroxy-phosphoryl] phosphono hydrogen phosphate
   48    50     1     0     0
SMALL
USER_CHARGES

@<TRIPOS>ATOM
      1 PG          6.3969   -3.0267   -6.0433 P.3       1 ATP         1.7931
      2 O1G         6.8806   -2.2932   -7.2595 O.2       1 ATP        -0.8245
      3 O2G         6.1662   -4.6141   -6.2401 O.3       1 ATP        -0.7758
      4 O3G         7.3736   -2.9445   -4.7580 O.3       1 ATP        -0.7758
      5 PB          4.5115   -1.0664   -4.9006 P.3       1 ATP         1.9416
      6 O1B         5.2794   -0.5666   -3.7125 O.2       1 ATP        -0.8420
      7 O2B         4.5717   -0.1067   -6.2000 O.3       1 ATP        -0.7993
      8 O3B         4.9818   -2.5067   -5.4613 O.3       1 ATP        -0.7763
      9 PA          2.1468   -2.2811   -3.6362 P.3       1 ATP         1.7989
     10 O1A         2.4480   -3.7421   -3.8041 O.2       1 ATP        -0.8148
     11 O2A         0.5929   -1.8899   -3.8585 O.3       1 ATP        -0.8139
     12 O3A         2.9337   -1.3101   -4.6600 O.3       1 ATP        -0.8202
     13 O5'         2.5234   -1.6624   -2.1893 O.3       1 ATP        -0.5616
     14 C5'         2.2816   -0.2918   -1.9206 C.3       1 ATP         0.1639
     15 C4'         2.7248    0.0226   -0.4980 C.3       1 ATP         0.1354
     16 O4'         2.4697    1.4219   -0.2462 O.3       1 ATP        -0.4135
     17 C3'         1.9404   -0.7419    0.5596 C.3       1 ATP         0.0995
     18 O3'         2.7418   -0.8086    1.7389 O.3       1 ATP        -0.5734
     19 C2'         0.7477    0.1630    0.7858 C.3       1 ATP         0.0652
     20 O2'         0.1373   -0.0577    2.0407 O.3       1 ATP        -0.5780
     21 C1'         1.3733    1.5427    0.6747 C.3       1 ATP         0.4207
     22 N9          0.4520    2.5240    0.1767 N.pl3     1 ATP        -0.4600
     23 C8          0.1798    2.8712   -1.2933 C.ar      1 ATP         0.1694
     24 N7         -0.7494    3.8400   -1.3610 N.2       1 ATP        -0.2540
     25 C5         -1.0173    4.0603   -0.0358 C.ar      1 ATP        -0.1403
     26 C6         -2.0105    5.0717    0.4241 C.ar      1 ATP         0.4951
     27 N6         -2.6723    5.7982   -0.4628 N.pl3     1 ATP        -0.8019
     28 N1         -2.1445    5.1522    1.7502 N.pl3     1 ATP        -0.6941
     29 C2         -1.3755    4.3143    2.6427 C.ar      1 ATP         0.6475
     30 N3         -0.5075    3.4292    2.2616 N.ar      1 ATP        -0.5183
     31 C4         -0.3667    3.3425    0.9070 C.ar      1 ATP         0.3000
     32 HOG2        6.9259   -5.1754   -6.5045 H         1 ATP         0.4939
     33 HOG3        7.5820   -2.0657   -4.3754 H         1 ATP         0.4939
     34 HOB2        5.4432    0.0893   -6.6053 H         1 ATP         0.5072
     35 HOA2       -0.0860   -2.2971   -3.2795 H         1 ATP         0.5058
     36 H5'1        2.8429    0.3147   -2.6388 H         1 ATP         0.0543
     37 H5'2        1.2125   -0.0898   -2.0417 H         1 ATP         0.0543
     38 H4'         3.8046   -0.1390   -0.4012 H         1 ATP         0.1294
     39 H3'         1.6787   -1.7628    0.2719 H         1 ATP         0.0900
     40 HO3'        2.2231   -1.2979    2.3952 H         1 ATP         0.4260
     41 H2'         0.0002   -0.0084   -0.0014 H         1 ATP         0.0698
     42 HO2'       -0.1554   -0.9852    2.0577 H         1 ATP         0.4288
     43 H1'         1.7718    1.9211    1.6015 H         1 ATP         0.1374
     44 H8          0.6089    2.4651   -2.2147 H         1 ATP         0.2460
     45 HN61       -2.5055    5.6680   -1.4503 H         1 ATP         0.4865
     46 HN62       -3.3462    6.4841   -0.1542 H         1 ATP         0.4865
     47 H2         -1.5932    4.4937    3.7066 H         1 ATP         0.1083
     48 H48        -2.8098    5.8270    2.1160 H         1 ATP         0.4893
@<TRIPOS>BOND
     1    1    2 2
     2    1    3 1
     3    1    4 1
     4    1    8 1
     5    3   32 1
     6    4   33 1
     7    5    6 2
     8    5    7 1
     9    5    8 1
    10    5   12 1
    11    7   34 1
    12    9   10 2
    13    9   11 1
    14    9   12 1
    15    9   13 1
    16   11   35 1
    17   13   14 1
    18   14   15 1
    19   14   36 1
    20   14   37 1
    21   15   16 1
    22   15   17 1
    23   15   38 1
    24   16   21 1
    25   17   18 1
    26   17   19 1
    27   17   39 1
    28   18   40 1
    29   19   20 1
    30   19   21 1
    31   19   41 1
    32   20   42 1
    33   21   22 1
    34   21   43 1
    35   22   23 ar
    36   22   31 ar
    37   23   24 ar
    38   23   44 1
    39   24   25 ar
    40   25   26 ar
    41   25   31 ar
    42   26   27 1
    43   26   28 ar
    44   27   45 1
    45   27   46 1
    46   28   29 ar
    47   28   48 1
    48   29   30 ar
    49   29   47 1
    50   30   31 ar
@<TRIPOS>SUBSTRUCTURE
     1 ATP         1 GROUP 0 A     ****
@<TRIPOS>MOLECULE
[[5-(6-amino-1,8-dihydropurine-6,8-diylium-7-id-9-yl)-3,4-dihydroxy-tetrahydrofuran-2-yl]methoxy-hydroxy-phosphoryl] phosphono hydrogen phosphate
   48    50     1     0     0
SMALL
USER_CHARGES

@<TRIPOS>ATOM
      1 PG         -0.2874    2.8999   -6.4891 P.3       1 ATP         1.7931
      2 O1G         0.2917    3.5504   -7.7108 O.2       1 ATP        -0.8245
      3 O2G        -1.7597    3.4136   -6.0649 O.3       1 ATP        -0.7758
      4 O3G        -0.4603    1.2955   -6.5818 O.3       1 ATP        -0.7758
      5 PB          2.1000    2.6750   -4.7704 P.3       1 ATP         1.9416
      6 O1B         3.1596    3.2763   -5.6461 O.2       1 ATP        -0.8420
      7 O2B         2.2285    3.0412   -3.2012 O.3       1 ATP        -0.7993
      8 O3B         0.5856    3.0965   -5.1433 O.3       1 ATP        -0.7763
      9 PA          3.0852   -0.0762   -4.4159 P.3       1 ATP         1.7989
     10 O1A         4.3456   -0.0389   -5.2303 O.2       1 ATP        -0.8148
     11 O2A         2.2470   -1.4538   -4.5457 O.3       1 ATP        -0.8139
     12 O3A         2.0050    1.0635   -4.7956 O.3       1 ATP        -0.8202
     13 O5'         3.2876    0.1332   -2.8242 O.3       1 ATP        -0.5616
     14 C5'         2.2816   -0.2918   -1.9206 C.3       1 ATP         0.1639
     15 C4'         2.7248    0.0226   -0.4980 C.3       1 ATP         0.1354
     16 O4'         2.4697    1.4219   -0.2462 O.3       1 ATP        -0.4135
     17 C3'         1.9404   -0.7419    0.5596 C.3       1 ATP         0.0995
     18 O3'         2.7418   -0.8086    1.7389 O.3       1 ATP        -0.5734
     19 C2'         0.7477    0.1630    0.7858 C.3       1 ATP         0.0652
     20 O2'         0.1373   -0.0577    2.0407 O.3       1 ATP        -0.5780
     21 C1'         1.3733    1.5427    0.6747 C.3       1 ATP         0.4207
     22 N9          0.4520    2.5240    0.1767 N.pl3     1 ATP        -0.4600
     23 C8         -0.3054    2.4845   -1.1576 C.ar      1 ATP         0.1694
     24 N7         -1.0755    3.5806   -1.2691 N.2       1 ATP        -0.2540
     25 C5         -0.8043    4.2306   -0.0942 C.ar      1 ATP        -0.1403
     26 C6         -1.4324    5.5335    0.2646 C.ar      1 ATP         0.4951
     27 N6         -2.2885    6.1055   -0.5675 N.pl3     1 ATP        -0.8019
     28 N1         -1.0537    6.0229    1.4478 N.pl3     1 ATP        -0.6941
     29 C2         -0.1096    5.3242    2.2908 C.ar      1 ATP         0.6475
     30 N3          0.4468    4.1904    1.9960 N.ar      1 ATP        -0.5183
     31 C4          0.0631    3.6855    0.7877 C.ar      1 ATP         0.3000
     32 HOG2       -1.8880    4.3614   -5.8479 H         1 ATP         0.4939
     33 HOG3        0.3343    0.7400   -6.7302 H         1 ATP         0.4939
     34 HOB2        3.0429    2.7836   -2.7189 H         1 ATP         0.5072
     35 HOA2        2.6751   -2.2959   -4.2818 H         1 ATP         0.5058
     36 H5'1        1.3495    0.2323   -2.1554 H         1 ATP         0.0543
     37 H5'2        2.1262   -1.3685   -2.0437 H         1 ATP         0.0543
     38 H4'         3.8046   -0.1390   -0.4012 H         1 ATP         0.1294
     39 H3'         1.6787   -1.7628    0.2719 H         1 ATP         0.0900
     40 HO3'        2.2231   -1.2979    2.3952 H         1 ATP         0.4260
     41 H2'         0.0002   -0.0084   -0.0014 H         1 ATP         0.0698
     42 HO2'       -0.6132    0.5577    2.1063 H         1 ATP         0.4288
     43 H1'         1.7718    1.9211    1.6015 H         1 ATP         0.1374
     44 H8         -0.2991    1.7413   -1.9611 H         1 ATP         0.2460
     45 HN61       -2.5167    5.6603   -1.4447 H         1 ATP         0.4865
     46 HN62       -2.7159    6.9882   -0.3270 H         1 ATP         0.4865
     47 H2          0.1059    5.8491    3.2340 H         1 ATP         0.1083
     48 H48        -1.4532    6.9099    1.7401 H         1 ATP         0.4893
@<TRIPOS>BOND
     1    1    2 2
     2    1    3 1
     3    1    4 1
     4    1    8 1
     5    3   32 1
     6    4   33 1
     7    5    6 2
     8    5    7 1
     9    5    8 1
    10    5   12 1
    11    7   34 1
    12    9   10 2
    13    9   11 1
    14    9   12 1
    15    9   13 1
    16   11   35 1
    17   13   14 1
    18   14   15 1
    19   14   36 1
    20   14   37 1
    21   15   16 1
    22   15   17 1
    23   15   38 1
    24   16   21 1
    25   17   18 1
    26   17   19 1
    27   17   39 1
    28   18   40 1
    29   19   20 1
    30   19   21 1
    31   19   41 1
    32   20   42 1
    33   21   22 1
    34   21   43 1
    35   22   23 ar
    36   22   31 ar
    37   23   24 ar
    38   23   44 1
    39   24   25 ar
    40   25   26 ar
    41   25   31 ar
    42   26   27 1
    43   26   28 ar
    44   27   45 1
    45   27   46 1
    46   28   29 ar
    47   28   48 1
    48   29   30 ar
    49   29   47 1
    50   30   31 ar
@<TRIPOS>SUBSTRUCTURE
     1 ATP         1 GROUP 0 A     ****
@<TRIPOS>MOLECULE
[[5-(6-amino-1,8-dihydropurine-6,8-diylium-7-id-9-yl)-3,4-dihydroxy-tetrahydrofuran-2-yl]methoxy-hydroxy-phosphoryl] phosphono hydrogen phosphate
   48    50     1     0     0
SMALL
USER_CHARGES

@<TRIPOS>ATOM
      1 PG         -0.6665   -1.5240   -7.2869 P.3       1 ATP         1.7931
      2 O1G        -0.2979   -1.3366   -8.7291 O.2       1 ATP        -0.8245
      3 O2G        -2.1204   -0.9578   -6.8661 O.3       1 ATP        -0.7758
      4 O3G        -0.6987   -3.0586   -6.7800 O.3       1 ATP        -0.7758
      5 PB          0.7601    0.7320   -6.0303 P.3       1 ATP         1.9416
      6 O1B         1.4125    1.3753   -7.2183 O.2       1 ATP        -0.8420
      7 O2B        -0.6041    1.4450   -5.5366 O.3       1 ATP        -0.7993
      8 O3B         0.3360   -0.8132   -6.2374 O.3       1 ATP        -0.7763
      9 PA          3.0852   -0.0762   -4.4159 P.3       1 ATP         1.7989
     10 O1A         4.2162    0.4128   -5.2733 O.2       1 ATP        -0.8148
     11 O2A         2.7521   -1.6504   -4.5840 O.3       1 ATP        -0.8139
     12 O3A         1.6672    0.6448   -4.6975 O.3       1 ATP        -0.8202
     13 O5'         3.2876    0.1332   -2.8242 O.3       1 ATP        -0.5616
     14 C5'         2.2816   -0.2918   -1.9206 C.3       1 ATP         0.1639
     15 C4'         2.7248    0.0226   -0.4980 C.3       1 ATP         0.1354
     16 O4'         2.4697    1.4219   -0.2462 O.3       1 ATP        -0.4135
     17 C3'         1.9404   -0.7419    0.5596 C.3       1 ATP         0.0995
     18 O3'         2.7418   -0.8086    1.7389 O.3       1 ATP        -0.5734
     19 C2'         0.7477    0.1630    0.7858 C.3       1 ATP         0.0652
     20 O2'         0.1373   -0.0577    2.0407 O.3       1 ATP        -0.5780
     21 C1'         1.3733    1.5427    0.6747 C.3       1 ATP         0.4207
     22 N9          0.4520    2.5240    0.1767 N.pl3     1 ATP        -0.4600
     23 C8          0.1798    2.8712   -1.2933 C.ar      1 ATP         0.1694
     24 N7         -0.7494    3.8400   -1.3610 N.2       1 ATP        -0.2540
     25 C5         -1.0173    4.0603   -0.0358 C.ar      1 ATP        -0.1403
     26 C6         -2.0105    5.0717    0.4241 C.ar      1 ATP         0.4951
     27 N6         -2.6723    5.7982   -0.4628 N.pl3     1 ATP        -0.8019
     28 N1         -2.1445    5.1522    1.7502 N.pl3     1 ATP        -0.6941
     29 C2         -1.3755    4.3143    2.6427 C.ar      1 ATP         0.6475
     30 N3         -0.5075    3.4292    2.2616 N.ar      1 ATP        -0.5183
     31 C4         -0.3667    3.3425    0.9070 C.ar      1 ATP         0.3000
     32 HOG2       -2.9175   -1.3193   -7.3089 H         1 ATP         0.4939
     33 HOG3       -1.3129   -3.6889   -7.2131 H         1 ATP         0.4939
     34 HOB2       -0.5733    2.3832   -5.2520 H         1 ATP         0.5072
     35 HOA2        3.4509   -2.3073   -4.3790 H         1 ATP         0.5058
     36 H5'1        1.3495    0.2323   -2.1554 H         1 ATP         0.0543
     37 H5'2        2.1262   -1.3685   -2.0437 H         1 ATP         0.0543
     38 H4'         3.8046   -0.1390   -0.4012 H         1 ATP         0.1294
     39 H3'         1.6787   -1.7628    0.2719 H         1 ATP         0.0900
     40 HO3'        3.5553   -1.2733    1.4913 H         1 ATP         0.4260
     41 H2'         0.0002   -0.0084   -0.0014 H         1 ATP         0.0698
     42 HO2'       -0.1554   -0.9852    2.0577 H         1 ATP         0.4288
     43 H1'         1.7718    1.9211    1.6015 H         1 ATP         0.1374
     44 H8          0.6089    2.4651   -2.2147 H         1 ATP         0.2460
     45 HN61       -2.5055    5.6680   -1.4503 H         1 ATP         0.4865
     46 HN62       -3.3462    6.4841   -0.1542 H         1 ATP         0.4865
     47 H2         -1.5932    4.4937    3.7066 H         1 ATP         0.1083
     48 H48        -2.8098    5.8270    2.1160 H         1 ATP         0.4893
@<TRIPOS>BOND
     1    1    2 2
     2    1    3 1
     3    1    4 1
     4    1    8 1
     5    3   32 1
     6    4   33 1
     7    5    6 2
     8    5    7 1
     9    5    8 1
    10    5   12 1
    11    7   34 1
    12    9   10 2
    13    9   11 1
    14    9   12 1
    15    9   13 1
    16   11   35 1
    17   13   14 1
    18   14   15 1
    19   14   36 1
    20   14   37 1
    21   15   16 1
    22   15   17 1
    23   15   38 1
    24   16   21 1
    25   17   18 1
    26   17   19 1
    27   17   39 1
    28   18   40 1
    29   19   20 1
    30   19   21 1
    31   19   41 1
    32   20   42 1
    33   21   22 1
    34   21   43 1
    35   22   23 ar
    36   22   31 ar
    37   23   24 ar
    38   23   44 1
    39   24   25 ar
    40   25   26 ar
    41   25   31 ar
    42   26   27 1
    43   26   28 ar
    44   27   45 1
    45   27   46 1
    46   28   29 ar
    47   28   48 1
    48   29   30 ar
    49   29   47 1
    50   30   31 ar
@<TRIPOS>SUBSTRUCTURE
     1 ATP         1 GROUP 0 A     ****
@<TRIPOS>MOLECULE
[[5-(6-amino-1,8-dihydropurine-6,8-diylium-7-id-9-yl)-3,4-dihydroxy-tetrahydrofuran-2-yl]methoxy-hydroxy-phosphoryl] phosphono hydrogen phosphate
   48    50     1     0     0
SMALL
USER_CHARGES

@<TRIPOS>ATOM
      1 PG          0.6591   -0.3880   -7.9509 P.3       1 ATP         1.7931
      2 O1G         1.2441    0.7974   -8.6607 O.2       1 ATP        -0.8245
      3 O2G        -0.8871   -0.2336   -7.5069 O.3       1 ATP        -0.7758
      4 O3G         0.6735   -1.7681   -8.7922 O.3       1 ATP        -0.7758
      5 PB          2.9332   -1.2340   -6.2727 P.3       1 ATP         1.9416
      6 O1B         3.3845   -2.4772   -6.9810 O.2       1 ATP        -0.8420
      7 O2B         3.7979    0.0899   -6.6084 O.3       1 ATP        -0.7993
      8 O3B         1.4102   -0.7890   -6.5773 O.3       1 ATP        -0.7763
      9 PA          2.1468   -2.2811   -3.6362 P.3       1 ATP         1.7989
     10 O1A         2.4480   -3.7421   -3.8041 O.2       1 ATP        -0.8148
     11 O2A         0.5929   -1.8899   -3.8585 O.3       1 ATP        -0.8139
     12 O3A         2.9337   -1.3101   -4.6600 O.3       1 ATP        -0.8202
     13 O5'         2.5234   -1.6624   -2.1893 O.3       1 ATP        -0.5616
     14 C5'         2.2816   -0.2918   -1.9206 C.3       1 ATP         0.1639
     15 C4'         2.7248    0.0226   -0.4980 C.3       1 ATP         0.1354
     16 O4'         2.4697    1.4219   -0.2462 O.3       1 ATP        -0.4135
     17 C3'         1.9404   -0.7419    0.5596 C.3       1 ATP         0.0995
     18 O3'         2.7418   -0.8086    1.7389 O.3       1 ATP        -0.5734
     19 C2'         0.7477    0.1630    0.7858 C.3       1 ATP         0.0652
     20 O2'         0.1373   -0.0577    2.0407 O.3       1 ATP        -0.5780
     21 C1'         1.3733    1.5427    0.6747 C.3       1 ATP         0.4207
     22 N9          0.4520    2.5240    0.1767 N.pl3     1 ATP        -0.4600
     23 C8          0.1798    2.8712   -1.2933 C.ar      1 ATP         0.1694
     24 N7         -0.7494    3.8400   -1.3610 N.2       1 ATP        -0.2540
     25 C5         -1.0173    4.0603   -0.0358 C.ar      1 ATP        -0.1403
     26 C6         -2.0105    5.0717    0.4241 C.ar      1 ATP         0.4951
     27 N6         -2.6723    5.7982   -0.4628 N.pl3     1 ATP        -0.8019
     28 N1         -2.1445    5.1522    1.7502 N.pl3     1 ATP        -0.6941
     29 C2         -1.3755    4.3143    2.6427 C.ar      1 ATP         0.6475
     30 N3         -0.5075    3.4292    2.2616 N.ar      1 ATP        -0.5183
     31 C4         -0.3667    3.3425    0.9070 C.ar      1 ATP         0.3000
     32 HOG2       -1.5663   -0.0779   -8.1971 H         1 ATP         0.4939
     33 HOG3        1.5336   -2.1342   -9.0893 H         1 ATP         0.4939
     34 HOB2        3.8425    0.4050   -7.5362 H         1 ATP         0.5072
     35 HOA2       -0.0860   -2.2971   -3.2795 H         1 ATP         0.5058
     36 H5'1        2.8429    0.3147   -2.6388 H         1 ATP         0.0543
     37 H5'2        1.2125   -0.0898   -2.0417 H         1 ATP         0.0543
     38 H4'         3.8046   -0.1390   -0.4012 H         1 ATP         0.1294
     39 H3'         1.6787   -1.7628    0.2719 H         1 ATP         0.0900
     40 HO3'        2.2231   -1.2979    2.3952 H         1 ATP         0.4260
     41 H2'         0.0002   -0.0084   -0.0014 H         1 ATP         0.0698
     42 HO2'       -0.6132    0.5577    2.1063 H         1 ATP         0.4288
     43 H1'         1.7718    1.9211    1.6015 H         1 ATP         0.1374
     44 H8          0.6089    2.4651   -2.2147 H         1 ATP         0.2460
     45 HN61       -3.3458    6.4845   -0.1543 H         1 ATP         0.4865
     46 HN62       -2.5050    5.6683   -1.4502 H         1 ATP         0.4865
     47 H2         -1.5932    4.4937    3.7066 H         1 ATP         0.1083
     48 H48        -2.8098    5.8270    2.1160 H         1 ATP         0.4893
@<TRIPOS>BOND
     1    1    2 2
     2    1    3 1
     3    1    4 1
     4    1    8 1
     5    3   32 1
     6    4   33 1
     7    5    6 2
     8    5    7 1
     9    5    8 1
    10    5   12 1
    11    7   34 1
    12    9   10 2
    13    9   11 1
    14    9   12 1
    15    9   13 1
    16   11   35 1
    17   13   14 1
    18   14   15 1
    19   14   36 1
    20   14   37 1
    21   15   16 1
    22   15   17 1
    23   15   38 1
    24   16   21 1
    25   17   18 1
    26   17   19 1
    27   17   39 1
    28   18   40 1
    29   19   20 1
    30   19   21 1
    31   19   41 1
    32   20   42 1
    33   21   22 1
    34   21   43 1
    35   22   23 ar
    36   22   31 ar
    37   23   24 ar
    38   23   44 1
    39   24   25 ar
    40   25   26 ar
    41   25   31 ar
    42   26   27 1
    43   26   28 ar
    44   27   45 1
    45   27   46 1
    46   28   29 ar
    47   28   48 1
    48   29   30 ar
    49   29   47 1
    50   30   31 ar
@<TRIPOS>SUBSTRUCTURE
     1 ATP         1 GROUP 0 A     ****
@<TRIPOS>MOLECULE
[[5-(6-amino-1,8-dihydropurine-6,8-diylium-7-id-9-yl)-3,4-dihydroxy-tetrahydrofuran-2-yl]methoxy-hydroxy-phosphoryl] phosphono hydrogen phosphate
   48    50     1     0     0
SMALL
USER_CHARGES

@<TRIPOS>ATOM
      1 PG          4.7329    0.4311   -7.9135 P.3       1 ATP         1.7931
      2 O1G         3.7632    1.0466   -8.8789 O.2       1 ATP        -0.8245
      3 O2G         5.5507   -0.8448   -8.4746 O.3       1 ATP        -0.7758
      4 O3G         5.8959    1.4206   -7.3835 O.3       1 ATP        -0.7758
      5 PB          2.9332   -1.2340   -6.2727 P.3       1 ATP         1.9416
      6 O1B         1.6029   -0.9572   -6.9088 O.2       1 ATP        -0.8420
      7 O2B         3.6323   -2.6160   -6.7360 O.3       1 ATP        -0.7993
      8 O3B         4.0670   -0.1161   -6.5464 O.3       1 ATP        -0.7763
      9 PA          2.1468   -2.2811   -3.6362 P.3       1 ATP         1.7989
     10 O1A         2.4480   -3.7421   -3.8041 O.2       1 ATP        -0.8148
     11 O2A         0.5929   -1.8899   -3.8585 O.3       1 ATP        -0.8139
     12 O3A         2.9337   -1.3101   -4.6600 O.3       1 ATP        -0.8202
     13 O5'         2.5234   -1.6624   -2.1893 O.3       1 ATP        -0.5616
     14 C5'         2.2816   -0.2918   -1.9206 C.3       1 ATP         0.1639
     15 C4'         2.7248    0.0226   -0.4980 C.3       1 ATP         0.1354
     16 O4'         2.4697    1.4219   -0.2462 O.3       1 ATP        -0.4135
     17 C3'         1.9404   -0.7419    0.5596 C.3       1 ATP         0.0995
     18 O3'         2.7418   -0.8086    1.7389 O.3       1 ATP        -0.5734
     19 C2'         0.7477    0.1630    0.7858 C.3       1 ATP         0.0652
     20 O2'         0.1373   -0.0577    2.0407 O.3       1 ATP        -0.5780
     21 C1'         1.3733    1.5427    0.6747 C.3       1 ATP         0.4207
     22 N9          0.4520    2.5240    0.1767 N.pl3     1 ATP        -0.4600
     23 C8          0.1798    2.8712   -1.2933 C.ar      1 ATP         0.1694
     24 N7         -0.7494    3.8400   -1.3610 N.2       1 ATP        -0.2540
     25 C5         -1.0173    4.0603   -0.0358 C.ar      1 ATP        -0.1403
     26 C6         -2.0105    5.0717    0.4241 C.ar      1 ATP         0.4951
     27 N6         -2.6723    5.7982   -0.4628 N.pl3     1 ATP        -0.8019
     28 N1         -2.1445    5.1522    1.7502 N.pl3     1 ATP        -0.6941
     29 C2         -1.3755    4.3143    2.6427 C.ar      1 ATP         0.6475
     30 N3         -0.5075    3.4292    2.2616 N.ar      1 ATP        -0.5183
     31 C4         -0.3667    3.3425    0.9070 C.ar      1 ATP         0.3000
     32 HOG2        5.0524   -1.6376   -8.7666 H         1 ATP         0.4939
     33 HOG3        6.5100    1.8229   -8.0340 H         1 ATP         0.4939
     34 HOB2        3.1639   -3.4624   -6.5739 H         1 ATP         0.5072
     35 HOA2       -0.0860   -2.2971   -3.2795 H         1 ATP         0.5058
     36 H5'1        2.8429    0.3147   -2.6388 H         1 ATP         0.0543
     37 H5'2        1.2125   -0.0898   -2.0417 H         1 ATP         0.0543
     38 H4'         3.8046   -0.1390   -0.4012 H         1 ATP         0.1294
     39 H3'         1.6787   -1.7628    0.2719 H         1 ATP         0.0900
     40 HO3'        2.2231   -1.2979    2.3952 H         1 ATP         0.4260
     41 H2'         0.0002   -0.0084   -0.0014 H         1 ATP         0.0698
     42 HO2'       -0.6132    0.5577    2.1063 H         1 ATP         0.4288
     43 H1'         1.7718    1.9211    1.6015 H         1 ATP         0.1374
     44 H8          0.6089    2.4651   -2.2147 H         1 ATP         0.2460
     45 HN61       -2.5055    5.6680   -1.4503 H         1 ATP         0.4865
     46 HN62       -3.3462    6.4841   -0.1542 H         1 ATP         0.4865
     47 H2         -1.5932    4.4937    3.7066 H         1 ATP         0.1083
     48 H48        -2.8098    5.8270    2.1160 H         1 ATP         0.4893
@<TRIPOS>BOND
     1    1    2 2
     2    1    3 1
     3    1    4 1
     4    1    8 1
     5    3   32 1
     6    4   33 1
     7    5    6 2
     8    5    7 1
     9    5    8 1
    10    5   12 1
    11    7   34 1
    12    9   10 2
    13    9   11 1
    14    9   12 1
    15    9   13 1
    16   11   35 1
    17   13   14 1
    18   14   15 1
    19   14   36 1
    20   14   37 1
    21   15   16 1
    22   15   17 1
    23   15   38 1
    24   16   21 1
    25   17   18 1
    26   17   19 1
    27   17   39 1
    28   18   40 1
    29   19   20 1
    30   19   21 1
    31   19   41 1
    32   20   42 1
    33   21   22 1
    34   21   43 1
    35   22   23 ar
    36   22   31 ar
    37   23   24 ar
    38   23   44 1
    39   24   25 ar
    40   25   26 ar
    41   25   31 ar
    42   26   27 1
    43   26   28 ar
    44   27   45 1
    45   27   46 1
    46   28   29 ar
    47   28   48 1
    48   29   30 ar
    49   29   47 1
    50   30   31 ar
@<TRIPOS>SUBSTRUCTURE
     1 ATP         1 GROUP 0 A     ****
@<TRIPOS>MOLECULE
[[5-(6-amino-1,8-dihydropurine-6,8-diylium-7-id-9-yl)-3,4-dihydroxy-tetrahydrofuran-2-yl]methoxy-hydroxy-phosphoryl] phosphono hydrogen phosphate
   48    50     1     0     0
SMALL
USER_CHARGES

@<TRIPOS>ATOM
      1 PG          6.1056    1.4907   -4.5719 P.3       1 ATP         1.7931
      2 O1G         5.5228    2.4689   -5.5490 O.2       1 ATP        -0.8245
      3 O2G         7.6470    1.7556   -4.1652 O.3       1 ATP        -0.7758
      4 O3G         5.3483    1.4103   -3.1462 O.3       1 ATP        -0.7758
      5 PB          4.9029   -1.0376   -5.5018 P.3       1 ATP         1.9416
      6 O1B         4.0761   -0.5691   -6.6628 O.2       1 ATP        -0.8420
      7 O2B         5.6367   -2.4611   -5.7222 O.3       1 ATP        -0.7993
      8 O3B         6.1040   -0.0453   -5.0742 O.3       1 ATP        -0.7763
      9 PA          2.8567   -2.1438   -3.6977 P.3       1 ATP         1.7989
     10 O1A         3.0944   -3.6170   -3.8601 O.2       1 ATP        -0.8148
     11 O2A         1.6417   -1.5609   -4.5928 O.3       1 ATP        -0.8139
     12 O3A         4.1111   -1.2111   -4.1056 O.3       1 ATP        -0.8202
     13 O5'         2.5234   -1.6624   -2.1893 O.3       1 ATP        -0.5616
     14 C5'         2.2816   -0.2918   -1.9206 C.3       1 ATP         0.1639
     15 C4'         2.7248    0.0226   -0.4980 C.3       1 ATP         0.1354
     16 O4'         2.4697    1.4219   -0.2462 O.3       1 ATP        -0.4135
     17 C3'         1.9404   -0.7419    0.5596 C.3       1 ATP         0.0995
     18 O3'         2.7418   -0.8086    1.7389 O.3       1 ATP        -0.5734
     19 C2'         0.7477    0.1630    0.7858 C.3       1 ATP         0.0652
     20 O2'         0.1373   -0.0577    2.0407 O.3       1 ATP        -0.5780
     21 C1'         1.3733    1.5427    0.6747 C.3       1 ATP         0.4207
     22 N9          0.4520    2.5240    0.1767 N.pl3     1 ATP        -0.4600
     23 C8          0.1798    2.8712   -1.2933 C.ar      1 ATP         0.1694
     24 N7         -0.7494    3.8400   -1.3610 N.2       1 ATP        -0.2540
     25 C5         -1.0173    4.0603   -0.0358 C.ar      1 ATP        -0.1403
     26 C6         -2.0105    5.0717    0.4241 C.ar      1 ATP         0.4951
     27 N6         -2.6723    5.7982   -0.4628 N.pl3     1 ATP        -0.8019
     28 N1         -2.1445    5.1522    1.7502 N.pl3     1 ATP        -0.6941
     29 C2         -1.3755    4.3143    2.6427 C.ar      1 ATP         0.6475
     30 N3         -0.5075    3.4292    2.2616 N.ar      1 ATP        -0.5183
     31 C4         -0.3667    3.3425    0.9070 C.ar      1 ATP         0.3000
     32 HOG2        8.3320    1.7458   -4.8671 H         1 ATP         0.4939
     33 HOG3        5.2929    2.2175   -2.5918 H         1 ATP         0.4939
     34 HOB2        5.0887   -3.2553   -5.8984 H         1 ATP         0.5072
     35 HOA2        0.7391   -1.9204   -4.4587 H         1 ATP         0.5058
     36 H5'1        2.8429    0.3147   -2.6388 H         1 ATP         0.0543
     37 H5'2        1.2125   -0.0898   -2.0417 H         1 ATP         0.0543
     38 H4'         3.8046   -0.1390   -0.4012 H         1 ATP         0.1294
     39 H3'         1.6787   -1.7628    0.2719 H         1 ATP         0.0900
     40 HO3'        2.2231   -1.2979    2.3952 H         1 ATP         0.4260
     41 H2'         0.0002   -0.0084   -0.0014 H         1 ATP         0.0698
     42 HO2'       -0.6132    0.5577    2.1063 H         1 ATP         0.4288
     43 H1'         1.7718    1.9211    1.6015 H         1 ATP         0.1374
     44 H8          0.6089    2.4651   -2.2147 H         1 ATP         0.2460
     45 HN61       -3.3458    6.4845   -0.1543 H         1 ATP         0.4865
     46 HN62       -2.5050    5.6683   -1.4502 H         1 ATP         0.4865
     47 H2         -1.5932    4.4937    3.7066 H         1 ATP         0.1083
     48 H48        -2.8098    5.8270    2.1160 H         1 ATP         0.4893
@<TRIPOS>BOND
     1    1    2 2
     2    1    3 1
     3    1    4 1
     4    1    8 1
     5    3   32 1
     6    4   33 1
     7    5    6 2
     8    5    7 1
     9    5    8 1
    10    5   12 1
    11    7   34 1
    12    9   10 2
    13    9   11 1
    14    9   12 1
    15    9   13 1
    16   11   35 1
    17   13   14 1
    18   14   15 1
    19   14   36 1
    20   14   37 1
    21   15   16 1
    22   15   17 1
    23   15   38 1
    24   16   21 1
    25   17   18 1
    26   17   19 1
    27   17   39 1
    28   18   40 1
    29   19   20 1
    30   19   21 1
    31   19   41 1
    32   20   42 1
    33   21   22 1
    34   21   43 1
    35   22   23 ar
    36   22   31 ar
    37   23   24 ar
    38   23   44 1
    39   24   25 ar
    40   25   26 ar
    41   25   31 ar
    42   26   27 1
    43   26   28 ar
    44   27   45 1
    45   27   46 1
    46   28   29 ar
    47   28   48 1
    48   29   30 ar
    49   29   47 1
    50   30   31 ar
@<TRIPOS>SUBSTRUCTURE
     1 ATP         1 GROUP 0 A     ****
@<TRIPOS>MOLECULE
[[5-(6-amino-1,8-dihydropurine-6,8-diylium-7-id-9-yl)-3,4-dihydroxy-tetrahydrofuran-2-yl]methoxy-hydroxy-phosphoryl] phosphono hydrogen phosphate
   48    50     1     0     0
SMALL
USER_CHARGES

@<TRIPOS>ATOM
      1 PG          3.7731    4.3243   -6.5549 P.3       1 ATP         1.7931
      2 O1G         4.4058    5.2672   -5.5743 O.2       1 ATP        -0.8245
      3 O2G         2.4987    4.9130   -7.3557 O.3       1 ATP        -0.7758
      4 O3G         4.7490    3.8011   -7.7324 O.3       1 ATP        -0.7758
      5 PB          2.1000    2.6750   -4.7704 P.3       1 ATP         1.9416
      6 O1B         2.3926    3.2870   -3.4322 O.2       1 ATP        -0.8420
      7 O2B         0.7193    3.1653   -5.4533 O.3       1 ATP        -0.7993
      8 O3B         3.2140    2.9534   -5.9070 O.3       1 ATP        -0.7763
      9 PA          3.0852   -0.0762   -4.4159 P.3       1 ATP         1.7989
     10 O1A         4.3456   -0.0389   -5.2303 O.2       1 ATP        -0.8148
     11 O2A         2.2470   -1.4538   -4.5457 O.3       1 ATP        -0.8139
     12 O3A         2.0050    1.0635   -4.7956 O.3       1 ATP        -0.8202
     13 O5'         3.2876    0.1332   -2.8242 O.3       1 ATP        -0.5616
     14 C5'         2.2816   -0.2918   -1.9206 C.3       1 ATP         0.1639
     15 C4'         2.7248    0.0226   -0.4980 C.3       1 ATP         0.1354
     16 O4'         2.4697    1.4219   -0.2462 O.3       1 ATP        -0.4135
     17 C3'         1.9404   -0.7419    0.5596 C.3       1 ATP         0.0995
     18 O3'         2.7418   -0.8086    1.7389 O.3       1 ATP        -0.5734
     19 C2'         0.7477    0.1630    0.7858 C.3       1 ATP         0.0652
     20 O2'         0.1373   -0.0577    2.0407 O.3       1 ATP        -0.5780
     21 C1'         1.3733    1.5427    0.6747 C.3       1 ATP         0.4207
     22 N9          0.4520    2.5240    0.1767 N.pl3     1 ATP        -0.4600
     23 C8         -0.3054    2.4845   -1.1576 C.ar      1 ATP         0.1694
     24 N7         -1.0755    3.5806   -1.2691 N.2       1 ATP        -0.2540
     25 C5         -0.8043    4.2306   -0.0942 C.ar      1 ATP        -0.1403
     26 C6         -1.4324    5.5335    0.2646 C.ar      1 ATP         0.4951
     27 N6         -2.2885    6.1055   -0.5675 N.pl3     1 ATP        -0.8019
     28 N1         -1.0537    6.0229    1.4478 N.pl3     1 ATP        -0.6941
     29 C2         -0.1096    5.3242    2.2908 C.ar      1 ATP         0.6475
     30 N3          0.4468    4.1904    1.9960 N.ar      1 ATP        -0.5183
     31 C4          0.0631    3.6855    0.7877 C.ar      1 ATP         0.3000
     32 HOG2        1.7126    5.2064   -6.8479 H         1 ATP         0.4939
     33 HOG3        5.1551    4.4564   -8.3388 H         1 ATP         0.4939
     34 HOB2       -0.1261    3.0058   -4.9822 H         1 ATP         0.5072
     35 HOA2        2.6751   -2.2959   -4.2818 H         1 ATP         0.5058
     36 H5'1        1.3495    0.2323   -2.1554 H         1 ATP         0.0543
     37 H5'2        2.1262   -1.3685   -2.0437 H         1 ATP         0.0543
     38 H4'         3.8046   -0.1390   -0.4012 H         1 ATP         0.1294
     39 H3'         1.6787   -1.7628    0.2719 H         1 ATP         0.0900
     40 HO3'        2.2231   -1.2979    2.3952 H         1 ATP         0.4260
     41 H2'         0.0002   -0.0084   -0.0014 H         1 ATP         0.0698
     42 HO2'       -0.6132    0.5577    2.1063 H         1 ATP         0.4288
     43 H1'         1.7718    1.9211    1.6015 H         1 ATP         0.1374
     44 H8         -0.2991    1.7413   -1.9611 H         1 ATP         0.2460
     45 HN61       -2.7155    6.9885   -0.3273 H         1 ATP         0.4865
     46 HN62       -2.5163    5.6604   -1.4450 H         1 ATP         0.4865
     47 H2          0.1059    5.8491    3.2340 H         1 ATP         0.1083
     48 H48        -1.4532    6.9099    1.7401 H         1 ATP         0.4893
@<TRIPOS>BOND
     1    1    2 2
     2    1    3 1
     3    1    4 1
     4    1    8 1
     5    3   32 1
     6    4   33 1
     7    5    6 2
     8    5    7 1
     9    5    8 1
    10    5   12 1
    11    7   34 1
    12    9   10 2
    13    9   11 1
    14    9   12 1
    15    9   13 1
    16   11   35 1
    17   13   14 1
    18   14   15 1
    19   14   36 1
    20   14   37 1
    21   15   16 1
    22   15   17 1
    23   15   38 1
    24   16   21 1
    25   17   18 1
    26   17   19 1
    27   17   39 1
    28   18   40 1
    29   19   20 1
    30   19   21 1
    31   19   41 1
    32   20   42 1
    33   21   22 1
    34   21   43 1
    35   22   23 ar
    36   22   31 ar
    37   23   24 ar
    38   23   44 1
    39   24   25 ar
    40   25   26 ar
    41   25   31 ar
    42   26   27 1
    43   26   28 ar
    44   27   45 1
    45   27   46 1
    46   28   29 ar
    47   28   48 1
    48   29   30 ar
    49   29   47 1
    50   30   31 ar
@<TRIPOS>SUBSTRUCTURE
     1 ATP         1 GROUP 0 A     ****
@<TRIPOS>MOLECULE
[[5-(6-amino-1,8-dihydropurine-6,8-diylium-7-id-9-yl)-3,4-dihydroxy-tetrahydrofuran-2-yl]methoxy-hydroxy-phosphoryl] phosphono hydrogen phosphate
   48    50     1     0     0
SMALL
USER_CHARGES

@<TRIPOS>ATOM
      1 PG          2.1455    4.3706   -6.3540 P.3       1 ATP         1.7931
      2 O1G         0.8511    4.8322   -6.9562 O.2       1 ATP        -0.8245
      3 O2G         3.4082    4.3502   -7.3624 O.3       1 ATP        -0.7758
      4 O3G         2.6745    5.2505   -5.1056 O.3       1 ATP        -0.7758
      5 PB          1.2172    2.1919   -4.5946 P.3       1 ATP         1.9416
      6 O1B         1.3564    2.8193   -3.2389 O.2       1 ATP        -0.8420
      7 O2B        -0.2813    2.2112   -5.2005 O.3       1 ATP        -0.7993
      8 O3B         2.1129    2.8696   -5.7560 O.3       1 ATP        -0.7763
      9 PA          3.0852   -0.0762   -4.4159 P.3       1 ATP         1.7989
     10 O1A         4.2162    0.4128   -5.2733 O.2       1 ATP        -0.8148
     11 O2A         2.7521   -1.6504   -4.5840 O.3       1 ATP        -0.8139
     12 O3A         1.6672    0.6448   -4.6975 O.3       1 ATP        -0.8202
     13 O5'         3.2876    0.1332   -2.8242 O.3       1 ATP        -0.5616
     14 C5'         2.2816   -0.2918   -1.9206 C.3       1 ATP         0.1639
     15 C4'         2.7248    0.0226   -0.4980 C.3       1 ATP         0.1354
     16 O4'         2.4697    1.4219   -0.2462 O.3       1 ATP        -0.4135
     17 C3'         1.9404   -0.7419    0.5596 C.3       1 ATP         0.0995
     18 O3'         2.7418   -0.8086    1.7389 O.3       1 ATP        -0.5734
     19 C2'         0.7477    0.1630    0.7858 C.3       1 ATP         0.0652
     20 O2'         0.1373   -0.0577    2.0407 O.3       1 ATP        -0.5780
     21 C1'         1.3733    1.5427    0.6747 C.3       1 ATP         0.4207
     22 N9          0.4520    2.5240    0.1767 N.pl3     1 ATP        -0.4600
     23 C8         -0.7463    2.2774   -0.7501 C.ar      1 ATP         0.1694
     24 N7         -1.3714    3.4419   -0.9948 N.2       1 ATP        -0.2540
     25 C5         -0.6104    4.3223   -0.2723 C.ar      1 ATP        -0.1403
     26 C6         -0.9062    5.7820   -0.2194 C.ar      1 ATP         0.4951
     27 N6         -1.9385    6.2713   -0.8881 N.pl3     1 ATP        -0.8019
     28 N1         -0.0613    6.4906    0.5336 N.pl3     1 ATP        -0.6941
     29 C2          1.0416    5.8662    1.2291 C.ar      1 ATP         0.6475
     30 N3          1.3146    4.5989    1.1954 N.ar      1 ATP        -0.5183
     31 C4          0.4541    3.8697    0.4273 C.ar      1 ATP         0.3000
     32 HOG2        3.3666    3.7873   -8.1645 H         1 ATP         0.4939
     33 HOG3        2.1124    5.3252   -4.3053 H         1 ATP         0.4939
     34 HOB2       -0.9986    1.7594   -4.7072 H         1 ATP         0.5072
     35 HOA2        3.4509   -2.3073   -4.3790 H         1 ATP         0.5058
     36 H5'1        1.3495    0.2323   -2.1554 H         1 ATP         0.0543
     37 H5'2        2.1262   -1.3685   -2.0437 H         1 ATP         0.0543
     38 H4'         3.8046   -0.1390   -0.4012 H         1 ATP         0.1294
     39 H3'         1.6787   -1.7628    0.2719 H         1 ATP         0.0900
     40 HO3'        2.2231   -1.2979    2.3952 H         1 ATP         0.4260
     41 H2'         0.0002   -0.0084   -0.0014 H         1 ATP         0.0698
     42 HO2'       -0.6132    0.5577    2.1063 H         1 ATP         0.4288
     43 H1'         1.7718    1.9211    1.6015 H         1 ATP         0.1374
     44 H8         -1.1244    1.3534   -1.1987 H         1 ATP         0.2460
     45 HN61       -2.5259    5.6573   -1.4336 H         1 ATP         0.4865
     46 HN62       -2.1416    7.2600   -0.8539 H         1 ATP         0.4865
     47 H2          1.6509    6.5764    1.8088 H         1 ATP         0.1083
     48 H48        -0.2190    7.4917    0.6033 H         1 ATP         0.4893
@<TRIPOS>BOND
     1    1    2 2
     2    1    3 1
     3    1    4 1
     4    1    8 1
     5    3   32 1
     6    4   33 1
     7    5    6 2
     8    5    7 1
     9    5    8 1
    10    5   12 1
    11    7   34 1
    12    9   10 2
    13    9   11 1
    14    9   12 1
    15    9   13 1
    16   11   35 1
    17   13   14 1
    18   14   15 1
    19   14   36 1
    20   14   37 1
    21   15   16 1
    22   15   17 1
    23   15   38 1
    24   16   21 1
    25   17   18 1
    26   17   19 1
    27   17   39 1
    28   18   40 1
    29   19   20 1
    30   19   21 1
    31   19   41 1
    32   20   42 1
    33   21   22 1
    34   21   43 1
    35   22   23 ar
    36   22   31 ar
    37   23   24 ar
    38   23   44 1
    39   24   25 ar
    40   25   26 ar
    41   25   31 ar
    42   26   27 1
    43   26   28 ar
    44   27   45 1
    45   27   46 1
    46   28   29 ar
    47   28   48 1
    48   29   30 ar
    49   29   47 1
    50   30   31 ar
@<TRIPOS>SUBSTRUCTURE
     1 ATP         1 GROUP 0 A     ****
@<TRIPOS>MOLECULE
[[5-(6-amino-1,8-dihydropurine-6,8-diylium-7-id-9-yl)-3,4-dihydroxy-tetrahydrofuran-2-yl]methoxy-hydroxy-phosphoryl] phosphono hydrogen phosphate
   48    50     1     0     0
SMALL
USER_CHARGES

@<TRIPOS>ATOM
      1 PG          3.9749    0.2178   -7.5019 P.3       1 ATP         1.7931
      2 O1G         2.5165   -0.0850   -7.6825 O.2       1 ATP        -0.8245
      3 O2G         4.9871   -0.7600   -8.2963 O.3       1 ATP        -0.7758
      4 O3G         4.4328    1.6954   -7.9706 O.3       1 ATP        -0.7758
      5 PB          4.5115   -1.0664   -4.9006 P.3       1 ATP         1.9416
      6 O1B         5.2984   -2.2739   -5.3171 O.2       1 ATP        -0.8420
      7 O2B         5.0179   -0.3643   -3.5354 O.3       1 ATP        -0.7993
      8 O3B         4.4946    0.1414   -5.9736 O.3       1 ATP        -0.7763
      9 PA          2.1468   -2.2811   -3.6362 P.3       1 ATP         1.7989
     10 O1A         2.4480   -3.7421   -3.8041 O.2       1 ATP        -0.8148
     11 O2A         0.5929   -1.8899   -3.8585 O.3       1 ATP        -0.8139
     12 O3A         2.9337   -1.3101   -4.6600 O.3       1 ATP        -0.8202
     13 O5'         2.5234   -1.6624   -2.1893 O.3       1 ATP        -0.5616
     14 C5'         2.2816   -0.2918   -1.9206 C.3       1 ATP         0.1639
     15 C4'         2.7248    0.0226   -0.4980 C.3       1 ATP         0.1354
     16 O4'         2.4697    1.4219   -0.2462 O.3       1 ATP        -0.4135
     17 C3'         1.9404   -0.7419    0.5596 C.3       1 ATP         0.0995
     18 O3'         2.7418   -0.8086    1.7389 O.3       1 ATP        -0.5734
     19 C2'         0.7477    0.1630    0.7858 C.3       1 ATP         0.0652
     20 O2'         0.1373   -0.0577    2.0407 O.3       1 ATP        -0.5780
     21 C1'         1.3733    1.5427    0.6747 C.3       1 ATP         0.4207
     22 N9          0.4520    2.5240    0.1767 N.pl3     1 ATP        -0.4600
     23 C8          0.1798    2.8712   -1.2933 C.ar      1 ATP         0.1694
     24 N7         -0.7494    3.8400   -1.3610 N.2       1 ATP        -0.2540
     25 C5         -1.0173    4.0603   -0.0358 C.ar      1 ATP        -0.1403
     26 C6         -2.0105    5.0717    0.4241 C.ar      1 ATP         0.4951
     27 N6         -2.6723    5.7982   -0.4628 N.pl3     1 ATP        -0.8019
     28 N1         -2.1445    5.1522    1.7502 N.pl3     1 ATP        -0.6941
     29 C2         -1.3755    4.3143    2.6427 C.ar      1 ATP         0.6475
     30 N3         -0.5075    3.4292    2.2616 N.ar      1 ATP        -0.5183
     31 C4         -0.3667    3.3425    0.9070 C.ar      1 ATP         0.3000
     32 HOG2        4.9721   -1.7207   -8.0995 H         1 ATP         0.4939
     33 HOG3        4.3020    1.9584   -8.9064 H         1 ATP         0.4939
     34 HOB2        5.0189   -0.8866   -2.7051 H         1 ATP         0.5072
     35 HOA2       -0.0860   -2.2971   -3.2795 H         1 ATP         0.5058
     36 H5'1        2.8429    0.3147   -2.6388 H         1 ATP         0.0543
     37 H5'2        1.2125   -0.0898   -2.0417 H         1 ATP         0.0543
     38 H4'         3.8046   -0.1390   -0.4012 H         1 ATP         0.1294
     39 H3'         1.6787   -1.7628    0.2719 H         1 ATP         0.0900
     40 HO3'        2.2231   -1.2979    2.3952 H         1 ATP         0.4260
     41 H2'         0.0002   -0.0084   -0.0014 H         1 ATP         0.0698
     42 HO2'       -0.6132    0.5577    2.1063 H         1 ATP         0.4288
     43 H1'         1.7718    1.9211    1.6015 H         1 ATP         0.1374
     44 H8          0.6089    2.4651   -2.2147 H         1 ATP         0.2460
     45 HN61       -3.3458    6.4845   -0.1543 H         1 ATP         0.4865
     46 HN62       -2.5050    5.6683   -1.4502 H         1 ATP         0.4865
     47 H2         -1.5932    4.4937    3.7066 H         1 ATP         0.1083
     48 H48        -2.8098    5.8270    2.1160 H         1 ATP         0.4893
@<TRIPOS>BOND
     1    1    2 2
     2    1    3 1
     3    1    4 1
     4    1    8 1
     5    3   32 1
     6    4   33 1
     7    5    6 2
     8    5    7 1
     9    5    8 1
    10    5   12 1
    11    7   34 1
    12    9   10 2
    13    9   11 1
    14    9   12 1
    15    9   13 1
    16   11   35 1
    17   13   14 1
    18   14   15 1
    19   14   36 1
    20   14   37 1
    21   15   16 1
    22   15   17 1
    23   15   38 1
    24   16   21 1
    25   17   18 1
    26   17   19 1
    27   17   39 1
    28   18   40 1
    29   19   20 1
    30   19   21 1
    31   19   41 1
    32   20   42 1
    33   21   22 1
    34   21   43 1
    35   22   23 ar
    36   22   31 ar
    37   23   24 ar
    38   23   44 1
    39   24   25 ar
    40   25   26 ar
    41   25   31 ar
    42   26   27 1
    43   26   28 ar
    44   27   45 1
    45   27   46 1
    46   28   29 ar
    47   28   48 1
    48   29   30 ar
    49   29   47 1
    50   30   31 ar
@<TRIPOS>SUBSTRUCTURE
     1 ATP         1 GROUP 0 A     ****
@<TRIPOS>MOLECULE
[[5-(6-amino-1,8-dihydropurine-6,8-diylium-7-id-9-yl)-3,4-dihydroxy-tetrahydrofuran-2-yl]methoxy-hydroxy-phosphoryl] phosphono hydrogen phosphate
   48    50     1     0     0
SMALL
USER_CHARGES

@<TRIPOS>ATOM
      1 PG          7.6740   -3.2333   -3.8394 P.3       1 ATP         1.7931
      2 O1G         8.2108   -3.3240   -2.4413 O.2       1 ATP        -0.8245
      3 O2G         8.5560   -2.3457   -4.8620 O.3       1 ATP        -0.7758
      4 O3G         7.5159   -4.6468   -4.6074 O.3       1 ATP        -0.7758
      5 PB          5.6188   -1.1392   -3.5324 P.3       1 ATP         1.9416
      6 O1B         5.7436   -0.8057   -2.0749 O.2       1 ATP        -0.8420
      7 O2B         6.3748   -0.1159   -4.5296 O.3       1 ATP        -0.7993
      8 O3B         6.1968   -2.5879   -3.9535 O.3       1 ATP        -0.7763
      9 PA          2.8567   -2.1438   -3.6977 P.3       1 ATP         1.7989
     10 O1A         3.0944   -3.6170   -3.8601 O.2       1 ATP        -0.8148
     11 O2A         1.6417   -1.5609   -4.5928 O.3       1 ATP        -0.8139
     12 O3A         4.1111   -1.2111   -4.1056 O.3       1 ATP        -0.8202
     13 O5'         2.5234   -1.6624   -2.1893 O.3       1 ATP        -0.5616
     14 C5'         2.2816   -0.2918   -1.9206 C.3       1 ATP         0.1639
     15 C4'         2.7248    0.0226   -0.4980 C.3       1 ATP         0.1354
     16 O4'         2.4697    1.4219   -0.2462 O.3       1 ATP        -0.4135
     17 C3'         1.9404   -0.7419    0.5596 C.3       1 ATP         0.0995
     18 O3'         2.7418   -0.8086    1.7389 O.3       1 ATP        -0.5734
     19 C2'         0.7477    0.1630    0.7858 C.3       1 ATP         0.0652
     20 O2'         0.1373   -0.0577    2.0407 O.3       1 ATP        -0.5780
     21 C1'         1.3733    1.5427    0.6747 C.3       1 ATP         0.4207
     22 N9          0.4520    2.5240    0.1767 N.pl3     1 ATP        -0.4600
     23 C8          0.1798    2.8712   -1.2933 C.ar      1 ATP         0.1694
     24 N7         -0.7494    3.8400   -1.3610 N.2       1 ATP        -0.2540
     25 C5         -1.0173    4.0603   -0.0358 C.ar      1 ATP        -0.1403
     26 C6         -2.0105    5.0717    0.4241 C.ar      1 ATP         0.4951
     27 N6         -2.6723    5.7982   -0.4628 N.pl3     1 ATP        -0.8019
     28 N1         -2.1445    5.1522    1.7502 N.pl3     1 ATP        -0.6941
     29 C2         -1.3755    4.3143    2.6427 C.ar      1 ATP         0.6475
     30 N3         -0.5075    3.4292    2.2616 N.ar      1 ATP        -0.5183
     31 C4         -0.3667    3.3425    0.9070 C.ar      1 ATP         0.3000
     32 HOG2        8.7066   -1.3977   -4.6602 H         1 ATP         0.4939
     33 HOG3        6.9268   -5.3316   -4.2252 H         1 ATP         0.4939
     34 HOB2        6.1130    0.8293   -4.5275 H         1 ATP         0.5072
     35 HOA2        1.6893   -1.6447   -5.5689 H         1 ATP         0.5058
     36 H5'1        2.8429    0.3147   -2.6388 H         1 ATP         0.0543
     37 H5'2        1.2125   -0.0898   -2.0417 H         1 ATP         0.0543
     38 H4'         3.8046   -0.1390   -0.4012 H         1 ATP         0.1294
     39 H3'         1.6787   -1.7628    0.2719 H         1 ATP         0.0900
     40 HO3'        2.2231   -1.2979    2.3952 H         1 ATP         0.4260
     41 H2'         0.0002   -0.0084   -0.0014 H         1 ATP         0.0698
     42 HO2'       -0.6132    0.5577    2.1063 H         1 ATP         0.4288
     43 H1'         1.7718    1.9211    1.6015 H         1 ATP         0.1374
     44 H8          0.6089    2.4651   -2.2147 H         1 ATP         0.2460
     45 HN61       -3.3458    6.4845   -0.1543 H         1 ATP         0.4865
     46 HN62       -2.5050    5.6683   -1.4502 H         1 ATP         0.4865
     47 H2         -1.5932    4.4937    3.7066 H         1 ATP         0.1083
     48 H48        -2.8098    5.8270    2.1160 H         1 ATP         0.4893
@<TRIPOS>BOND
     1    1    2 2
     2    1    3 1
     3    1    4 1
     4    1    8 1
     5    3   32 1
     6    4   33 1
     7    5    6 2
     8    5    7 1
     9    5    8 1
    10    5   12 1
    11    7   34 1
    12    9   10 2
    13    9   11 1
    14    9   12 1
    15    9   13 1
    16   11   35 1
    17   13   14 1
    18   14   15 1
    19   14   36 1
    20   14   37 1
    21   15   16 1
    22   15   17 1
    23   15   38 1
    24   16   21 1
    25   17   18 1
    26   17   19 1
    27   17   39 1
    28   18   40 1
    29   19   20 1
    30   19   21 1
    31   19   41 1
    32   20   42 1
    33   21   22 1
    34   21   43 1
    35   22   23 ar
    36   22   31 ar
    37   23   24 ar
    38   23   44 1
    39   24   25 ar
    40   25   26 ar
    41   25   31 ar
    42   26   27 1
    43   26   28 ar
    44   27   45 1
    45   27   46 1
    46   28   29 ar
    47   28   48 1
    48   29   30 ar
    49   29   47 1
    50   30   31 ar
@<TRIPOS>SUBSTRUCTURE
     1 ATP         1 GROUP 0 A     ****
@<TRIPOS>MOLECULE
[[5-(6-amino-1,8-dihydropurine-6,8-diylium-7-id-9-yl)-3,4-dihydroxy-tetrahydrofuran-2-yl]methoxy-hydroxy-phosphoryl] phosphono hydrogen phosphate
   48    50     1     0     0
SMALL
USER_CHARGES

@<TRIPOS>ATOM
      1 PG          6.6749   -1.1766   -6.5389 P.3       1 ATP         1.7931
      2 O1G         7.8102   -0.7935   -5.6359 O.2       1 ATP        -0.8245
      3 O2G         6.4566   -0.2161   -7.8200 O.3       1 ATP        -0.7758
      4 O3G         6.7823   -2.6527   -7.1887 O.3       1 ATP        -0.7758
      5 PB          4.3737   -0.0392   -5.0847 P.3       1 ATP         1.9416
      6 O1B         5.0448    0.5754   -3.8919 O.2       1 ATP        -0.8420
      7 O2B         4.0145    0.9988   -6.2707 O.3       1 ATP        -0.7993
      8 O3B         5.2243   -1.1951   -5.8267 O.3       1 ATP        -0.7763
      9 PA          2.6333   -2.0590   -3.8369 P.3       1 ATP         1.7989
     10 O1A         3.3648   -3.3236   -4.1822 O.2       1 ATP        -0.8148
     11 O2A         1.0223   -2.1729   -3.9297 O.3       1 ATP        -0.8139
     12 O3A         2.9810   -0.7998   -4.7875 O.3       1 ATP        -0.8202
     13 O5'         2.9196   -1.4816   -2.3527 O.3       1 ATP        -0.5616
     14 C5'         2.2816   -0.2918   -1.9206 C.3       1 ATP         0.1639
     15 C4'         2.7248    0.0226   -0.4980 C.3       1 ATP         0.1354
     16 O4'         2.4697    1.4219   -0.2462 O.3       1 ATP        -0.4135
     17 C3'         1.9404   -0.7419    0.5596 C.3       1 ATP         0.0995
     18 O3'         2.7418   -0.8086    1.7389 O.3       1 ATP        -0.5734
     19 C2'         0.7477    0.1630    0.7858 C.3       1 ATP         0.0652
     20 O2'         0.1373   -0.0577    2.0407 O.3       1 ATP        -0.5780
     21 C1'         1.3733    1.5427    0.6747 C.3       1 ATP         0.4207
     22 N9          0.4520    2.5240    0.1767 N.pl3     1 ATP        -0.4600
     23 C8          0.1798    2.8712   -1.2933 C.ar      1 ATP         0.1694
     24 N7         -0.7494    3.8400   -1.3610 N.2       1 ATP        -0.2540
     25 C5         -1.0173    4.0603   -0.0358 C.ar      1 ATP        -0.1403
     26 C6         -2.0105    5.0717    0.4241 C.ar      1 ATP         0.4951
     27 N6         -2.6723    5.7982   -0.4628 N.pl3     1 ATP        -0.8019
     28 N1         -2.1445    5.1522    1.7502 N.pl3     1 ATP        -0.6941
     29 C2         -1.3755    4.3143    2.6427 C.ar      1 ATP         0.6475
     30 N3         -0.5075    3.4292    2.2616 N.ar      1 ATP        -0.5183
     31 C4         -0.3667    3.3425    0.9070 C.ar      1 ATP         0.3000
     32 HOG2        6.2637    0.7344   -7.6738 H         1 ATP         0.4939
     33 HOG3        7.5529   -2.8666   -7.7566 H         1 ATP         0.4939
     34 HOB2        3.4121    1.7488   -6.0788 H         1 ATP         0.5072
     35 HOA2        0.5598   -2.8269   -3.3635 H         1 ATP         0.5058
     36 H5'1        2.5578    0.5242   -2.5963 H         1 ATP         0.0543
     37 H5'2        1.1971   -0.4363   -1.9604 H         1 ATP         0.0543
     38 H4'         3.8046   -0.1390   -0.4012 H         1 ATP         0.1294
     39 H3'         1.6787   -1.7628    0.2719 H         1 ATP         0.0900
     40 HO3'        2.2231   -1.2979    2.3952 H         1 ATP         0.4260
     41 H2'         0.0002   -0.0084   -0.0014 H         1 ATP         0.0698
     42 HO2'       -0.6132    0.5577    2.1063 H         1 ATP         0.4288
     43 H1'         1.7718    1.9211    1.6015 H         1 ATP         0.1374
     44 H8          0.6089    2.4651   -2.2147 H         1 ATP         0.2460
     45 HN61       -3.3458    6.4845   -0.1543 H         1 ATP         0.4865
     46 HN62       -2.5050    5.6683   -1.4502 H         1 ATP         0.4865
     47 H2         -1.5932    4.4937    3.7066 H         1 ATP         0.1083
     48 H48        -2.8098    5.8270    2.1160 H         1 ATP         0.4893
@<TRIPOS>BOND
     1    1    2 2
     2    1    3 1
     3    1    4 1
     4    1    8 1
     5    3   32 1
     6    4   33 1
     7    5    6 2
     8    5    7 1
     9    5    8 1
    10    5   12 1
    11    7   34 1
    12    9   10 2
    13    9   11 1
    14    9   12 1
    15    9   13 1
    16   11   35 1
    17   13   14 1
    18   14   15 1
    19   14   36 1
    20   14   37 1
    21   15   16 1
    22   15   17 1
    23   15   38 1
    24   16   21 1
    25   17   18 1
    26   17   19 1
    27   17   39 1
    28   18   40 1
    29   19   20 1
    30   19   21 1
    31   19   41 1
    32   20   42 1
    33   21   22 1
    34   21   43 1
    35   22   23 ar
    36   22   31 ar
    37   23   24 ar
    38   23   44 1
    39   24   25 ar
    40   25   26 ar
    41   25   31 ar
    42   26   27 1
    43   26   28 ar
    44   27   45 1
    45   27   46 1
    46   28   29 ar
    47   28   48 1
    48   29   30 ar
    49   29   47 1
    50   30   31 ar
@<TRIPOS>SUBSTRUCTURE
     1 ATP         1 GROUP 0 A     ****
@<TRIPOS>MOLECULE
[[5-(6-amino-1,8-dihydropurine-6,8-diylium-7-id-9-yl)-3,4-dihydroxy-tetrahydrofuran-2-yl]methoxy-hydroxy-phosphoryl] phosphono hydrogen phosphate
   48    50     1     0     0
SMALL
USER_CHARGES

@<TRIPOS>ATOM
      1 PG          5.6831    1.0263   -6.6186 P.3       1 ATP         1.7931
      2 O1G         6.7047    0.2384   -7.3844 O.2       1 ATP        -0.8245
      3 O2G         6.2570    1.8648   -5.3619 O.3       1 ATP        -0.7758
      4 O3G         4.8856    2.1374   -7.4801 O.3       1 ATP        -0.7758
      5 PB          4.5115   -1.0664   -4.9006 P.3       1 ATP         1.9416
      6 O1B         5.2984   -2.2739   -5.3171 O.2       1 ATP        -0.8420
      7 O2B         5.0179   -0.3643   -3.5354 O.3       1 ATP        -0.7993
      8 O3B         4.4946    0.1414   -5.9736 O.3       1 ATP        -0.7763
      9 PA          2.1468   -2.2811   -3.6362 P.3       1 ATP         1.7989
     10 O1A         2.4480   -3.7421   -3.8041 O.2       1 ATP        -0.8148
     11 O2A         0.5929   -1.8899   -3.8585 O.3       1 ATP        -0.8139
     12 O3A         2.9337   -1.3101   -4.6600 O.3       1 ATP        -0.8202
     13 O5'         2.5234   -1.6624   -2.1893 O.3       1 ATP        -0.5616
     14 C5'         2.2816   -0.2918   -1.9206 C.3       1 ATP         0.1639
     15 C4'         2.7248    0.0226   -0.4980 C.3       1 ATP         0.1354
     16 O4'         2.4697    1.4219   -0.2462 O.3       1 ATP        -0.4135
     17 C3'         1.9404   -0.7419    0.5596 C.3       1 ATP         0.0995
     18 O3'         2.7418   -0.8086    1.7389 O.3       1 ATP        -0.5734
     19 C2'         0.7477    0.1630    0.7858 C.3       1 ATP         0.0652
     20 O2'         0.1373   -0.0577    2.0407 O.3       1 ATP        -0.5780
     21 C1'         1.3733    1.5427    0.6747 C.3       1 ATP         0.4207
     22 N9          0.4520    2.5240    0.1767 N.pl3     1 ATP        -0.4600
     23 C8          0.1798    2.8712   -1.2933 C.ar      1 ATP         0.1694
     24 N7         -0.7494    3.8400   -1.3610 N.2       1 ATP        -0.2540
     25 C5         -1.0173    4.0603   -0.0358 C.ar      1 ATP        -0.1403
     26 C6         -2.0105    5.0717    0.4241 C.ar      1 ATP         0.4951
     27 N6         -2.6723    5.7982   -0.4628 N.pl3     1 ATP        -0.8019
     28 N1         -2.1445    5.1522    1.7502 N.pl3     1 ATP        -0.6941
     29 C2         -1.3755    4.3143    2.6427 C.ar      1 ATP         0.6475
     30 N3         -0.5075    3.4292    2.2616 N.ar      1 ATP        -0.5183
     31 C4         -0.3667    3.3425    0.9070 C.ar      1 ATP         0.3000
     32 HOG2        6.7029    1.3830   -4.6331 H         1 ATP         0.4939
     33 HOG3        5.3927    2.8581   -7.9109 H         1 ATP         0.4939
     34 HOB2        5.0189   -0.8866   -2.7051 H         1 ATP         0.5072
     35 HOA2       -0.0860   -2.2971   -3.2795 H         1 ATP         0.5058
     36 H5'1        2.8429    0.3147   -2.6388 H         1 ATP         0.0543
     37 H5'2        1.2125   -0.0898   -2.0417 H         1 ATP         0.0543
     38 H4'         3.8046   -0.1390   -0.4012 H         1 ATP         0.1294
     39 H3'         1.6787   -1.7628    0.2719 H         1 ATP         0.0900
     40 HO3'        2.2231   -1.2979    2.3952 H         1 ATP         0.4260
     41 H2'         0.0002   -0.0084   -0.0014 H         1 ATP         0.0698
     42 HO2'       -0.6132    0.5577    2.1063 H         1 ATP         0.4288
     43 H1'         1.7718    1.9211    1.6015 H         1 ATP         0.1374
     44 H8          0.6089    2.4651   -2.2147 H         1 ATP         0.2460
     45 HN61       -3.3458    6.4845   -0.1543 H         1 ATP         0.4865
     46 HN62       -2.5050    5.6683   -1.4502 H         1 ATP         0.4865
     47 H2         -1.5932    4.4937    3.7066 H         1 ATP         0.1083
     48 H48        -2.8098    5.8270    2.1160 H         1 ATP         0.4893
@<TRIPOS>BOND
     1    1    2 2
     2    1    3 1
     3    1    4 1
     4    1    8 1
     5    3   32 1
     6    4   33 1
     7    5    6 2
     8    5    7 1
     9    5    8 1
    10    5   12 1
    11    7   34 1
    12    9   10 2
    13    9   11 1
    14    9   12 1
    15    9   13 1
    16   11   35 1
    17   13   14 1
    18   14   15 1
    19   14   36 1
    20   14   37 1
    21   15   16 1
    22   15   17 1
    23   15   38 1
    24   16   21 1
    25   17   18 1
    26   17   19 1
    27   17   39 1
    28   18   40 1
    29   19   20 1
    30   19   21 1
    31   19   41 1
    32   20   42 1
    33   21   22 1
    34   21   43 1
    35   22   23 ar
    36   22   31 ar
    37   23   24 ar
    38   23   44 1
    39   24   25 ar
    40   25   26 ar
    41   25   31 ar
    42   26   27 1
    43   26   28 ar
    44   27   45 1
    45   27   46 1
    46   28   29 ar
    47   28   48 1
    48   29   30 ar
    49   29   47 1
    50   30   31 ar
@<TRIPOS>SUBSTRUCTURE
     1 ATP         1 GROUP 0 A     ****
@<TRIPOS>MOLECULE
[[5-(6-amino-1,8-dihydropurine-6,8-diylium-7-id-9-yl)-3,4-dihydroxy-tetrahydrofuran-2-yl]methoxy-hydroxy-phosphoryl] phosphono hydrogen phosphate
   48    50     1     0     0
SMALL
USER_CHARGES

@<TRIPOS>ATOM
      1 PG         -0.1497    4.5345   -5.2002 P.3       1 ATP         1.7931
      2 O1G         0.4566    5.5093   -6.1663 O.2       1 ATP        -0.8245
      3 O2G        -0.1686    5.0126   -3.6566 O.3       1 ATP        -0.7758
      4 O3G        -1.6911    4.1459   -5.4931 O.3       1 ATP        -0.7758
      5 PB          2.1000    2.6750   -4.7704 P.3       1 ATP         1.9416
      6 O1B         3.1596    3.2763   -5.6461 O.2       1 ATP        -0.8420
      7 O2B         2.2285    3.0412   -3.2012 O.3       1 ATP        -0.7993
      8 O3B         0.5856    3.0965   -5.1433 O.3       1 ATP        -0.7763
      9 PA          3.0852   -0.0762   -4.4159 P.3       1 ATP         1.7989
     10 O1A         4.3456   -0.0389   -5.2303 O.2       1 ATP        -0.8148
     11 O2A         2.2470   -1.4538   -4.5457 O.3       1 ATP        -0.8139
     12 O3A         2.0050    1.0635   -4.7956 O.3       1 ATP        -0.8202
     13 O5'         3.2876    0.1332   -2.8242 O.3       1 ATP        -0.5616
     14 C5'         2.2816   -0.2918   -1.9206 C.3       1 ATP         0.1639
     15 C4'         2.7248    0.0226   -0.4980 C.3       1 ATP         0.1354
     16 O4'         2.4697    1.4219   -0.2462 O.3       1 ATP        -0.4135
     17 C3'         1.9404   -0.7419    0.5596 C.3       1 ATP         0.0995
     18 O3'         2.7418   -0.8086    1.7389 O.3       1 ATP        -0.5734
     19 C2'         0.7477    0.1630    0.7858 C.3       1 ATP         0.0652
     20 O2'         0.1373   -0.0577    2.0407 O.3       1 ATP        -0.5780
     21 C1'         1.3733    1.5427    0.6747 C.3       1 ATP         0.4207
     22 N9          0.4520    2.5240    0.1767 N.pl3     1 ATP        -0.4600
     23 C8         -0.7463    2.2774   -0.7501 C.ar      1 ATP         0.1694
     24 N7         -1.3714    3.4419   -0.9948 N.2       1 ATP        -0.2540
     25 C5         -0.6104    4.3223   -0.2723 C.ar      1 ATP        -0.1403
     26 C6         -0.9062    5.7820   -0.2194 C.ar      1 ATP         0.4951
     27 N6         -1.9385    6.2713   -0.8881 N.pl3     1 ATP        -0.8019
     28 N1         -0.0613    6.4906    0.5336 N.pl3     1 ATP        -0.6941
     29 C2          1.0416    5.8662    1.2291 C.ar      1 ATP         0.6475
     30 N3          1.3146    4.5989    1.1954 N.ar      1 ATP        -0.5183
     31 C4          0.4541    3.8697    0.4273 C.ar      1 ATP         0.3000
     32 HOG2       -0.6514    5.8326   -3.4191 H         1 ATP         0.4939
     33 HOG3       -2.3682    4.8556   -5.4919 H         1 ATP         0.4939
     34 HOB2        2.1891    3.9826   -2.9287 H         1 ATP         0.5072
     35 HOA2        1.9175   -1.7270   -5.4282 H         1 ATP         0.5058
     36 H5'1        1.3495    0.2323   -2.1554 H         1 ATP         0.0543
     37 H5'2        2.1262   -1.3685   -2.0437 H         1 ATP         0.0543
     38 H4'         3.8046   -0.1390   -0.4012 H         1 ATP         0.1294
     39 H3'         1.6787   -1.7628    0.2719 H         1 ATP         0.0900
     40 HO3'        2.2231   -1.2979    2.3952 H         1 ATP         0.4260
     41 H2'         0.0002   -0.0084   -0.0014 H         1 ATP         0.0698
     42 HO2'       -0.6132    0.5577    2.1063 H         1 ATP         0.4288
     43 H1'         1.7718    1.9211    1.6015 H         1 ATP         0.1374
     44 H8         -1.1244    1.3534   -1.1987 H         1 ATP         0.2460
     45 HN61       -2.5259    5.6573   -1.4336 H         1 ATP         0.4865
     46 HN62       -2.1416    7.2600   -0.8539 H         1 ATP         0.4865
     47 H2          1.6509    6.5764    1.8088 H         1 ATP         0.1083
     48 H48        -0.2190    7.4917    0.6033 H         1 ATP         0.4893
@<TRIPOS>BOND
     1    1    2 2
     2    1    3 1
     3    1    4 1
     4    1    8 1
     5    3   32 1
     6    4   33 1
     7    5    6 2
     8    5    7 1
     9    5    8 1
    10    5   12 1
    11    7   34 1
    12    9   10 2
    13    9   11 1
    14    9   12 1
    15    9   13 1
    16   11   35 1
    17   13   14 1
    18   14   15 1
    19   14   36 1
    20   14   37 1
    21   15   16 1
    22   15   17 1
    23   15   38 1
    24   16   21 1
    25   17   18 1
    26   17   19 1
    27   17   39 1
    28   18   40 1
    29   19   20 1
    30   19   21 1
    31   19   41 1
    32   20   42 1
    33   21   22 1
    34   21   43 1
    35   22   23 ar
    36   22   31 ar
    37   23   24 ar
    38   23   44 1
    39   24   25 ar
    40   25   26 ar
    41   25   31 ar
    42   26   27 1
    43   26   28 ar
    44   27   45 1
    45   27   46 1
    46   28   29 ar
    47   28   48 1
    48   29   30 ar
    49   29   47 1
    50   30   31 ar
@<TRIPOS>SUBSTRUCTURE
     1 ATP         1 GROUP 0 A     ****
@<TRIPOS>MOLECULE
[[5-(6-amino-1,8-dihydropurine-6,8-diylium-7-id-9-yl)-3,4-dihydroxy-tetrahydrofuran-2-yl]methoxy-hydroxy-phosphoryl] phosphono hydrogen phosphate
   48    50     1     0     0
SMALL
USER_CHARGES

@<TRIPOS>ATOM
      1 PG          3.8048    0.1687   -7.9600 P.3       1 ATP         1.7931
      2 O1G         4.2291   -0.8335   -8.9928 O.2       1 ATP        -0.8245
      3 O2G         4.7418    1.4803   -7.8440 O.3       1 ATP        -0.7758
      4 O3G         2.3232    0.7813   -8.1654 O.3       1 ATP        -0.7758
      5 PB          4.9029   -1.0376   -5.5018 P.3       1 ATP         1.9416
      6 O1B         5.5508   -2.2797   -6.0390 O.2       1 ATP        -0.8420
      7 O2B         5.9151    0.1941   -5.2345 O.3       1 ATP        -0.7993
      8 O3B         3.7590   -0.4000   -6.4480 O.3       1 ATP        -0.7763
      9 PA          2.8567   -2.1438   -3.6977 P.3       1 ATP         1.7989
     10 O1A         3.0944   -3.6170   -3.8601 O.2       1 ATP        -0.8148
     11 O2A         1.6417   -1.5609   -4.5928 O.3       1 ATP        -0.8139
     12 O3A         4.1111   -1.2111   -4.1056 O.3       1 ATP        -0.8202
     13 O5'         2.5234   -1.6624   -2.1893 O.3       1 ATP        -0.5616
     14 C5'         2.2816   -0.2918   -1.9206 C.3       1 ATP         0.1639
     15 C4'         2.7248    0.0226   -0.4980 C.3       1 ATP         0.1354
     16 O4'         2.4697    1.4219   -0.2462 O.3       1 ATP        -0.4135
     17 C3'         1.9404   -0.7419    0.5596 C.3       1 ATP         0.0995
     18 O3'         2.7418   -0.8086    1.7389 O.3       1 ATP        -0.5734
     19 C2'         0.7477    0.1630    0.7858 C.3       1 ATP         0.0652
     20 O2'         0.1373   -0.0577    2.0407 O.3       1 ATP        -0.5780
     21 C1'         1.3733    1.5427    0.6747 C.3       1 ATP         0.4207
     22 N9          0.4520    2.5240    0.1767 N.pl3     1 ATP        -0.4600
     23 C8          0.1798    2.8712   -1.2933 C.ar      1 ATP         0.1694
     24 N7         -0.7494    3.8400   -1.3610 N.2       1 ATP        -0.2540
     25 C5         -1.0173    4.0603   -0.0358 C.ar      1 ATP        -0.1403
     26 C6         -2.0105    5.0717    0.4241 C.ar      1 ATP         0.4951
     27 N6         -2.6723    5.7982   -0.4628 N.pl3     1 ATP        -0.8019
     28 N1         -2.1445    5.1522    1.7502 N.pl3     1 ATP        -0.6941
     29 C2         -1.3755    4.3143    2.6427 C.ar      1 ATP         0.6475
     30 N3         -0.5075    3.4292    2.2616 N.ar      1 ATP        -0.5183
     31 C4         -0.3667    3.3425    0.9070 C.ar      1 ATP         0.3000
     32 HOG2        5.6890    1.3687   -7.6149 H         1 ATP         0.4939
     33 HOG3        2.1213    1.2685   -8.9924 H         1 ATP         0.4939
     34 HOB2        6.6520    0.0735   -4.5985 H         1 ATP         0.5072
     35 HOA2        1.6893   -1.6447   -5.5689 H         1 ATP         0.5058
     36 H5'1        2.8429    0.3147   -2.6388 H         1 ATP         0.0543
     37 H5'2        1.2125   -0.0898   -2.0417 H         1 ATP         0.0543
     38 H4'         3.8046   -0.1390   -0.4012 H         1 ATP         0.1294
     39 H3'         1.6787   -1.7628    0.2719 H         1 ATP         0.0900
     40 HO3'        2.2231   -1.2979    2.3952 H         1 ATP         0.4260
     41 H2'         0.0002   -0.0084   -0.0014 H         1 ATP         0.0698
     42 HO2'       -0.1554   -0.9852    2.0577 H         1 ATP         0.4288
     43 H1'         1.7718    1.9211    1.6015 H         1 ATP         0.1374
     44 H8          0.6089    2.4651   -2.2147 H         1 ATP         0.2460
     45 HN61       -2.5055    5.6680   -1.4503 H         1 ATP         0.4865
     46 HN62       -3.3462    6.4841   -0.1542 H         1 ATP         0.4865
     47 H2         -1.5932    4.4937    3.7066 H         1 ATP         0.1083
     48 H48        -2.8098    5.8270    2.1160 H         1 ATP         0.4893
@<TRIPOS>BOND
     1    1    2 2
     2    1    3 1
     3    1    4 1
     4    1    8 1
     5    3   32 1
     6    4   33 1
     7    5    6 2
     8    5    7 1
     9    5    8 1
    10    5   12 1
    11    7   34 1
    12    9   10 2
    13    9   11 1
    14    9   12 1
    15    9   13 1
    16   11   35 1
    17   13   14 1
    18   14   15 1
    19   14   36 1
    20   14   37 1
    21   15   16 1
    22   15   17 1
    23   15   38 1
    24   16   21 1
    25   17   18 1
    26   17   19 1
    27   17   39 1
    28   18   40 1
    29   19   20 1
    30   19   21 1
    31   19   41 1
    32   20   42 1
    33   21   22 1
    34   21   43 1
    35   22   23 ar
    36   22   31 ar
    37   23   24 ar
    38   23   44 1
    39   24   25 ar
    40   25   26 ar
    41   25   31 ar
    42   26   27 1
    43   26   28 ar
    44   27   45 1
    45   27   46 1
    46   28   29 ar
    47   28   48 1
    48   29   30 ar
    49   29   47 1
    50   30   31 ar
@<TRIPOS>SUBSTRUCTURE
     1 ATP         1 GROUP 0 A     ****
@<TRIPOS>MOLECULE
[[5-(6-amino-1,8-dihydropurine-6,8-diylium-7-id-9-yl)-3,4-dihydroxy-tetrahydrofuran-2-yl]methoxy-hydroxy-phosphoryl] phosphono hydrogen phosphate
   48    50     1     0     0
SMALL
USER_CHARGES

@<TRIPOS>ATOM
      1 PG          6.8632   -0.5054   -6.2709 P.3       1 ATP         1.7931
      2 O1G         7.7545    0.0828   -5.2170 O.2       1 ATP        -0.8245
      3 O2G         6.5617    0.4546   -7.5354 O.3       1 ATP        -0.7758
      4 O3G         7.4102   -1.8653   -6.9522 O.3       1 ATP        -0.7758
      5 PB          4.9041   -1.9662   -4.6181 P.3       1 ATP         1.9416
      6 O1B         5.3196   -3.3897   -4.8456 O.2       1 ATP        -0.8420
      7 O2B         5.4388   -1.3156   -3.2382 O.3       1 ATP        -0.7993
      8 O3B         5.3909   -0.9231   -5.7517 O.3       1 ATP        -0.7763
      9 PA          2.1468   -2.2811   -3.6362 P.3       1 ATP         1.7989
     10 O1A         1.9959   -3.7741   -3.6727 O.2       1 ATP        -0.8148
     11 O2A         0.8295   -1.4653   -4.1016 O.3       1 ATP        -0.8139
     12 O3A         3.3120   -1.6991   -4.5921 O.3       1 ATP        -0.8202
     13 O5'         2.5234   -1.6624   -2.1893 O.3       1 ATP        -0.5616
     14 C5'         2.2816   -0.2918   -1.9206 C.3       1 ATP         0.1639
     15 C4'         2.7248    0.0226   -0.4980 C.3       1 ATP         0.1354
     16 O4'         2.4697    1.4219   -0.2462 O.3       1 ATP        -0.4135
     17 C3'         1.9404   -0.7419    0.5596 C.3       1 ATP         0.0995
     18 O3'         2.7418   -0.8086    1.7389 O.3       1 ATP        -0.5734
     19 C2'         0.7477    0.1630    0.7858 C.3       1 ATP         0.0652
     20 O2'         0.1373   -0.0577    2.0407 O.3       1 ATP        -0.5780
     21 C1'         1.3733    1.5427    0.6747 C.3       1 ATP         0.4207
     22 N9          0.4520    2.5240    0.1767 N.pl3     1 ATP        -0.4600
     23 C8          0.1798    2.8712   -1.2933 C.ar      1 ATP         0.1694
     24 N7         -0.7494    3.8400   -1.3610 N.2       1 ATP        -0.2540
     25 C5         -1.0173    4.0603   -0.0358 C.ar      1 ATP        -0.1403
     26 C6         -2.0105    5.0717    0.4241 C.ar      1 ATP         0.4951
     27 N6         -2.6723    5.7982   -0.4628 N.pl3     1 ATP        -0.8019
     28 N1         -2.1445    5.1522    1.7502 N.pl3     1 ATP        -0.6941
     29 C2         -1.3755    4.3143    2.6427 C.ar      1 ATP         0.6475
     30 N3         -0.5075    3.4292    2.2616 N.ar      1 ATP        -0.5183
     31 C4         -0.3667    3.3425    0.9070 C.ar      1 ATP         0.3000
     32 HOG2        7.3123    0.7690   -8.0829 H         1 ATP         0.4939
     33 HOG3        7.5712   -2.6491   -6.3850 H         1 ATP         0.4939
     34 HOB2        5.1790   -1.7281   -2.3870 H         1 ATP         0.5072
     35 HOA2       -0.0058   -1.5895   -3.6028 H         1 ATP         0.5058
     36 H5'1        2.8429    0.3147   -2.6388 H         1 ATP         0.0543
     37 H5'2        1.2125   -0.0898   -2.0417 H         1 ATP         0.0543
     38 H4'         3.8046   -0.1390   -0.4012 H         1 ATP         0.1294
     39 H3'         1.6787   -1.7628    0.2719 H         1 ATP         0.0900
     40 HO3'        2.2231   -1.2979    2.3952 H         1 ATP         0.4260
     41 H2'         0.0002   -0.0084   -0.0014 H         1 ATP         0.0698
     42 HO2'       -0.1554   -0.9852    2.0577 H         1 ATP         0.4288
     43 H1'         1.7718    1.9211    1.6015 H         1 ATP         0.1374
     44 H8          0.6089    2.4651   -2.2147 H         1 ATP         0.2460
     45 HN61       -3.3458    6.4845   -0.1543 H         1 ATP         0.4865
     46 HN62       -2.5050    5.6683   -1.4502 H         1 ATP         0.4865
     47 H2         -1.5932    4.4937    3.7066 H         1 ATP         0.1083
     48 H48        -2.8098    5.8270    2.1160 H         1 ATP         0.4893
@<TRIPOS>BOND
     1    1    2 2
     2    1    3 1
     3    1    4 1
     4    1    8 1
     5    3   32 1
     6    4   33 1
     7    5    6 2
     8    5    7 1
     9    5    8 1
    10    5   12 1
    11    7   34 1
    12    9   10 2
    13    9   11 1
    14    9   12 1
    15    9   13 1
    16   11   35 1
    17   13   14 1
    18   14   15 1
    19   14   36 1
    20   14   37 1
    21   15   16 1
    22   15   17 1
    23   15   38 1
    24   16   21 1
    25   17   18 1
    26   17   19 1
    27   17   39 1
    28   18   40 1
    29   19   20 1
    30   19   21 1
    31   19   41 1
    32   20   42 1
    33   21   22 1
    34   21   43 1
    35   22   23 ar
    36   22   31 ar
    37   23   24 ar
    38   23   44 1
    39   24   25 ar
    40   25   26 ar
    41   25   31 ar
    42   26   27 1
    43   26   28 ar
    44   27   45 1
    45   27   46 1
    46   28   29 ar
    47   28   48 1
    48   29   30 ar
    49   29   47 1
    50   30   31 ar
@<TRIPOS>SUBSTRUCTURE
     1 ATP         1 GROUP 0 A     ****
@<TRIPOS>MOLECULE
[[5-(6-amino-1,8-dihydropurine-6,8-diylium-7-id-9-yl)-3,4-dihydroxy-tetrahydrofuran-2-yl]methoxy-hydroxy-phosphoryl] phosphono hydrogen phosphate
   48    50     1     0     0
SMALL
USER_CHARGES

@<TRIPOS>ATOM
      1 PG         -1.8946   -1.2431   -3.9298 P.3       1 ATP         1.7931
      2 O1G        -1.9671   -2.6916   -4.3141 O.2       1 ATP        -0.8245
      3 O2G        -3.3144   -0.5423   -3.6060 O.3       1 ATP        -0.7758
      4 O3G        -1.0090   -0.9247   -2.6157 O.3       1 ATP        -0.7758
      5 PB          0.2148   -0.2699   -5.7483 P.3       1 ATP         1.9416
      6 O1B         0.5694   -1.5214   -6.4958 O.2       1 ATP        -0.8420
      7 O2B         0.2069    1.0759   -6.6437 O.3       1 ATP        -0.7993
      8 O3B        -1.2431   -0.2800   -5.0522 O.3       1 ATP        -0.7763
      9 PA          2.7556    0.3903   -4.4163 P.3       1 ATP         1.7989
     10 O1A         3.2126    1.5648   -5.2318 O.2       1 ATP        -0.8148
     11 O2A         3.4313   -1.0181   -4.8372 O.3       1 ATP        -0.8139
     12 O3A         1.1701    0.0910   -4.4978 O.3       1 ATP        -0.8202
     13 O5'         3.0192    0.5132   -2.8246 O.3       1 ATP        -0.5616
     14 C5'         2.2816   -0.2918   -1.9206 C.3       1 ATP         0.1639
     15 C4'         2.7248    0.0226   -0.4980 C.3       1 ATP         0.1354
     16 O4'         2.4697    1.4219   -0.2462 O.3       1 ATP        -0.4135
     17 C3'         1.9404   -0.7419    0.5596 C.3       1 ATP         0.0995
     18 O3'         2.7418   -0.8086    1.7389 O.3       1 ATP        -0.5734
     19 C2'         0.7477    0.1630    0.7858 C.3       1 ATP         0.0652
     20 O2'         0.1373   -0.0577    2.0407 O.3       1 ATP        -0.5780
     21 C1'         1.3733    1.5427    0.6747 C.3       1 ATP         0.4207
     22 N9          0.4520    2.5240    0.1767 N.pl3     1 ATP        -0.4600
     23 C8         -0.3054    2.4845   -1.1576 C.ar      1 ATP         0.1694
     24 N7         -1.0755    3.5806   -1.2691 N.2       1 ATP        -0.2540
     25 C5         -0.8043    4.2306   -0.0942 C.ar      1 ATP        -0.1403
     26 C6         -1.4324    5.5335    0.2646 C.ar      1 ATP         0.4951
     27 N6         -2.2885    6.1055   -0.5675 N.pl3     1 ATP        -0.8019
     28 N1         -1.0537    6.0229    1.4478 N.pl3     1 ATP        -0.6941
     29 C2         -0.1096    5.3242    2.2908 C.ar      1 ATP         0.6475
     30 N3          0.4468    4.1904    1.9960 N.ar      1 ATP        -0.5183
     31 C4          0.0631    3.6855    0.7877 C.ar      1 ATP         0.3000
     32 HOG2       -4.0007   -0.5136   -4.3061 H         1 ATP         0.4939
     33 HOG3       -1.2643   -1.3322   -1.7608 H         1 ATP         0.4939
     34 HOB2        1.0335    1.3511   -7.0943 H         1 ATP         0.5072
     35 HOA2        4.4062   -1.1108   -4.7840 H         1 ATP         0.5058
     36 H5'1        1.2150   -0.0785   -2.0448 H         1 ATP         0.0543
     37 H5'2        2.4641   -1.3458   -2.1540 H         1 ATP         0.0543
     38 H4'         3.8046   -0.1390   -0.4012 H         1 ATP         0.1294
     39 H3'         1.6787   -1.7628    0.2719 H         1 ATP         0.0900
     40 HO3'        2.2231   -1.2979    2.3952 H         1 ATP         0.4260
     41 H2'         0.0002   -0.0084   -0.0014 H         1 ATP         0.0698
     42 HO2'       -0.1554   -0.9852    2.0577 H         1 ATP         0.4288
     43 H1'         1.7718    1.9211    1.6015 H         1 ATP         0.1374
     44 H8         -0.2991    1.7413   -1.9611 H         1 ATP         0.2460
     45 HN61       -2.5167    5.6603   -1.4447 H         1 ATP         0.4865
     46 HN62       -2.7159    6.9882   -0.3270 H         1 ATP         0.4865
     47 H2          0.1059    5.8491    3.2340 H         1 ATP         0.1083
     48 H48        -1.4532    6.9099    1.7401 H         1 ATP         0.4893
@<TRIPOS>BOND
     1    1    2 2
     2    1    3 1
     3    1    4 1
     4    1    8 1
     5    3   32 1
     6    4   33 1
     7    5    6 2
     8    5    7 1
     9    5    8 1
    10    5   12 1
    11    7   34 1
    12    9   10 2
    13    9   11 1
    14    9   12 1
    15    9   13 1
    16   11   35 1
    17   13   14 1
    18   14   15 1
    19   14   36 1
    20   14   37 1
    21   15   16 1
    22   15   17 1
    23   15   38 1
    24   16   21 1
    25   17   18 1
    26   17   19 1
    27   17   39 1
    28   18   40 1
    29   19   20 1
    30   19   21 1
    31   19   41 1
    32   20   42 1
    33   21   22 1
    34   21   43 1
    35   22   23 ar
    36   22   31 ar
    37   23   24 ar
    38   23   44 1
    39   24   25 ar
    40   25   26 ar
    41   25   31 ar
    42   26   27 1
    43   26   28 ar
    44   27   45 1
    45   27   46 1
    46   28   29 ar
    47   28   48 1
    48   29   30 ar
    49   29   47 1
    50   30   31 ar
@<TRIPOS>SUBSTRUCTURE
     1 ATP         1 GROUP 0 A     ****
@<TRIPOS>MOLECULE
[[5-(6-amino-1,8-dihydropurine-6,8-diylium-7-id-9-yl)-3,4-dihydroxy-tetrahydrofuran-2-yl]methoxy-hydroxy-phosphoryl] phosphono hydrogen phosphate
   48    50     1     0     0
SMALL
USER_CHARGES

@<TRIPOS>ATOM
      1 PG          7.3899    0.5024   -5.8855 P.3       1 ATP         1.7931
      2 O1G         8.3236   -0.5661   -6.3729 O.2       1 ATP        -0.8245
      3 O2G         8.0429    1.5833   -4.8771 O.3       1 ATP        -0.7758
      4 O3G         6.7296    1.4176   -7.0427 O.3       1 ATP        -0.7758
      5 PB          4.9029   -1.0376   -5.5018 P.3       1 ATP         1.9416
      6 O1B         4.0761   -0.5691   -6.6628 O.2       1 ATP        -0.8420
      7 O2B         5.6367   -2.4611   -5.7222 O.3       1 ATP        -0.7993
      8 O3B         6.1040   -0.0453   -5.0742 O.3       1 ATP        -0.7763
      9 PA          2.8567   -2.1438   -3.6977 P.3       1 ATP         1.7989
     10 O1A         3.0944   -3.6170   -3.8601 O.2       1 ATP        -0.8148
     11 O2A         1.6417   -1.5609   -4.5928 O.3       1 ATP        -0.8139
     12 O3A         4.1111   -1.2111   -4.1056 O.3       1 ATP        -0.8202
     13 O5'         2.5234   -1.6624   -2.1893 O.3       1 ATP        -0.5616
     14 C5'         2.2816   -0.2918   -1.9206 C.3       1 ATP         0.1639
     15 C4'         2.7248    0.0226   -0.4980 C.3       1 ATP         0.1354
     16 O4'         2.4697    1.4219   -0.2462 O.3       1 ATP        -0.4135
     17 C3'         1.9404   -0.7419    0.5596 C.3       1 ATP         0.0995
     18 O3'         2.7418   -0.8086    1.7389 O.3       1 ATP        -0.5734
     19 C2'         0.7477    0.1630    0.7858 C.3       1 ATP         0.0652
     20 O2'         0.1373   -0.0577    2.0407 O.3       1 ATP        -0.5780
     21 C1'         1.3733    1.5427    0.6747 C.3       1 ATP         0.4207
     22 N9          0.4520    2.5240    0.1767 N.pl3     1 ATP        -0.4600
     23 C8          0.1798    2.8712   -1.2933 C.ar      1 ATP         0.1694
     24 N7         -0.7494    3.8400   -1.3610 N.2       1 ATP        -0.2540
     25 C5         -1.0173    4.0603   -0.0358 C.ar      1 ATP        -0.1403
     26 C6         -2.0105    5.0717    0.4241 C.ar      1 ATP         0.4951
     27 N6         -2.6723    5.7982   -0.4628 N.pl3     1 ATP        -0.8019
     28 N1         -2.1445    5.1522    1.7502 N.pl3     1 ATP        -0.6941
     29 C2         -1.3755    4.3143    2.6427 C.ar      1 ATP         0.6475
     30 N3         -0.5075    3.4292    2.2616 N.ar      1 ATP        -0.5183
     31 C4         -0.3667    3.3425    0.9070 C.ar      1 ATP         0.3000
     32 HOG2        8.4255    1.2716   -4.0295 H         1 ATP         0.4939
     33 HOG3        7.3181    1.9377   -7.6303 H         1 ATP         0.4939
     34 HOB2        5.0887   -3.2553   -5.8984 H         1 ATP         0.5072
     35 HOA2        0.7391   -1.9204   -4.4587 H         1 ATP         0.5058
     36 H5'1        2.8429    0.3147   -2.6388 H         1 ATP         0.0543
     37 H5'2        1.2125   -0.0898   -2.0417 H         1 ATP         0.0543
     38 H4'         3.8046   -0.1390   -0.4012 H         1 ATP         0.1294
     39 H3'         1.6787   -1.7628    0.2719 H         1 ATP         0.0900
     40 HO3'        2.2231   -1.2979    2.3952 H         1 ATP         0.4260
     41 H2'         0.0002   -0.0084   -0.0014 H         1 ATP         0.0698
     42 HO2'       -0.1554   -0.9852    2.0577 H         1 ATP         0.4288
     43 H1'         1.7718    1.9211    1.6015 H         1 ATP         0.1374
     44 H8          0.6089    2.4651   -2.2147 H         1 ATP         0.2460
     45 HN61       -2.5055    5.6680   -1.4503 H         1 ATP         0.4865
     46 HN62       -3.3462    6.4841   -0.1542 H         1 ATP         0.4865
     47 H2         -1.5932    4.4937    3.7066 H         1 ATP         0.1083
     48 H48        -2.8098    5.8270    2.1160 H         1 ATP         0.4893
@<TRIPOS>BOND
     1    1    2 2
     2    1    3 1
     3    1    4 1
     4    1    8 1
     5    3   32 1
     6    4   33 1
     7    5    6 2
     8    5    7 1
     9    5    8 1
    10    5   12 1
    11    7   34 1
    12    9   10 2
    13    9   11 1
    14    9   12 1
    15    9   13 1
    16   11   35 1
    17   13   14 1
    18   14   15 1
    19   14   36 1
    20   14   37 1
    21   15   16 1
    22   15   17 1
    23   15   38 1
    24   16   21 1
    25   17   18 1
    26   17   19 1
    27   17   39 1
    28   18   40 1
    29   19   20 1
    30   19   21 1
    31   19   41 1
    32   20   42 1
    33   21   22 1
    34   21   43 1
    35   22   23 ar
    36   22   31 ar
    37   23   24 ar
    38   23   44 1
    39   24   25 ar
    40   25   26 ar
    41   25   31 ar
    42   26   27 1
    43   26   28 ar
    44   27   45 1
    45   27   46 1
    46   28   29 ar
    47   28   48 1
    48   29   30 ar
    49   29   47 1
    50   30   31 ar
@<TRIPOS>SUBSTRUCTURE
     1 ATP         1 GROUP 0 A     ****
@<TRIPOS>MOLECULE
[[5-(6-amino-1,8-dihydropurine-6,8-diylium-7-id-9-yl)-3,4-dihydroxy-tetrahydrofuran-2-yl]methoxy-hydroxy-phosphoryl] phosphono hydrogen phosphate
   48    50     1     0     0
SMALL
USER_CHARGES

@<TRIPOS>ATOM
      1 PG         -1.3777    1.5235   -6.6450 P.3       1 ATP         1.7931
      2 O1G        -1.0974    2.1298   -7.9885 O.2       1 ATP        -0.8245
      3 O2G        -2.5008    2.2825   -5.7651 O.3       1 ATP        -0.7758
      4 O3G        -1.8954   -0.0074   -6.6769 O.3       1 ATP        -0.7758
      5 PB          0.8496    2.6123   -5.0460 P.3       1 ATP         1.9416
      6 O1B         1.5760    3.4399   -6.0651 O.2       1 ATP        -0.8420
      7 O2B        -0.1322    3.4465   -4.0696 O.3       1 ATP        -0.7993
      8 O3B        -0.1013    1.4574   -5.6560 O.3       1 ATP        -0.7763
      9 PA          2.8837    0.6137   -4.3156 P.3       1 ATP         1.7989
     10 O1A         4.0327    1.0410   -5.1820 O.2       1 ATP        -0.8148
     11 O2A         2.0112   -0.6079   -4.9186 O.3       1 ATP        -0.8139
     12 O3A         1.7852    1.7655   -4.0389 O.3       1 ATP        -0.8202
     13 O5'         3.2876    0.1332   -2.8242 O.3       1 ATP        -0.5616
     14 C5'         2.2816   -0.2918   -1.9206 C.3       1 ATP         0.1639
     15 C4'         2.7248    0.0226   -0.4980 C.3       1 ATP         0.1354
     16 O4'         2.4697    1.4219   -0.2462 O.3       1 ATP        -0.4135
     17 C3'         1.9404   -0.7419    0.5596 C.3       1 ATP         0.0995
     18 O3'         2.7418   -0.8086    1.7389 O.3       1 ATP        -0.5734
     19 C2'         0.7477    0.1630    0.7858 C.3       1 ATP         0.0652
     20 O2'         0.1373   -0.0577    2.0407 O.3       1 ATP        -0.5780
     21 C1'         1.3733    1.5427    0.6747 C.3       1 ATP         0.4207
     22 N9          0.4520    2.5240    0.1767 N.pl3     1 ATP        -0.4600
     23 C8         -0.7463    2.2774   -0.7501 C.ar      1 ATP         0.1694
     24 N7         -1.3714    3.4419   -0.9948 N.2       1 ATP        -0.2540
     25 C5         -0.6104    4.3223   -0.2723 C.ar      1 ATP        -0.1403
     26 C6         -0.9062    5.7820   -0.2194 C.ar      1 ATP         0.4951
     27 N6         -1.9385    6.2713   -0.8881 N.pl3     1 ATP        -0.8019
     28 N1         -0.0613    6.4906    0.5336 N.pl3     1 ATP        -0.6941
     29 C2          1.0416    5.8662    1.2291 C.ar      1 ATP         0.6475
     30 N3          1.3146    4.5989    1.1954 N.ar      1 ATP        -0.5183
     31 C4          0.4541    3.8697    0.4273 C.ar      1 ATP         0.3000
     32 HOG2       -2.3567    3.2207   -5.5180 H         1 ATP         0.4939
     33 HOG3       -2.7263   -0.2179   -7.1538 H         1 ATP         0.4939
     34 HOB2        0.2479    4.1531   -3.5052 H         1 ATP         0.5072
     35 HOA2        1.5690   -0.4917   -5.7863 H         1 ATP         0.5058
     36 H5'1        1.3495    0.2323   -2.1554 H         1 ATP         0.0543
     37 H5'2        2.1262   -1.3685   -2.0437 H         1 ATP         0.0543
     38 H4'         3.8046   -0.1390   -0.4012 H         1 ATP         0.1294
     39 H3'         1.6787   -1.7628    0.2719 H         1 ATP         0.0900
     40 HO3'        2.2231   -1.2979    2.3952 H         1 ATP         0.4260
     41 H2'         0.0002   -0.0084   -0.0014 H         1 ATP         0.0698
     42 HO2'       -0.6132    0.5577    2.1063 H         1 ATP         0.4288
     43 H1'         1.7718    1.9211    1.6015 H         1 ATP         0.1374
     44 H8         -1.1244    1.3534   -1.1987 H         1 ATP         0.2460
     45 HN61       -2.1414    7.2600   -0.8544 H         1 ATP         0.4865
     46 HN62       -2.5256    5.6572   -1.4340 H         1 ATP         0.4865
     47 H2          1.6509    6.5764    1.8088 H         1 ATP         0.1083
     48 H48        -0.2190    7.4917    0.6033 H         1 ATP         0.4893
@<TRIPOS>BOND
     1    1    2 2
     2    1    3 1
     3    1    4 1
     4    1    8 1
     5    3   32 1
     6    4   33 1
     7    5    6 2
     8    5    7 1
     9    5    8 1
    10    5   12 1
    11    7   34 1
    12    9   10 2
    13    9   11 1
    14    9   12 1
    15    9   13 1
    16   11   35 1
    17   13   14 1
    18   14   15 1
    19   14   36 1
    20   14   37 1
    21   15   16 1
    22   15   17 1
    23   15   38 1
    24   16   21 1
    25   17   18 1
    26   17   19 1
    27   17   39 1
    28   18   40 1
    29   19   20 1
    30   19   21 1
    31   19   41 1
    32   20   42 1
    33   21   22 1
    34   21   43 1
    35   22   23 ar
    36   22   31 ar
    37   23   24 ar
    38   23   44 1
    39   24   25 ar
    40   25   26 ar
    41   25   31 ar
    42   26   27 1
    43   26   28 ar
    44   27   45 1
    45   27   46 1
    46   28   29 ar
    47   28   48 1
    48   29   30 ar
    49   29   47 1
    50   30   31 ar
@<TRIPOS>SUBSTRUCTURE
     1 ATP         1 GROUP 0 A     ****
@<TRIPOS>MOLECULE
[[5-(6-amino-1,8-dihydropurine-6,8-diylium-7-id-9-yl)-3,4-dihydroxy-tetrahydrofuran-2-yl]methoxy-hydroxy-phosphoryl] phosphono hydrogen phosphate
   48    50     1     0     0
SMALL
USER_CHARGES

@<TRIPOS>ATOM
      1 PG          3.1009    2.3341   -6.0755 P.3       1 ATP         1.7931
      2 O1G         1.7582    2.8097   -6.5465 O.2       1 ATP        -0.8245
      3 O2G         4.3543    3.2517   -6.5211 O.3       1 ATP        -0.7758
      4 O3G         3.2665    2.2235   -4.4714 O.3       1 ATP        -0.7758
      5 PB          2.8162   -0.5866   -6.3793 P.3       1 ATP         1.9416
      6 O1B         1.4165   -0.6996   -6.9076 O.2       1 ATP        -0.8420
      7 O2B         3.8728   -1.6221   -7.0306 O.3       1 ATP        -0.7993
      8 O3B         3.5105    0.8572   -6.5882 O.3       1 ATP        -0.7763
      9 PA          2.6333   -2.0590   -3.8369 P.3       1 ATP         1.7989
     10 O1A         3.3648   -3.3236   -4.1822 O.2       1 ATP        -0.8148
     11 O2A         1.0223   -2.1729   -3.9297 O.3       1 ATP        -0.8139
     12 O3A         2.9810   -0.7998   -4.7875 O.3       1 ATP        -0.8202
     13 O5'         2.9196   -1.4816   -2.3527 O.3       1 ATP        -0.5616
     14 C5'         2.2816   -0.2918   -1.9206 C.3       1 ATP         0.1639
     15 C4'         2.7248    0.0226   -0.4980 C.3       1 ATP         0.1354
     16 O4'         2.4697    1.4219   -0.2462 O.3       1 ATP        -0.4135
     17 C3'         1.9404   -0.7419    0.5596 C.3       1 ATP         0.0995
     18 O3'         2.7418   -0.8086    1.7389 O.3       1 ATP        -0.5734
     19 C2'         0.7477    0.1630    0.7858 C.3       1 ATP         0.0652
     20 O2'         0.1373   -0.0577    2.0407 O.3       1 ATP        -0.5780
     21 C1'         1.3733    1.5427    0.6747 C.3       1 ATP         0.4207
     22 N9          0.4520    2.5240    0.1767 N.pl3     1 ATP        -0.4600
     23 C8         -0.3054    2.4845   -1.1576 C.ar      1 ATP         0.1694
     24 N7         -1.0755    3.5806   -1.2691 N.2       1 ATP        -0.2540
     25 C5         -0.8043    4.2306   -0.0942 C.ar      1 ATP        -0.1403
     26 C6         -1.4324    5.5335    0.2646 C.ar      1 ATP         0.4951
     27 N6         -2.2885    6.1055   -0.5675 N.pl3     1 ATP        -0.8019
     28 N1         -1.0537    6.0229    1.4478 N.pl3     1 ATP        -0.6941
     29 C2         -0.1096    5.3242    2.2908 C.ar      1 ATP         0.6475
     30 N3          0.4468    4.1904    1.9960 N.ar      1 ATP        -0.5183
     31 C4          0.0631    3.6855    0.7877 C.ar      1 ATP         0.3000
     32 HOG2        4.5301    3.3842   -7.4769 H         1 ATP         0.4939
     33 HOG3        3.1522    3.0304   -3.9255 H         1 ATP         0.4939
     34 HOB2        3.7118   -2.5853   -6.9385 H         1 ATP         0.5072
     35 HOA2        0.5598   -2.8269   -3.3635 H         1 ATP         0.5058
     36 H5'1        2.5578    0.5242   -2.5963 H         1 ATP         0.0543
     37 H5'2        1.1971   -0.4363   -1.9604 H         1 ATP         0.0543
     38 H4'         3.8046   -0.1390   -0.4012 H         1 ATP         0.1294
     39 H3'         1.6787   -1.7628    0.2719 H         1 ATP         0.0900
     40 HO3'        2.2231   -1.2979    2.3952 H         1 ATP         0.4260
     41 H2'         0.0002   -0.0084   -0.0014 H         1 ATP         0.0698
     42 HO2'       -0.1554   -0.9852    2.0577 H         1 ATP         0.4288
     43 H1'         1.7718    1.9211    1.6015 H         1 ATP         0.1374
     44 H8         -0.2991    1.7413   -1.9611 H         1 ATP         0.2460
     45 HN61       -2.5167    5.6603   -1.4447 H         1 ATP         0.4865
     46 HN62       -2.7159    6.9882   -0.3270 H         1 ATP         0.4865
     47 H2          0.1059    5.8491    3.2340 H         1 ATP         0.1083
     48 H48        -1.4532    6.9099    1.7401 H         1 ATP         0.4893
@<TRIPOS>BOND
     1    1    2 2
     2    1    3 1
     3    1    4 1
     4    1    8 1
     5    3   32 1
     6    4   33 1
     7    5    6 2
     8    5    7 1
     9    5    8 1
    10    5   12 1
    11    7   34 1
    12    9   10 2
    13    9   11 1
    14    9   12 1
    15    9   13 1
    16   11   35 1
    17   13   14 1
    18   14   15 1
    19   14   36 1
    20   14   37 1
    21   15   16 1
    22   15   17 1
    23   15   38 1
    24   16   21 1
    25   17   18 1
    26   17   19 1
    27   17   39 1
    28   18   40 1
    29   19   20 1
    30   19   21 1
    31   19   41 1
    32   20   42 1
    33   21   22 1
    34   21   43 1
    35   22   23 ar
    36   22   31 ar
    37   23   24 ar
    38   23   44 1
    39   24   25 ar
    40   25   26 ar
    41   25   31 ar
    42   26   27 1
    43   26   28 ar
    44   27   45 1
    45   27   46 1
    46   28   29 ar
    47   28   48 1
    48   29   30 ar
    49   29   47 1
    50   30   31 ar
@<TRIPOS>SUBSTRUCTURE
     1 ATP         1 GROUP 0 A     ****
@<TRIPOS>MOLECULE
[[5-(6-amino-1,8-dihydropurine-6,8-diylium-7-id-9-yl)-3,4-dihydroxy-tetrahydrofuran-2-yl]methoxy-hydroxy-phosphoryl] phosphono hydrogen phosphate
   48    50     1     0     0
SMALL
USER_CHARGES

@<TRIPOS>ATOM
      1 PG          0.7043    5.8654   -4.4055 P.3       1 ATP         1.7931
      2 O1G        -0.6970    5.9013   -4.9406 O.2       1 ATP        -0.8245
      3 O2G         1.8281    6.5161   -5.3674 O.3       1 ATP        -0.7758
      4 O3G         0.9223    6.6319   -2.9993 O.3       1 ATP        -0.7758
      5 PB          1.5015    3.1025   -5.0646 P.3       1 ATP         1.9416
      6 O1B         0.2637    2.5833   -5.7349 O.2       1 ATP        -0.8420
      7 O2B         2.6708    3.5783   -6.0742 O.3       1 ATP        -0.7993
      8 O3B         1.2733    4.3827   -4.1060 O.3       1 ATP        -0.7763
      9 PA          2.8837    0.6137   -4.3156 P.3       1 ATP         1.7989
     10 O1A         4.0005    0.5905   -5.3184 O.2       1 ATP        -0.8148
     11 O2A         1.6113   -0.3033   -4.7122 O.3       1 ATP        -0.8139
     12 O3A         2.2372    2.0724   -4.0624 O.3       1 ATP        -0.8202
     13 O5'         3.2876    0.1332   -2.8242 O.3       1 ATP        -0.5616
     14 C5'         2.2816   -0.2918   -1.9206 C.3       1 ATP         0.1639
     15 C4'         2.7248    0.0226   -0.4980 C.3       1 ATP         0.1354
     16 O4'         2.4697    1.4219   -0.2462 O.3       1 ATP        -0.4135
     17 C3'         1.9404   -0.7419    0.5596 C.3       1 ATP         0.0995
     18 O3'         2.7418   -0.8086    1.7389 O.3       1 ATP        -0.5734
     19 C2'         0.7477    0.1630    0.7858 C.3       1 ATP         0.0652
     20 O2'         0.1373   -0.0577    2.0407 O.3       1 ATP        -0.5780
     21 C1'         1.3733    1.5427    0.6747 C.3       1 ATP         0.4207
     22 N9          0.4520    2.5240    0.1767 N.pl3     1 ATP        -0.4600
     23 C8          0.5793    3.3338   -1.1209 C.ar      1 ATP         0.1694
     24 N7         -0.4807    4.1508   -1.2458 N.2       1 ATP        -0.2540
     25 C5         -1.1921    3.8572   -0.1126 C.ar      1 ATP        -0.1403
     26 C6         -2.4855    4.5203    0.2163 C.ar      1 ATP         0.4951
     27 N6         -2.9873    5.4319   -0.6020 N.pl3     1 ATP        -0.8019
     28 N1         -3.0414    4.1119    1.3596 N.pl3     1 ATP        -0.6941
     29 C2         -2.4169    3.1071    2.1904 C.ar      1 ATP         0.6475
     30 N3         -1.2928    2.5191    1.9210 N.ar      1 ATP        -0.5183
     31 C4         -0.7202    2.9326    0.7534 C.ar      1 ATP         0.3000
     32 HOG2        1.7501    7.4613   -5.6174 H         1 ATP         0.4939
     33 HOG3        0.4148    6.3364   -2.2137 H         1 ATP         0.4939
     34 HOB2        3.0523    2.9262   -6.6997 H         1 ATP         0.5072
     35 HOA2        1.7421   -1.2674   -4.8367 H         1 ATP         0.5058
     36 H5'1        1.3495    0.2323   -2.1554 H         1 ATP         0.0543
     37 H5'2        2.1262   -1.3685   -2.0437 H         1 ATP         0.0543
     38 H4'         3.8046   -0.1390   -0.4012 H         1 ATP         0.1294
     39 H3'         1.6787   -1.7628    0.2719 H         1 ATP         0.0900
     40 HO3'        2.2231   -1.2979    2.3952 H         1 ATP         0.4260
     41 H2'         0.0002   -0.0084   -0.0014 H         1 ATP         0.0698
     42 HO2'       -0.1554   -0.9852    2.0577 H         1 ATP         0.4288
     43 H1'         1.7718    1.9211    1.6015 H         1 ATP         0.1374
     44 H8          1.3565    3.3309   -1.8916 H         1 ATP         0.2460
     45 HN61       -2.4952    5.6785   -1.4487 H         1 ATP         0.4865
     46 HN62       -3.8637    5.8828   -0.3819 H         1 ATP         0.4865
     47 H2         -2.9911    2.8734    3.1000 H         1 ATP         0.1083
     48 H48        -3.9253    4.5332    1.6302 H         1 ATP         0.4893
@<TRIPOS>BOND
     1    1    2 2
     2    1    3 1
     3    1    4 1
     4    1    8 1
     5    3   32 1
     6    4   33 1
     7    5    6 2
     8    5    7 1
     9    5    8 1
    10    5   12 1
    11    7   34 1
    12    9   10 2
    13    9   11 1
    14    9   12 1
    15    9   13 1
    16   11   35 1
    17   13   14 1
    18   14   15 1
    19   14   36 1
    20   14   37 1
    21   15   16 1
    22   15   17 1
    23   15   38 1
    24   16   21 1
    25   17   18 1
    26   17   19 1
    27   17   39 1
    28   18   40 1
    29   19   20 1
    30   19   21 1
    31   19   41 1
    32   20   42 1
    33   21   22 1
    34   21   43 1
    35   22   23 ar
    36   22   31 ar
    37   23   24 ar
    38   23   44 1
    39   24   25 ar
    40   25   26 ar
    41   25   31 ar
    42   26   27 1
    43   26   28 ar
    44   27   45 1
    45   27   46 1
    46   28   29 ar
    47   28   48 1
    48   29   30 ar
    49   29   47 1
    50   30   31 ar
@<TRIPOS>SUBSTRUCTURE
     1 ATP         1 GROUP 0 A     ****
@<TRIPOS>MOLECULE
[[5-(6-amino-1,8-dihydropurine-6,8-diylium-7-id-9-yl)-3,4-dihydroxy-tetrahydrofuran-2-yl]methoxy-hydroxy-phosphoryl] phosphono hydrogen phosphate
   48    50     1     0     0
SMALL
USER_CHARGES

@<TRIPOS>ATOM
      1 PG         -2.6677    1.3733   -5.8164 P.3       1 ATP         1.7931
      2 O1G        -2.6571    2.4312   -6.8803 O.2       1 ATP        -0.8245
      3 O2G        -3.6069    1.6872   -4.5393 O.3       1 ATP        -0.7758
      4 O3G        -3.1680   -0.0848   -6.3026 O.3       1 ATP        -0.7758
      5 PB          0.1630    0.5424   -5.8024 P.3       1 ATP         1.9416
      6 O1B         0.0870   -0.7982   -6.4717 O.2       1 ATP        -0.8420
      7 O2B         0.6240    1.7563   -6.7653 O.3       1 ATP        -0.7993
      8 O3B        -1.2241    1.0643   -5.1591 O.3       1 ATP        -0.7763
      9 PA          2.7556    0.3903   -4.4163 P.3       1 ATP         1.7989
     10 O1A         3.5951    1.2919   -5.2741 O.2       1 ATP        -0.8148
     11 O2A         2.9235   -1.1858   -4.7401 O.3       1 ATP        -0.8139
     12 O3A         1.1636    0.6363   -4.5388 O.3       1 ATP        -0.8202
     13 O5'         3.0192    0.5132   -2.8246 O.3       1 ATP        -0.5616
     14 C5'         2.2816   -0.2918   -1.9206 C.3       1 ATP         0.1639
     15 C4'         2.7248    0.0226   -0.4980 C.3       1 ATP         0.1354
     16 O4'         2.4697    1.4219   -0.2462 O.3       1 ATP        -0.4135
     17 C3'         1.9404   -0.7419    0.5596 C.3       1 ATP         0.0995
     18 O3'         2.7418   -0.8086    1.7389 O.3       1 ATP        -0.5734
     19 C2'         0.7477    0.1630    0.7858 C.3       1 ATP         0.0652
     20 O2'         0.1373   -0.0577    2.0407 O.3       1 ATP        -0.5780
     21 C1'         1.3733    1.5427    0.6747 C.3       1 ATP         0.4207
     22 N9          0.4520    2.5240    0.1767 N.pl3     1 ATP        -0.4600
     23 C8         -0.7463    2.2774   -0.7501 C.ar      1 ATP         0.1694
     24 N7         -1.3714    3.4419   -0.9948 N.2       1 ATP        -0.2540
     25 C5         -0.6104    4.3223   -0.2723 C.ar      1 ATP        -0.1403
     26 C6         -0.9062    5.7820   -0.2194 C.ar      1 ATP         0.4951
     27 N6         -1.9385    6.2713   -0.8881 N.pl3     1 ATP        -0.8019
     28 N1         -0.0613    6.4906    0.5336 N.pl3     1 ATP        -0.6941
     29 C2          1.0416    5.8662    1.2291 C.ar      1 ATP         0.6475
     30 N3          1.3146    4.5989    1.1954 N.ar      1 ATP        -0.5183
     31 C4          0.4541    3.8697    0.4273 C.ar      1 ATP         0.3000
     32 HOG2       -3.4264    2.4877   -4.0020 H         1 ATP         0.4939
     33 HOG3       -2.6746   -0.5425   -7.0161 H         1 ATP         0.4939
     34 HOB2        1.5022    1.7103   -7.1997 H         1 ATP         0.5072
     35 HOA2        3.8091   -1.5971   -4.6476 H         1 ATP         0.5058
     36 H5'1        1.2150   -0.0785   -2.0448 H         1 ATP         0.0543
     37 H5'2        2.4641   -1.3458   -2.1540 H         1 ATP         0.0543
     38 H4'         3.8046   -0.1390   -0.4012 H         1 ATP         0.1294
     39 H3'         1.6787   -1.7628    0.2719 H         1 ATP         0.0900
     40 HO3'        2.2231   -1.2979    2.3952 H         1 ATP         0.4260
     41 H2'         0.0002   -0.0084   -0.0014 H         1 ATP         0.0698
     42 HO2'       -0.6132    0.5577    2.1063 H         1 ATP         0.4288
     43 H1'         1.7718    1.9211    1.6015 H         1 ATP         0.1374
     44 H8         -1.1244    1.3534   -1.1987 H         1 ATP         0.2460
     45 HN61       -2.5259    5.6573   -1.4336 H         1 ATP         0.4865
     46 HN62       -2.1416    7.2600   -0.8539 H         1 ATP         0.4865
     47 H2          1.6509    6.5764    1.8088 H         1 ATP         0.1083
     48 H48        -0.2190    7.4917    0.6033 H         1 ATP         0.4893
@<TRIPOS>BOND
     1    1    2 2
     2    1    3 1
     3    1    4 1
     4    1    8 1
     5    3   32 1
     6    4   33 1
     7    5    6 2
     8    5    7 1
     9    5    8 1
    10    5   12 1
    11    7   34 1
    12    9   10 2
    13    9   11 1
    14    9   12 1
    15    9   13 1
    16   11   35 1
    17   13   14 1
    18   14   15 1
    19   14   36 1
    20   14   37 1
    21   15   16 1
    22   15   17 1
    23   15   38 1
    24   16   21 1
    25   17   18 1
    26   17   19 1
    27   17   39 1
    28   18   40 1
    29   19   20 1
    30   19   21 1
    31   19   41 1
    32   20   42 1
    33   21   22 1
    34   21   43 1
    35   22   23 ar
    36   22   31 ar
    37   23   24 ar
    38   23   44 1
    39   24   25 ar
    40   25   26 ar
    41   25   31 ar
    42   26   27 1
    43   26   28 ar
    44   27   45 1
    45   27   46 1
    46   28   29 ar
    47   28   48 1
    48   29   30 ar
    49   29   47 1
    50   30   31 ar
@<TRIPOS>SUBSTRUCTURE
     1 ATP         1 GROUP 0 A     ****
@<TRIPOS>MOLECULE
[[5-(6-amino-1,8-dihydropurine-6,8-diylium-7-id-9-yl)-3,4-dihydroxy-tetrahydrofuran-2-yl]methoxy-hydroxy-phosphoryl] phosphono hydrogen phosphate
   48    50     1     0     0
SMALL
USER_CHARGES

@<TRIPOS>ATOM
      1 PG         -1.1927    1.6583   -6.2105 P.3       1 ATP         1.7931
      2 O1G        -0.9216    0.2621   -6.6882 O.2       1 ATP        -0.8245
      3 O2G        -0.8523    2.8296   -7.2707 O.3       1 ATP        -0.7758
      4 O3G        -2.7267    1.9575   -5.7983 O.3       1 ATP        -0.7758
      5 PB          1.2172    2.1919   -4.5946 P.3       1 ATP         1.9416
      6 O1B         1.9669    3.1458   -5.4773 O.2       1 ATP        -0.8420
      7 O2B         1.2964    2.5246   -3.0147 O.3       1 ATP        -0.7993
      8 O3B        -0.3680    2.0905   -4.8897 O.3       1 ATP        -0.7763
      9 PA          3.0852   -0.0762   -4.4159 P.3       1 ATP         1.7989
     10 O1A         4.2162    0.4128   -5.2733 O.2       1 ATP        -0.8148
     11 O2A         2.7521   -1.6504   -4.5840 O.3       1 ATP        -0.8139
     12 O3A         1.6672    0.6448   -4.6975 O.3       1 ATP        -0.8202
     13 O5'         3.2876    0.1332   -2.8242 O.3       1 ATP        -0.5616
     14 C5'         2.2816   -0.2918   -1.9206 C.3       1 ATP         0.1639
     15 C4'         2.7248    0.0226   -0.4980 C.3       1 ATP         0.1354
     16 O4'         2.4697    1.4219   -0.2462 O.3       1 ATP        -0.4135
     17 C3'         1.9404   -0.7419    0.5596 C.3       1 ATP         0.0995
     18 O3'         2.7418   -0.8086    1.7389 O.3       1 ATP        -0.5734
     19 C2'         0.7477    0.1630    0.7858 C.3       1 ATP         0.0652
     20 O2'         0.1373   -0.0577    2.0407 O.3       1 ATP        -0.5780
     21 C1'         1.3733    1.5427    0.6747 C.3       1 ATP         0.4207
     22 N9          0.4520    2.5240    0.1767 N.pl3     1 ATP        -0.4600
     23 C8         -0.7463    2.2774   -0.7501 C.ar      1 ATP         0.1694
     24 N7         -1.3714    3.4419   -0.9948 N.2       1 ATP        -0.2540
     25 C5         -0.6104    4.3223   -0.2723 C.ar      1 ATP        -0.1403
     26 C6         -0.9062    5.7820   -0.2194 C.ar      1 ATP         0.4951
     27 N6         -1.9385    6.2713   -0.8881 N.pl3     1 ATP        -0.8019
     28 N1         -0.0613    6.4906    0.5336 N.pl3     1 ATP        -0.6941
     29 C2          1.0416    5.8662    1.2291 C.ar      1 ATP         0.6475
     30 N3          1.3146    4.5989    1.1954 N.ar      1 ATP        -0.5183
     31 C4          0.4541    3.8697    0.4273 C.ar      1 ATP         0.3000
     32 HOG2        0.0677    2.9217   -7.5979 H         1 ATP         0.4939
     33 HOG3       -3.4293    1.8517   -6.4744 H         1 ATP         0.4939
     34 HOB2        2.1738    2.5402   -2.5763 H         1 ATP         0.5072
     35 HOA2        3.4509   -2.3073   -4.3790 H         1 ATP         0.5058
     36 H5'1        1.3495    0.2323   -2.1554 H         1 ATP         0.0543
     37 H5'2        2.1262   -1.3685   -2.0437 H         1 ATP         0.0543
     38 H4'         3.8046   -0.1390   -0.4012 H         1 ATP         0.1294
     39 H3'         1.6787   -1.7628    0.2719 H         1 ATP         0.0900
     40 HO3'        2.2231   -1.2979    2.3952 H         1 ATP         0.4260
     41 H2'         0.0002   -0.0084   -0.0014 H         1 ATP         0.0698
     42 HO2'       -0.6132    0.5577    2.1063 H         1 ATP         0.4288
     43 H1'         1.7718    1.9211    1.6015 H         1 ATP         0.1374
     44 H8         -1.1244    1.3534   -1.1987 H         1 ATP         0.2460
     45 HN61       -2.1414    7.2600   -0.8544 H         1 ATP         0.4865
     46 HN62       -2.5256    5.6572   -1.4340 H         1 ATP         0.4865
     47 H2          1.6509    6.5764    1.8088 H         1 ATP         0.1083
     48 H48        -0.2190    7.4917    0.6033 H         1 ATP         0.4893
@<TRIPOS>BOND
     1    1    2 2
     2    1    3 1
     3    1    4 1
     4    1    8 1
     5    3   32 1
     6    4   33 1
     7    5    6 2
     8    5    7 1
     9    5    8 1
    10    5   12 1
    11    7   34 1
    12    9   10 2
    13    9   11 1
    14    9   12 1
    15    9   13 1
    16   11   35 1
    17   13   14 1
    18   14   15 1
    19   14   36 1
    20   14   37 1
    21   15   16 1
    22   15   17 1
    23   15   38 1
    24   16   21 1
    25   17   18 1
    26   17   19 1
    27   17   39 1
    28   18   40 1
    29   19   20 1
    30   19   21 1
    31   19   41 1
    32   20   42 1
    33   21   22 1
    34   21   43 1
    35   22   23 ar
    36   22   31 ar
    37   23   24 ar
    38   23   44 1
    39   24   25 ar
    40   25   26 ar
    41   25   31 ar
    42   26   27 1
    43   26   28 ar
    44   27   45 1
    45   27   46 1
    46   28   29 ar
    47   28   48 1
    48   29   30 ar
    49   29   47 1
    50   30   31 ar
@<TRIPOS>SUBSTRUCTURE
     1 ATP         1 GROUP 0 A     ****
@<TRIPOS>MOLECULE
[[5-(6-amino-1,8-dihydropurine-6,8-diylium-7-id-9-yl)-3,4-dihydroxy-tetrahydrofuran-2-yl]methoxy-hydroxy-phosphoryl] phosphono hydrogen phosphate
   48    50     1     0     0
SMALL
USER_CHARGES

@<TRIPOS>ATOM
      1 PG         -0.5814   -1.9338   -7.2228 P.3       1 ATP         1.7931
      2 O1G        -0.4179   -1.5114   -8.6531 O.2       1 ATP        -0.8245
      3 O2G        -2.0974   -1.9071   -6.6634 O.3       1 ATP        -0.7758
      4 O3G        -0.0831   -3.4347   -6.8886 O.3       1 ATP        -0.7758
      5 PB          0.1630    0.5424   -5.8024 P.3       1 ATP         1.9416
      6 O1B         0.4729    1.4639   -6.9452 O.2       1 ATP        -0.8420
      7 O2B        -1.3081    0.7301   -5.1593 O.3       1 ATP        -0.7993
      8 O3B         0.2325   -1.0323   -6.1567 O.3       1 ATP        -0.7763
      9 PA          2.7556    0.3903   -4.4163 P.3       1 ATP         1.7989
     10 O1A         3.5951    1.2919   -5.2741 O.2       1 ATP        -0.8148
     11 O2A         2.9235   -1.1858   -4.7401 O.3       1 ATP        -0.8139
     12 O3A         1.1636    0.6363   -4.5388 O.3       1 ATP        -0.8202
     13 O5'         3.0192    0.5132   -2.8246 O.3       1 ATP        -0.5616
     14 C5'         2.2816   -0.2918   -1.9206 C.3       1 ATP         0.1639
     15 C4'         2.7248    0.0226   -0.4980 C.3       1 ATP         0.1354
     16 O4'         2.4697    1.4219   -0.2462 O.3       1 ATP        -0.4135
     17 C3'         1.9404   -0.7419    0.5596 C.3       1 ATP         0.0995
     18 O3'         2.7418   -0.8086    1.7389 O.3       1 ATP        -0.5734
     19 C2'         0.7477    0.1630    0.7858 C.3       1 ATP         0.0652
     20 O2'         0.1373   -0.0577    2.0407 O.3       1 ATP        -0.5780
     21 C1'         1.3733    1.5427    0.6747 C.3       1 ATP         0.4207
     22 N9          0.4520    2.5240    0.1767 N.pl3     1 ATP        -0.4600
     23 C8         -0.7463    2.2774   -0.7501 C.ar      1 ATP         0.1694
     24 N7         -1.3714    3.4419   -0.9948 N.2       1 ATP        -0.2540
     25 C5         -0.6104    4.3223   -0.2723 C.ar      1 ATP        -0.1403
     26 C6         -0.9062    5.7820   -0.2194 C.ar      1 ATP         0.4951
     27 N6         -1.9385    6.2713   -0.8881 N.pl3     1 ATP        -0.8019
     28 N1         -0.0613    6.4906    0.5336 N.pl3     1 ATP        -0.6941
     29 C2          1.0416    5.8662    1.2291 C.ar      1 ATP         0.6475
     30 N3          1.3146    4.5989    1.1954 N.ar      1 ATP        -0.5183
     31 C4          0.4541    3.8697    0.4273 C.ar      1 ATP         0.3000
     32 HOG2       -2.5886   -1.0582   -6.6626 H         1 ATP         0.4939
     33 HOG3       -0.5019   -4.1890   -7.3552 H         1 ATP         0.4939
     34 HOB2       -1.5505    1.5991   -4.7743 H         1 ATP         0.5072
     35 HOA2        2.7040   -1.5112   -5.6389 H         1 ATP         0.5058
     36 H5'1        1.2150   -0.0785   -2.0448 H         1 ATP         0.0543
     37 H5'2        2.4641   -1.3458   -2.1540 H         1 ATP         0.0543
     38 H4'         3.8046   -0.1390   -0.4012 H         1 ATP         0.1294
     39 H3'         1.6787   -1.7628    0.2719 H         1 ATP         0.0900
     40 HO3'        2.2231   -1.2979    2.3952 H         1 ATP         0.4260
     41 H2'         0.0002   -0.0084   -0.0014 H         1 ATP         0.0698
     42 HO2'       -0.6132    0.5577    2.1063 H         1 ATP         0.4288
     43 H1'         1.7718    1.9211    1.6015 H         1 ATP         0.1374
     44 H8         -1.1244    1.3534   -1.1987 H         1 ATP         0.2460
     45 HN61       -2.1414    7.2600   -0.8544 H         1 ATP         0.4865
     46 HN62       -2.5256    5.6572   -1.4340 H         1 ATP         0.4865
     47 H2          1.6509    6.5764    1.8088 H         1 ATP         0.1083
     48 H48        -0.2190    7.4917    0.6033 H         1 ATP         0.4893
@<TRIPOS>BOND
     1    1    2 2
     2    1    3 1
     3    1    4 1
     4    1    8 1
     5    3   32 1
     6    4   33 1
     7    5    6 2
     8    5    7 1
     9    5    8 1
    10    5   12 1
    11    7   34 1
    12    9   10 2
    13    9   11 1
    14    9   12 1
    15    9   13 1
    16   11   35 1
    17   13   14 1
    18   14   15 1
    19   14   36 1
    20   14   37 1
    21   15   16 1
    22   15   17 1
    23   15   38 1
    24   16   21 1
    25   17   18 1
    26   17   19 1
    27   17   39 1
    28   18   40 1
    29   19   20 1
    30   19   21 1
    31   19   41 1
    32   20   42 1
    33   21   22 1
    34   21   43 1
    35   22   23 ar
    36   22   31 ar
    37   23   24 ar
    38   23   44 1
    39   24   25 ar
    40   25   26 ar
    41   25   31 ar
    42   26   27 1
    43   26   28 ar
    44   27   45 1
    45   27   46 1
    46   28   29 ar
    47   28   48 1
    48   29   30 ar
    49   29   47 1
    50   30   31 ar
@<TRIPOS>SUBSTRUCTURE
     1 ATP         1 GROUP 0 A     ****
@<TRIPOS>MOLECULE
[[5-(6-amino-1,8-dihydropurine-6,8-diylium-7-id-9-yl)-3,4-dihydroxy-tetrahydrofuran-2-yl]methoxy-hydroxy-phosphoryl] phosphono hydrogen phosphate
   48    50     1     0     0
SMALL
USER_CHARGES

@<TRIPOS>ATOM
      1 PG         -1.3777    1.5235   -6.6450 P.3       1 ATP         1.7931
      2 O1G        -2.5327    2.3261   -6.1229 O.2       1 ATP        -0.8245
      3 O2G        -1.6993   -0.0299   -6.9539 O.3       1 ATP        -0.7758
      4 O3G        -0.7398    2.0588   -8.0304 O.3       1 ATP        -0.7758
      5 PB          0.8496    2.6123   -5.0460 P.3       1 ATP         1.9416
      6 O1B         1.5760    3.4399   -6.0651 O.2       1 ATP        -0.8420
      7 O2B        -0.1322    3.4465   -4.0696 O.3       1 ATP        -0.7993
      8 O3B        -0.1013    1.4574   -5.6560 O.3       1 ATP        -0.7763
      9 PA          2.8837    0.6137   -4.3156 P.3       1 ATP         1.7989
     10 O1A         4.0327    1.0410   -5.1820 O.2       1 ATP        -0.8148
     11 O2A         2.0112   -0.6079   -4.9186 O.3       1 ATP        -0.8139
     12 O3A         1.7852    1.7655   -4.0389 O.3       1 ATP        -0.8202
     13 O5'         3.2876    0.1332   -2.8242 O.3       1 ATP        -0.5616
     14 C5'         2.2816   -0.2918   -1.9206 C.3       1 ATP         0.1639
     15 C4'         2.7248    0.0226   -0.4980 C.3       1 ATP         0.1354
     16 O4'         2.4697    1.4219   -0.2462 O.3       1 ATP        -0.4135
     17 C3'         1.9404   -0.7419    0.5596 C.3       1 ATP         0.0995
     18 O3'         2.7418   -0.8086    1.7389 O.3       1 ATP        -0.5734
     19 C2'         0.7477    0.1630    0.7858 C.3       1 ATP         0.0652
     20 O2'         0.1373   -0.0577    2.0407 O.3       1 ATP        -0.5780
     21 C1'         1.3733    1.5427    0.6747 C.3       1 ATP         0.4207
     22 N9          0.4520    2.5240    0.1767 N.pl3     1 ATP        -0.4600
     23 C8         -0.3054    2.4845   -1.1576 C.ar      1 ATP         0.1694
     24 N7         -1.0755    3.5806   -1.2691 N.2       1 ATP        -0.2540
     25 C5         -0.8043    4.2306   -0.0942 C.ar      1 ATP        -0.1403
     26 C6         -1.4324    5.5335    0.2646 C.ar      1 ATP         0.4951
     27 N6         -2.2885    6.1055   -0.5675 N.pl3     1 ATP        -0.8019
     28 N1         -1.0537    6.0229    1.4478 N.pl3     1 ATP        -0.6941
     29 C2         -0.1096    5.3242    2.2908 C.ar      1 ATP         0.6475
     30 N3          0.4468    4.1904    1.9960 N.ar      1 ATP        -0.5183
     31 C4          0.0631    3.6855    0.7877 C.ar      1 ATP         0.3000
     32 HOG2       -2.0087   -0.6056   -6.2226 H         1 ATP         0.4939
     33 HOG3       -1.3090    2.1074   -8.8277 H         1 ATP         0.4939
     34 HOB2        0.2479    4.1531   -3.5052 H         1 ATP         0.5072
     35 HOA2        2.4537   -1.4656   -5.0933 H         1 ATP         0.5058
     36 H5'1        1.3495    0.2323   -2.1554 H         1 ATP         0.0543
     37 H5'2        2.1262   -1.3685   -2.0437 H         1 ATP         0.0543
     38 H4'         3.8046   -0.1390   -0.4012 H         1 ATP         0.1294
     39 H3'         1.6787   -1.7628    0.2719 H         1 ATP         0.0900
     40 HO3'        3.5553   -1.2733    1.4913 H         1 ATP         0.4260
     41 H2'         0.0002   -0.0084   -0.0014 H         1 ATP         0.0698
     42 HO2'       -0.1554   -0.9852    2.0577 H         1 ATP         0.4288
     43 H1'         1.7718    1.9211    1.6015 H         1 ATP         0.1374
     44 H8         -0.2991    1.7413   -1.9611 H         1 ATP         0.2460
     45 HN61       -2.5167    5.6603   -1.4447 H         1 ATP         0.4865
     46 HN62       -2.7159    6.9882   -0.3270 H         1 ATP         0.4865
     47 H2          0.1059    5.8491    3.2340 H         1 ATP         0.1083
     48 H48        -1.4532    6.9099    1.7401 H         1 ATP         0.4893
@<TRIPOS>BOND
     1    1    2 2
     2    1    3 1
     3    1    4 1
     4    1    8 1
     5    3   32 1
     6    4   33 1
     7    5    6 2
     8    5    7 1
     9    5    8 1
    10    5   12 1
    11    7   34 1
    12    9   10 2
    13    9   11 1
    14    9   12 1
    15    9   13 1
    16   11   35 1
    17   13   14 1
    18   14   15 1
    19   14   36 1
    20   14   37 1
    21   15   16 1
    22   15   17 1
    23   15   38 1
    24   16   21 1
    25   17   18 1
    26   17   19 1
    27   17   39 1
    28   18   40 1
    29   19   20 1
    30   19   21 1
    31   19   41 1
    32   20   42 1
    33   21   22 1
    34   21   43 1
    35   22   23 ar
    36   22   31 ar
    37   23   24 ar
    38   23   44 1
    39   24   25 ar
    40   25   26 ar
    41   25   31 ar
    42   26   27 1
    43   26   28 ar
    44   27   45 1
    45   27   46 1
    46   28   29 ar
    47   28   48 1
    48   29   30 ar
    49   29   47 1
    50   30   31 ar
@<TRIPOS>SUBSTRUCTURE
     1 ATP         1 GROUP 0 A     ****
@<TRIPOS>MOLECULE
[[5-(6-amino-1,8-dihydropurine-6,8-diylium-7-id-9-yl)-3,4-dihydroxy-tetrahydrofuran-2-yl]methoxy-hydroxy-phosphoryl] phosphono hydrogen phosphate
   48    50     1     0     0
SMALL
USER_CHARGES

@<TRIPOS>ATOM
      1 PG          5.1052   -0.8476   -7.3406 P.3       1 ATP         1.7931
      2 O1G         5.5651   -2.0466   -8.1165 O.2       1 ATP        -0.8245
      3 O2G         5.7724    0.5572   -7.7799 O.3       1 ATP        -0.7758
      4 O3G         3.5182   -0.5499   -7.4132 O.3       1 ATP        -0.7758
      5 PB          4.9041   -1.9662   -4.6181 P.3       1 ATP         1.9416
      6 O1B         5.3196   -3.3897   -4.8456 O.2       1 ATP        -0.8420
      7 O2B         5.4388   -1.3156   -3.2382 O.3       1 ATP        -0.7993
      8 O3B         5.3909   -0.9231   -5.7517 O.3       1 ATP        -0.7763
      9 PA          2.1468   -2.2811   -3.6362 P.3       1 ATP         1.7989
     10 O1A         1.9959   -3.7741   -3.6727 O.2       1 ATP        -0.8148
     11 O2A         0.8295   -1.4653   -4.1016 O.3       1 ATP        -0.8139
     12 O3A         3.3120   -1.6991   -4.5921 O.3       1 ATP        -0.8202
     13 O5'         2.5234   -1.6624   -2.1893 O.3       1 ATP        -0.5616
     14 C5'         2.2816   -0.2918   -1.9206 C.3       1 ATP         0.1639
     15 C4'         2.7248    0.0226   -0.4980 C.3       1 ATP         0.1354
     16 O4'         2.4697    1.4219   -0.2462 O.3       1 ATP        -0.4135
     17 C3'         1.9404   -0.7419    0.5596 C.3       1 ATP         0.0995
     18 O3'         2.7418   -0.8086    1.7389 O.3       1 ATP        -0.5734
     19 C2'         0.7477    0.1630    0.7858 C.3       1 ATP         0.0652
     20 O2'         0.1373   -0.0577    2.0407 O.3       1 ATP        -0.5780
     21 C1'         1.3733    1.5427    0.6747 C.3       1 ATP         0.4207
     22 N9          0.4520    2.5240    0.1767 N.pl3     1 ATP        -0.4600
     23 C8          0.5793    3.3338   -1.1209 C.ar      1 ATP         0.1694
     24 N7         -0.4807    4.1508   -1.2458 N.2       1 ATP        -0.2540
     25 C5         -1.1921    3.8572   -0.1126 C.ar      1 ATP        -0.1403
     26 C6         -2.4855    4.5203    0.2163 C.ar      1 ATP         0.4951
     27 N6         -2.9873    5.4319   -0.6020 N.pl3     1 ATP        -0.8019
     28 N1         -3.0414    4.1119    1.3596 N.pl3     1 ATP        -0.6941
     29 C2         -2.4169    3.1071    2.1904 C.ar      1 ATP         0.6475
     30 N3         -1.2928    2.5191    1.9210 N.ar      1 ATP        -0.5183
     31 C4         -0.7202    2.9326    0.7534 C.ar      1 ATP         0.3000
     32 HOG2        5.6497    0.8744   -8.6999 H         1 ATP         0.4939
     33 HOG3        2.8918   -1.2324   -7.0909 H         1 ATP         0.4939
     34 HOB2        5.1790   -1.7281   -2.3870 H         1 ATP         0.5072
     35 HOA2       -0.0058   -1.5895   -3.6028 H         1 ATP         0.5058
     36 H5'1        2.8429    0.3147   -2.6388 H         1 ATP         0.0543
     37 H5'2        1.2125   -0.0898   -2.0417 H         1 ATP         0.0543
     38 H4'         3.8046   -0.1390   -0.4012 H         1 ATP         0.1294
     39 H3'         1.6787   -1.7628    0.2719 H         1 ATP         0.0900
     40 HO3'        2.2231   -1.2979    2.3952 H         1 ATP         0.4260
     41 H2'         0.0002   -0.0084   -0.0014 H         1 ATP         0.0698
     42 HO2'       -0.1554   -0.9852    2.0577 H         1 ATP         0.4288
     43 H1'         1.7718    1.9211    1.6015 H         1 ATP         0.1374
     44 H8          1.3565    3.3309   -1.8916 H         1 ATP         0.2460
     45 HN61       -3.8634    5.8832   -0.3817 H         1 ATP         0.4865
     46 HN62       -2.4948    5.6788   -1.4484 H         1 ATP         0.4865
     47 H2         -2.9911    2.8734    3.1000 H         1 ATP         0.1083
     48 H48        -3.9253    4.5332    1.6302 H         1 ATP         0.4893
@<TRIPOS>BOND
     1    1    2 2
     2    1    3 1
     3    1    4 1
     4    1    8 1
     5    3   32 1
     6    4   33 1
     7    5    6 2
     8    5    7 1
     9    5    8 1
    10    5   12 1
    11    7   34 1
    12    9   10 2
    13    9   11 1
    14    9   12 1
    15    9   13 1
    16   11   35 1
    17   13   14 1
    18   14   15 1
    19   14   36 1
    20   14   37 1
    21   15   16 1
    22   15   17 1
    23   15   38 1
    24   16   21 1
    25   17   18 1
    26   17   19 1
    27   17   39 1
    28   18   40 1
    29   19   20 1
    30   19   21 1
    31   19   41 1
    32   20   42 1
    33   21   22 1
    34   21   43 1
    35   22   23 ar
    36   22   31 ar
    37   23   24 ar
    38   23   44 1
    39   24   25 ar
    40   25   26 ar
    41   25   31 ar
    42   26   27 1
    43   26   28 ar
    44   27   45 1
    45   27   46 1
    46   28   29 ar
    47   28   48 1
    48   29   30 ar
    49   29   47 1
    50   30   31 ar
@<TRIPOS>SUBSTRUCTURE
     1 ATP         1 GROUP 0 A     ****
@<TRIPOS>MOLECULE
[[5-(6-amino-1,8-dihydropurine-6,8-diylium-7-id-9-yl)-3,4-dihydroxy-tetrahydrofuran-2-yl]methoxy-hydroxy-phosphoryl] phosphono hydrogen phosphate
   48    50     1     0     0
SMALL
USER_CHARGES

@<TRIPOS>ATOM
      1 PG         -2.1602    0.6515   -6.2085 P.3       1 ATP         1.7931
      2 O1G        -2.2038    1.4315   -7.4895 O.2       1 ATP        -0.8245
      3 O2G        -3.3845    0.9265   -5.1901 O.3       1 ATP        -0.7758
      4 O3G        -2.1685   -0.9555   -6.3823 O.3       1 ATP        -0.7758
      5 PB         -0.2606    2.2567   -4.6215 P.3       1 ATP         1.9416
      6 O1B         0.0755    3.3607   -5.5801 O.2       1 ATP        -0.8420
      7 O2B        -1.3668    2.6396   -3.5066 O.3       1 ATP        -0.7993
      8 O3B        -0.8474    0.9148   -5.3037 O.3       1 ATP        -0.7763
      9 PA          2.3560    0.9665   -4.2292 P.3       1 ATP         1.7989
     10 O1A         3.2312    1.8165   -5.1037 O.2       1 ATP        -0.8148
     11 O2A         1.8651   -0.4136   -4.9160 O.3       1 ATP        -0.8139
     12 O3A         0.9784    1.6725   -3.7670 O.3       1 ATP        -0.8202
     13 O5'         3.0192    0.5132   -2.8246 O.3       1 ATP        -0.5616
     14 C5'         2.2816   -0.2918   -1.9206 C.3       1 ATP         0.1639
     15 C4'         2.7248    0.0226   -0.4980 C.3       1 ATP         0.1354
     16 O4'         2.4697    1.4219   -0.2462 O.3       1 ATP        -0.4135
     17 C3'         1.9404   -0.7419    0.5596 C.3       1 ATP         0.0995
     18 O3'         2.7418   -0.8086    1.7389 O.3       1 ATP        -0.5734
     19 C2'         0.7477    0.1630    0.7858 C.3       1 ATP         0.0652
     20 O2'         0.1373   -0.0577    2.0407 O.3       1 ATP        -0.5780
     21 C1'         1.3733    1.5427    0.6747 C.3       1 ATP         0.4207
     22 N9          0.4520    2.5240    0.1767 N.pl3     1 ATP        -0.4600
     23 C8          0.5793    3.3338   -1.1209 C.ar      1 ATP         0.1694
     24 N7         -0.4807    4.1508   -1.2458 N.2       1 ATP        -0.2540
     25 C5         -1.1921    3.8572   -0.1126 C.ar      1 ATP        -0.1403
     26 C6         -2.4855    4.5203    0.2163 C.ar      1 ATP         0.4951
     27 N6         -2.9873    5.4319   -0.6020 N.pl3     1 ATP        -0.8019
     28 N1         -3.0414    4.1119    1.3596 N.pl3     1 ATP        -0.6941
     29 C2         -2.4169    3.1071    2.1904 C.ar      1 ATP         0.6475
     30 N3         -1.2928    2.5191    1.9210 N.ar      1 ATP        -0.5183
     31 C4         -0.7202    2.9326    0.7534 C.ar      1 ATP         0.3000
     32 HOG2       -4.3007    0.7419   -5.4877 H         1 ATP         0.4939
     33 HOG3       -2.9286   -1.3804   -6.8338 H         1 ATP         0.4939
     34 HOB2       -2.2610    2.9155   -3.8004 H         1 ATP         0.5072
     35 HOA2        2.5389   -1.0634   -5.2087 H         1 ATP         0.5058
     36 H5'1        1.2150   -0.0785   -2.0448 H         1 ATP         0.0543
     37 H5'2        2.4641   -1.3458   -2.1540 H         1 ATP         0.0543
     38 H4'         3.8046   -0.1390   -0.4012 H         1 ATP         0.1294
     39 H3'         1.6787   -1.7628    0.2719 H         1 ATP         0.0900
     40 HO3'        2.2231   -1.2979    2.3952 H         1 ATP         0.4260
     41 H2'         0.0002   -0.0084   -0.0014 H         1 ATP         0.0698
     42 HO2'       -0.1554   -0.9852    2.0577 H         1 ATP         0.4288
     43 H1'         1.7718    1.9211    1.6015 H         1 ATP         0.1374
     44 H8          1.3565    3.3309   -1.8916 H         1 ATP         0.2460
     45 HN61       -3.8634    5.8832   -0.3817 H         1 ATP         0.4865
     46 HN62       -2.4948    5.6788   -1.4484 H         1 ATP         0.4865
     47 H2         -2.9911    2.8734    3.1000 H         1 ATP         0.1083
     48 H48        -3.9253    4.5332    1.6302 H         1 ATP         0.4893
@<TRIPOS>BOND
     1    1    2 2
     2    1    3 1
     3    1    4 1
     4    1    8 1
     5    3   32 1
     6    4   33 1
     7    5    6 2
     8    5    7 1
     9    5    8 1
    10    5   12 1
    11    7   34 1
    12    9   10 2
    13    9   11 1
    14    9   12 1
    15    9   13 1
    16   11   35 1
    17   13   14 1
    18   14   15 1
    19   14   36 1
    20   14   37 1
    21   15   16 1
    22   15   17 1
    23   15   38 1
    24   16   21 1
    25   17   18 1
    26   17   19 1
    27   17   39 1
    28   18   40 1
    29   19   20 1
    30   19   21 1
    31   19   41 1
    32   20   42 1
    33   21   22 1
    34   21   43 1
    35   22   23 ar
    36   22   31 ar
    37   23   24 ar
    38   23   44 1
    39   24   25 ar
    40   25   26 ar
    41   25   31 ar
    42   26   27 1
    43   26   28 ar
    44   27   45 1
    45   27   46 1
    46   28   29 ar
    47   28   48 1
    48   29   30 ar
    49   29   47 1
    50   30   31 ar
@<TRIPOS>SUBSTRUCTURE
     1 ATP         1 GROUP 0 A     ****
@<TRIPOS>MOLECULE
[[5-(6-amino-1,8-dihydropurine-6,8-diylium-7-id-9-yl)-3,4-dihydroxy-tetrahydrofuran-2-yl]methoxy-hydroxy-phosphoryl] phosphono hydrogen phosphate
   48    50     1     0     0
SMALL
USER_CHARGES

@<TRIPOS>ATOM
      1 PG          4.1295    1.4618   -6.2031 P.3       1 ATP         1.7931
      2 O1G         4.0303    1.7886   -4.7421 O.2       1 ATP        -0.8245
      3 O2G         2.9720    2.0989   -7.1338 O.3       1 ATP        -0.7758
      4 O3G         5.4962    1.9389   -6.9223 O.3       1 ATP        -0.7758
      5 PB          2.9332   -1.2340   -6.2727 P.3       1 ATP         1.9416
      6 O1B         1.6029   -0.9572   -6.9088 O.2       1 ATP        -0.8420
      7 O2B         3.6323   -2.6160   -6.7360 O.3       1 ATP        -0.7993
      8 O3B         4.0670   -0.1161   -6.5464 O.3       1 ATP        -0.7763
      9 PA          2.1468   -2.2811   -3.6362 P.3       1 ATP         1.7989
     10 O1A         2.4480   -3.7421   -3.8041 O.2       1 ATP        -0.8148
     11 O2A         0.5929   -1.8899   -3.8585 O.3       1 ATP        -0.8139
     12 O3A         2.9337   -1.3101   -4.6600 O.3       1 ATP        -0.8202
     13 O5'         2.5234   -1.6624   -2.1893 O.3       1 ATP        -0.5616
     14 C5'         2.2816   -0.2918   -1.9206 C.3       1 ATP         0.1639
     15 C4'         2.7248    0.0226   -0.4980 C.3       1 ATP         0.1354
     16 O4'         2.4697    1.4219   -0.2462 O.3       1 ATP        -0.4135
     17 C3'         1.9404   -0.7419    0.5596 C.3       1 ATP         0.0995
     18 O3'         2.7418   -0.8086    1.7389 O.3       1 ATP        -0.5734
     19 C2'         0.7477    0.1630    0.7858 C.3       1 ATP         0.0652
     20 O2'         0.1373   -0.0577    2.0407 O.3       1 ATP        -0.5780
     21 C1'         1.3733    1.5427    0.6747 C.3       1 ATP         0.4207
     22 N9          0.4520    2.5240    0.1767 N.pl3     1 ATP        -0.4600
     23 C8         -0.4598    3.4379    1.0068 C.ar      1 ATP         0.1694
     24 N7         -1.1770    4.2228    0.1845 N.2       1 ATP        -0.2540
     25 C5         -0.7330    3.8149   -1.0455 C.ar      1 ATP        -0.1403
     26 C6         -1.2413    4.4029   -2.3169 C.ar      1 ATP         0.4951
     27 N6         -2.1578    5.3575   -2.2832 N.pl3     1 ATP        -0.8019
     28 N1         -0.6977    3.8860   -3.4216 N.pl3     1 ATP        -0.6941
     29 C2          0.3002    2.8419   -3.3591 C.ar      1 ATP         0.6475
     30 N3          0.7548    2.3183   -2.2631 N.ar      1 ATP        -0.5183
     31 C4          0.2027    2.8430   -1.1309 C.ar      1 ATP         0.3000
     32 HOG2        2.0364    1.8649   -6.9553 H         1 ATP         0.4939
     33 HOG3        5.7212    2.8936   -6.9288 H         1 ATP         0.4939
     34 HOB2        3.1639   -3.4624   -6.5739 H         1 ATP         0.5072
     35 HOA2       -0.0860   -2.2971   -3.2795 H         1 ATP         0.5058
     36 H5'1        2.8429    0.3147   -2.6388 H         1 ATP         0.0543
     37 H5'2        1.2125   -0.0898   -2.0417 H         1 ATP         0.0543
     38 H4'         3.8046   -0.1390   -0.4012 H         1 ATP         0.1294
     39 H3'         1.6787   -1.7628    0.2719 H         1 ATP         0.0900
     40 HO3'        2.2231   -1.2979    2.3952 H         1 ATP         0.4260
     41 H2'         0.0002   -0.0084   -0.0014 H         1 ATP         0.0698
     42 HO2'       -0.6132    0.5577    2.1063 H         1 ATP         0.4288
     43 H1'         1.7718    1.9211    1.6015 H         1 ATP         0.1374
     44 H8         -0.5892    3.5248    2.0902 H         1 ATP         0.2460
     45 HN61       -2.5044    5.7578   -3.1430 H         1 ATP         0.4865
     46 HN62       -2.5131    5.6876   -1.3973 H         1 ATP         0.4865
     47 H2          0.6550    2.5166   -4.3490 H         1 ATP         0.1083
     48 H48        -1.0101    4.2527   -4.3160 H         1 ATP         0.4893
@<TRIPOS>BOND
     1    1    2 2
     2    1    3 1
     3    1    4 1
     4    1    8 1
     5    3   32 1
     6    4   33 1
     7    5    6 2
     8    5    7 1
     9    5    8 1
    10    5   12 1
    11    7   34 1
    12    9   10 2
    13    9   11 1
    14    9   12 1
    15    9   13 1
    16   11   35 1
    17   13   14 1
    18   14   15 1
    19   14   36 1
    20   14   37 1
    21   15   16 1
    22   15   17 1
    23   15   38 1
    24   16   21 1
    25   17   18 1
    26   17   19 1
    27   17   39 1
    28   18   40 1
    29   19   20 1
    30   19   21 1
    31   19   41 1
    32   20   42 1
    33   21   22 1
    34   21   43 1
    35   22   23 ar
    36   22   31 ar
    37   23   24 ar
    38   23   44 1
    39   24   25 ar
    40   25   26 ar
    41   25   31 ar
    42   26   27 1
    43   26   28 ar
    44   27   45 1
    45   27   46 1
    46   28   29 ar
    47   28   48 1
    48   29   30 ar
    49   29   47 1
    50   30   31 ar
@<TRIPOS>SUBSTRUCTURE
     1 ATP         1 GROUP 0 A     ****
@<TRIPOS>MOLECULE
[[5-(6-amino-1,8-dihydropurine-6,8-diylium-7-id-9-yl)-3,4-dihydroxy-tetrahydrofuran-2-yl]methoxy-hydroxy-phosphoryl] phosphono hydrogen phosphate
   48    50     1     0     0
SMALL
USER_CHARGES

@<TRIPOS>ATOM
      1 PG         -1.1228    2.6754   -6.3430 P.3       1 ATP         1.7931
      2 O1G        -0.8250    3.0663   -7.7606 O.2       1 ATP        -0.8245
      3 O2G        -1.8450    3.8124   -5.4499 O.3       1 ATP        -0.7758
      4 O3G        -2.0907    1.3920   -6.1732 O.3       1 ATP        -0.7758
      5 PB          1.5015    3.1025   -5.0646 P.3       1 ATP         1.9416
      6 O1B         2.3263    3.5821   -6.2225 O.2       1 ATP        -0.8420
      7 O2B         0.9472    4.2719   -4.0960 O.3       1 ATP        -0.7993
      8 O3B         0.1750    2.2731   -5.4681 O.3       1 ATP        -0.7763
      9 PA          2.8837    0.6137   -4.3156 P.3       1 ATP         1.7989
     10 O1A         4.0005    0.5905   -5.3184 O.2       1 ATP        -0.8148
     11 O2A         1.6113   -0.3033   -4.7122 O.3       1 ATP        -0.8139
     12 O3A         2.2372    2.0724   -4.0624 O.3       1 ATP        -0.8202
     13 O5'         3.2876    0.1332   -2.8242 O.3       1 ATP        -0.5616
     14 C5'         2.2816   -0.2918   -1.9206 C.3       1 ATP         0.1639
     15 C4'         2.7248    0.0226   -0.4980 C.3       1 ATP         0.1354
     16 O4'         2.4697    1.4219   -0.2462 O.3       1 ATP        -0.4135
     17 C3'         1.9404   -0.7419    0.5596 C.3       1 ATP         0.0995
     18 O3'         2.7418   -0.8086    1.7389 O.3       1 ATP        -0.5734
     19 C2'         0.7477    0.1630    0.7858 C.3       1 ATP         0.0652
     20 O2'         0.1373   -0.0577    2.0407 O.3       1 ATP        -0.5780
     21 C1'         1.3733    1.5427    0.6747 C.3       1 ATP         0.4207
     22 N9          0.4520    2.5240    0.1767 N.pl3     1 ATP        -0.4600
     23 C8          0.5793    3.3338   -1.1209 C.ar      1 ATP         0.1694
     24 N7         -0.4807    4.1508   -1.2458 N.2       1 ATP        -0.2540
     25 C5         -1.1921    3.8572   -0.1126 C.ar      1 ATP        -0.1403
     26 C6         -2.4855    4.5203    0.2163 C.ar      1 ATP         0.4951
     27 N6         -2.9873    5.4319   -0.6020 N.pl3     1 ATP        -0.8019
     28 N1         -3.0414    4.1119    1.3596 N.pl3     1 ATP        -0.6941
     29 C2         -2.4169    3.1071    2.1904 C.ar      1 ATP         0.6475
     30 N3         -1.2928    2.5191    1.9210 N.ar      1 ATP        -0.5183
     31 C4         -0.7202    2.9326    0.7534 C.ar      1 ATP         0.3000
     32 HOG2       -2.7185    4.1562   -5.7341 H         1 ATP         0.4939
     33 HOG3       -2.9950    1.4260   -6.5515 H         1 ATP         0.4939
     34 HOB2        0.3622    4.9631   -4.4731 H         1 ATP         0.5072
     35 HOA2        1.7421   -1.2674   -4.8367 H         1 ATP         0.5058
     36 H5'1        1.3495    0.2323   -2.1554 H         1 ATP         0.0543
     37 H5'2        2.1262   -1.3685   -2.0437 H         1 ATP         0.0543
     38 H4'         3.8046   -0.1390   -0.4012 H         1 ATP         0.1294
     39 H3'         1.6787   -1.7628    0.2719 H         1 ATP         0.0900
     40 HO3'        2.2231   -1.2979    2.3952 H         1 ATP         0.4260
     41 H2'         0.0002   -0.0084   -0.0014 H         1 ATP         0.0698
     42 HO2'       -0.1554   -0.9852    2.0577 H         1 ATP         0.4288
     43 H1'         1.7718    1.9211    1.6015 H         1 ATP         0.1374
     44 H8          1.3565    3.3309   -1.8916 H         1 ATP         0.2460
     45 HN61       -3.8634    5.8832   -0.3817 H         1 ATP         0.4865
     46 HN62       -2.4948    5.6788   -1.4484 H         1 ATP         0.4865
     47 H2         -2.9911    2.8734    3.1000 H         1 ATP         0.1083
     48 H48        -3.9253    4.5332    1.6302 H         1 ATP         0.4893
@<TRIPOS>BOND
     1    1    2 2
     2    1    3 1
     3    1    4 1
     4    1    8 1
     5    3   32 1
     6    4   33 1
     7    5    6 2
     8    5    7 1
     9    5    8 1
    10    5   12 1
    11    7   34 1
    12    9   10 2
    13    9   11 1
    14    9   12 1
    15    9   13 1
    16   11   35 1
    17   13   14 1
    18   14   15 1
    19   14   36 1
    20   14   37 1
    21   15   16 1
    22   15   17 1
    23   15   38 1
    24   16   21 1
    25   17   18 1
    26   17   19 1
    27   17   39 1
    28   18   40 1
    29   19   20 1
    30   19   21 1
    31   19   41 1
    32   20   42 1
    33   21   22 1
    34   21   43 1
    35   22   23 ar
    36   22   31 ar
    37   23   24 ar
    38   23   44 1
    39   24   25 ar
    40   25   26 ar
    41   25   31 ar
    42   26   27 1
    43   26   28 ar
    44   27   45 1
    45   27   46 1
    46   28   29 ar
    47   28   48 1
    48   29   30 ar
    49   29   47 1
    50   30   31 ar
@<TRIPOS>SUBSTRUCTURE
     1 ATP         1 GROUP 0 A     ****
@<TRIPOS>MOLECULE
[[5-(6-amino-1,8-dihydropurine-6,8-diylium-7-id-9-yl)-3,4-dihydroxy-tetrahydrofuran-2-yl]methoxy-hydroxy-phosphoryl] phosphono hydrogen phosphate
   48    50     1     0     0
SMALL
USER_CHARGES

@<TRIPOS>ATOM
      1 PG          0.6591   -0.3880   -7.9509 P.3       1 ATP         1.7931
      2 O1G         0.6505   -1.4641   -8.9964 O.2       1 ATP        -0.8245
      3 O2G         1.3766    0.9930   -8.3866 O.3       1 ATP        -0.7758
      4 O3G        -0.7998    0.0891   -7.4442 O.3       1 ATP        -0.7758
      5 PB          2.9332   -1.2340   -6.2727 P.3       1 ATP         1.9416
      6 O1B         3.3845   -2.4772   -6.9810 O.2       1 ATP        -0.8420
      7 O2B         3.7979    0.0899   -6.6084 O.3       1 ATP        -0.7993
      8 O3B         1.4102   -0.7890   -6.5773 O.3       1 ATP        -0.7763
      9 PA          2.1468   -2.2811   -3.6362 P.3       1 ATP         1.7989
     10 O1A         2.4480   -3.7421   -3.8041 O.2       1 ATP        -0.8148
     11 O2A         0.5929   -1.8899   -3.8585 O.3       1 ATP        -0.8139
     12 O3A         2.9337   -1.3101   -4.6600 O.3       1 ATP        -0.8202
     13 O5'         2.5234   -1.6624   -2.1893 O.3       1 ATP        -0.5616
     14 C5'         2.2816   -0.2918   -1.9206 C.3       1 ATP         0.1639
     15 C4'         2.7248    0.0226   -0.4980 C.3       1 ATP         0.1354
     16 O4'         2.4697    1.4219   -0.2462 O.3       1 ATP        -0.4135
     17 C3'         1.9404   -0.7419    0.5596 C.3       1 ATP         0.0995
     18 O3'         2.7418   -0.8086    1.7389 O.3       1 ATP        -0.5734
     19 C2'         0.7477    0.1630    0.7858 C.3       1 ATP         0.0652
     20 O2'         0.1373   -0.0577    2.0407 O.3       1 ATP        -0.5780
     21 C1'         1.3733    1.5427    0.6747 C.3       1 ATP         0.4207
     22 N9          0.4520    2.5240    0.1767 N.pl3     1 ATP        -0.4600
     23 C8         -0.7463    2.2774   -0.7501 C.ar      1 ATP         0.1694
     24 N7         -1.3714    3.4419   -0.9948 N.2       1 ATP        -0.2540
     25 C5         -0.6104    4.3223   -0.2723 C.ar      1 ATP        -0.1403
     26 C6         -0.9062    5.7820   -0.2194 C.ar      1 ATP         0.4951
     27 N6         -1.9385    6.2713   -0.8881 N.pl3     1 ATP        -0.8019
     28 N1         -0.0613    6.4906    0.5336 N.pl3     1 ATP        -0.6941
     29 C2          1.0416    5.8662    1.2291 C.ar      1 ATP         0.6475
     30 N3          1.3146    4.5989    1.1954 N.ar      1 ATP        -0.5183
     31 C4          0.4541    3.8697    0.4273 C.ar      1 ATP         0.3000
     32 HOG2        1.0265    1.4875   -9.1579 H         1 ATP         0.4939
     33 HOG3       -1.4286    0.4665   -8.0955 H         1 ATP         0.4939
     34 HOB2        3.8425    0.4050   -7.5362 H         1 ATP         0.5072
     35 HOA2       -0.0860   -2.2971   -3.2795 H         1 ATP         0.5058
     36 H5'1        2.8429    0.3147   -2.6388 H         1 ATP         0.0543
     37 H5'2        1.2125   -0.0898   -2.0417 H         1 ATP         0.0543
     38 H4'         3.8046   -0.1390   -0.4012 H         1 ATP         0.1294
     39 H3'         1.6787   -1.7628    0.2719 H         1 ATP         0.0900
     40 HO3'        2.2231   -1.2979    2.3952 H         1 ATP         0.4260
     41 H2'         0.0002   -0.0084   -0.0014 H         1 ATP         0.0698
     42 HO2'       -0.6132    0.5577    2.1063 H         1 ATP         0.4288
     43 H1'         1.7718    1.9211    1.6015 H         1 ATP         0.1374
     44 H8         -1.1244    1.3534   -1.1987 H         1 ATP         0.2460
     45 HN61       -2.1414    7.2600   -0.8544 H         1 ATP         0.4865
     46 HN62       -2.5256    5.6572   -1.4340 H         1 ATP         0.4865
     47 H2          1.6509    6.5764    1.8088 H         1 ATP         0.1083
     48 H48        -0.2190    7.4917    0.6033 H         1 ATP         0.4893
@<TRIPOS>BOND
     1    1    2 2
     2    1    3 1
     3    1    4 1
     4    1    8 1
     5    3   32 1
     6    4   33 1
     7    5    6 2
     8    5    7 1
     9    5    8 1
    10    5   12 1
    11    7   34 1
    12    9   10 2
    13    9   11 1
    14    9   12 1
    15    9   13 1
    16   11   35 1
    17   13   14 1
    18   14   15 1
    19   14   36 1
    20   14   37 1
    21   15   16 1
    22   15   17 1
    23   15   38 1
    24   16   21 1
    25   17   18 1
    26   17   19 1
    27   17   39 1
    28   18   40 1
    29   19   20 1
    30   19   21 1
    31   19   41 1
    32   20   42 1
    33   21   22 1
    34   21   43 1
    35   22   23 ar
    36   22   31 ar
    37   23   24 ar
    38   23   44 1
    39   24   25 ar
    40   25   26 ar
    41   25   31 ar
    42   26   27 1
    43   26   28 ar
    44   27   45 1
    45   27   46 1
    46   28   29 ar
    47   28   48 1
    48   29   30 ar
    49   29   47 1
    50   30   31 ar
@<TRIPOS>SUBSTRUCTURE
     1 ATP         1 GROUP 0 A     ****
@<TRIPOS>MOLECULE
[[5-(6-amino-1,8-dihydropurine-6,8-diylium-7-id-9-yl)-3,4-dihydroxy-tetrahydrofuran-2-yl]methoxy-hydroxy-phosphoryl] phosphono hydrogen phosphate
   48    50     1     0     0
SMALL
USER_CHARGES

@<TRIPOS>ATOM
      1 PG          6.1056    1.4907   -4.5719 P.3       1 ATP         1.7931
      2 O1G         5.3303    1.7375   -3.3113 O.2       1 ATP        -0.8245
      3 O2G         5.5989    2.3140   -5.8670 O.3       1 ATP        -0.7758
      4 O3G         7.6800    1.8476   -4.4910 O.3       1 ATP        -0.7758
      5 PB          4.9029   -1.0376   -5.5018 P.3       1 ATP         1.9416
      6 O1B         4.0761   -0.5691   -6.6628 O.2       1 ATP        -0.8420
      7 O2B         5.6367   -2.4611   -5.7222 O.3       1 ATP        -0.7993
      8 O3B         6.1040   -0.0453   -5.0742 O.3       1 ATP        -0.7763
      9 PA          2.8567   -2.1438   -3.6977 P.3       1 ATP         1.7989
     10 O1A         3.0944   -3.6170   -3.8601 O.2       1 ATP        -0.8148
     11 O2A         1.6417   -1.5609   -4.5928 O.3       1 ATP        -0.8139
     12 O3A         4.1111   -1.2111   -4.1056 O.3       1 ATP        -0.8202
     13 O5'         2.5234   -1.6624   -2.1893 O.3       1 ATP        -0.5616
     14 C5'         2.2816   -0.2918   -1.9206 C.3       1 ATP         0.1639
     15 C4'         2.7248    0.0226   -0.4980 C.3       1 ATP         0.1354
     16 O4'         2.4697    1.4219   -0.2462 O.3       1 ATP        -0.4135
     17 C3'         1.9404   -0.7419    0.5596 C.3       1 ATP         0.0995
     18 O3'         2.7418   -0.8086    1.7389 O.3       1 ATP        -0.5734
     19 C2'         0.7477    0.1630    0.7858 C.3       1 ATP         0.0652
     20 O2'         0.1373   -0.0577    2.0407 O.3       1 ATP        -0.5780
     21 C1'         1.3733    1.5427    0.6747 C.3       1 ATP         0.4207
     22 N9          0.4520    2.5240    0.1767 N.pl3     1 ATP        -0.4600
     23 C8         -0.7463    2.2774   -0.7501 C.ar      1 ATP         0.1694
     24 N7         -1.3714    3.4419   -0.9948 N.2       1 ATP        -0.2540
     25 C5         -0.6104    4.3223   -0.2723 C.ar      1 ATP        -0.1403
     26 C6         -0.9062    5.7820   -0.2194 C.ar      1 ATP         0.4951
     27 N6         -1.9385    6.2713   -0.8881 N.pl3     1 ATP        -0.8019
     28 N1         -0.0613    6.4906    0.5336 N.pl3     1 ATP        -0.6941
     29 C2          1.0416    5.8662    1.2291 C.ar      1 ATP         0.6475
     30 N3          1.3146    4.5989    1.1954 N.ar      1 ATP        -0.5183
     31 C4          0.4541    3.8697    0.4273 C.ar      1 ATP         0.3000
     32 HOG2        4.6809    2.1806   -6.1856 H         1 ATP         0.4939
     33 HOG3        7.9482    2.7681   -4.2840 H         1 ATP         0.4939
     34 HOB2        5.0887   -3.2553   -5.8984 H         1 ATP         0.5072
     35 HOA2        1.6893   -1.6447   -5.5689 H         1 ATP         0.5058
     36 H5'1        2.8429    0.3147   -2.6388 H         1 ATP         0.0543
     37 H5'2        1.2125   -0.0898   -2.0417 H         1 ATP         0.0543
     38 H4'         3.8046   -0.1390   -0.4012 H         1 ATP         0.1294
     39 H3'         1.6787   -1.7628    0.2719 H         1 ATP         0.0900
     40 HO3'        2.2231   -1.2979    2.3952 H         1 ATP         0.4260
     41 H2'         0.0002   -0.0084   -0.0014 H         1 ATP         0.0698
     42 HO2'       -0.6132    0.5577    2.1063 H         1 ATP         0.4288
     43 H1'         1.7718    1.9211    1.6015 H         1 ATP         0.1374
     44 H8         -1.1244    1.3534   -1.1987 H         1 ATP         0.2460
     45 HN61       -2.1414    7.2600   -0.8544 H         1 ATP         0.4865
     46 HN62       -2.5256    5.6572   -1.4340 H         1 ATP         0.4865
     47 H2          1.6509    6.5764    1.8088 H         1 ATP         0.1083
     48 H48        -0.2190    7.4917    0.6033 H         1 ATP         0.4893
@<TRIPOS>BOND
     1    1    2 2
     2    1    3 1
     3    1    4 1
     4    1    8 1
     5    3   32 1
     6    4   33 1
     7    5    6 2
     8    5    7 1
     9    5    8 1
    10    5   12 1
    11    7   34 1
    12    9   10 2
    13    9   11 1
    14    9   12 1
    15    9   13 1
    16   11   35 1
    17   13   14 1
    18   14   15 1
    19   14   36 1
    20   14   37 1
    21   15   16 1
    22   15   17 1
    23   15   38 1
    24   16   21 1
    25   17   18 1
    26   17   19 1
    27   17   39 1
    28   18   40 1
    29   19   20 1
    30   19   21 1
    31   19   41 1
    32   20   42 1
    33   21   22 1
    34   21   43 1
    35   22   23 ar
    36   22   31 ar
    37   23   24 ar
    38   23   44 1
    39   24   25 ar
    40   25   26 ar
    41   25   31 ar
    42   26   27 1
    43   26   28 ar
    44   27   45 1
    45   27   46 1
    46   28   29 ar
    47   28   48 1
    48   29   30 ar
    49   29   47 1
    50   30   31 ar
@<TRIPOS>SUBSTRUCTURE
     1 ATP         1 GROUP 0 A     ****
@<TRIPOS>MOLECULE
[[5-(6-amino-1,8-dihydropurine-6,8-diylium-7-id-9-yl)-3,4-dihydroxy-tetrahydrofuran-2-yl]methoxy-hydroxy-phosphoryl] phosphono hydrogen phosphate
   48    50     1     0     0
SMALL
USER_CHARGES

@<TRIPOS>ATOM
      1 PG          4.7329    0.4311   -7.9135 P.3       1 ATP         1.7931
      2 O1G         5.4365   -0.6138   -8.7285 O.2       1 ATP        -0.8245
      3 O2G         5.6578    1.6608   -7.4195 O.3       1 ATP        -0.7758
      4 O3G         3.4971    1.1633   -8.6547 O.3       1 ATP        -0.7758
      5 PB          2.9332   -1.2340   -6.2727 P.3       1 ATP         1.9416
      6 O1B         1.6029   -0.9572   -6.9088 O.2       1 ATP        -0.8420
      7 O2B         3.6323   -2.6160   -6.7360 O.3       1 ATP        -0.7993
      8 O3B         4.0670   -0.1161   -6.5464 O.3       1 ATP        -0.7763
      9 PA          2.1468   -2.2811   -3.6362 P.3       1 ATP         1.7989
     10 O1A         2.4480   -3.7421   -3.8041 O.2       1 ATP        -0.8148
     11 O2A         0.5929   -1.8899   -3.8585 O.3       1 ATP        -0.8139
     12 O3A         2.9337   -1.3101   -4.6600 O.3       1 ATP        -0.8202
     13 O5'         2.5234   -1.6624   -2.1893 O.3       1 ATP        -0.5616
     14 C5'         2.2816   -0.2918   -1.9206 C.3       1 ATP         0.1639
     15 C4'         2.7248    0.0226   -0.4980 C.3       1 ATP         0.1354
     16 O4'         2.4697    1.4219   -0.2462 O.3       1 ATP        -0.4135
     17 C3'         1.9404   -0.7419    0.5596 C.3       1 ATP         0.0995
     18 O3'         2.7418   -0.8086    1.7389 O.3       1 ATP        -0.5734
     19 C2'         0.7477    0.1630    0.7858 C.3       1 ATP         0.0652
     20 O2'         0.1373   -0.0577    2.0407 O.3       1 ATP        -0.5780
     21 C1'         1.3733    1.5427    0.6747 C.3       1 ATP         0.4207
     22 N9          0.4520    2.5240    0.1767 N.pl3     1 ATP        -0.4600
     23 C8         -0.7463    2.2774   -0.7501 C.ar      1 ATP         0.1694
     24 N7         -1.3714    3.4419   -0.9948 N.2       1 ATP        -0.2540
     25 C5         -0.6104    4.3223   -0.2723 C.ar      1 ATP        -0.1403
     26 C6         -0.9062    5.7820   -0.2194 C.ar      1 ATP         0.4951
     27 N6         -1.9385    6.2713   -0.8881 N.pl3     1 ATP        -0.8019
     28 N1         -0.0613    6.4906    0.5336 N.pl3     1 ATP        -0.6941
     29 C2          1.0416    5.8662    1.2291 C.ar      1 ATP         0.6475
     30 N3          1.3146    4.5989    1.1954 N.ar      1 ATP        -0.5183
     31 C4          0.4541    3.8697    0.4273 C.ar      1 ATP         0.3000
     32 HOG2        6.1036    2.2196   -8.0911 H         1 ATP         0.4939
     33 HOG3        2.7381    0.6219   -8.9596 H         1 ATP         0.4939
     34 HOB2        3.1639   -3.4624   -6.5739 H         1 ATP         0.5072
     35 HOA2       -0.0860   -2.2971   -3.2795 H         1 ATP         0.5058
     36 H5'1        2.8429    0.3147   -2.6388 H         1 ATP         0.0543
     37 H5'2        1.2125   -0.0898   -2.0417 H         1 ATP         0.0543
     38 H4'         3.8046   -0.1390   -0.4012 H         1 ATP         0.1294
     39 H3'         1.6787   -1.7628    0.2719 H         1 ATP         0.0900
     40 HO3'        2.2231   -1.2979    2.3952 H         1 ATP         0.4260
     41 H2'         0.0002   -0.0084   -0.0014 H         1 ATP         0.0698
     42 HO2'       -0.6132    0.5577    2.1063 H         1 ATP         0.4288
     43 H1'         1.7718    1.9211    1.6015 H         1 ATP         0.1374
     44 H8         -1.1244    1.3534   -1.1987 H         1 ATP         0.2460
     45 HN61       -2.1414    7.2600   -0.8544 H         1 ATP         0.4865
     46 HN62       -2.5256    5.6572   -1.4340 H         1 ATP         0.4865
     47 H2          1.6509    6.5764    1.8088 H         1 ATP         0.1083
     48 H48        -0.2190    7.4917    0.6033 H         1 ATP         0.4893
@<TRIPOS>BOND
     1    1    2 2
     2    1    3 1
     3    1    4 1
     4    1    8 1
     5    3   32 1
     6    4   33 1
     7    5    6 2
     8    5    7 1
     9    5    8 1
    10    5   12 1
    11    7   34 1
    12    9   10 2
    13    9   11 1
    14    9   12 1
    15    9   13 1
    16   11   35 1
    17   13   14 1
    18   14   15 1
    19   14   36 1
    20   14   37 1
    21   15   16 1
    22   15   17 1
    23   15   38 1
    24   16   21 1
    25   17   18 1
    26   17   19 1
    27   17   39 1
    28   18   40 1
    29   19   20 1
    30   19   21 1
    31   19   41 1
    32   20   42 1
    33   21   22 1
    34   21   43 1
    35   22   23 ar
    36   22   31 ar
    37   23   24 ar
    38   23   44 1
    39   24   25 ar
    40   25   26 ar
    41   25   31 ar
    42   26   27 1
    43   26   28 ar
    44   27   45 1
    45   27   46 1
    46   28   29 ar
    47   28   48 1
    48   29   30 ar
    49   29   47 1
    50   30   31 ar
@<TRIPOS>SUBSTRUCTURE
     1 ATP         1 GROUP 0 A     ****
@<TRIPOS>MOLECULE
[[5-(6-amino-1,8-dihydropurine-6,8-diylium-7-id-9-yl)-3,4-dihydroxy-tetrahydrofuran-2-yl]methoxy-hydroxy-phosphoryl] phosphono hydrogen phosphate
   48    50     1     0     0
SMALL
USER_CHARGES

@<TRIPOS>ATOM
      1 PG          6.3969   -3.0267   -6.0433 P.3       1 ATP         1.7931
      2 O1G         6.8806   -2.2932   -7.2595 O.2       1 ATP        -0.8245
      3 O2G         6.1662   -4.6141   -6.2401 O.3       1 ATP        -0.7758
      4 O3G         7.3736   -2.9445   -4.7580 O.3       1 ATP        -0.7758
      5 PB          4.5115   -1.0664   -4.9006 P.3       1 ATP         1.9416
      6 O1B         5.2794   -0.5666   -3.7125 O.2       1 ATP        -0.8420
      7 O2B         4.5717   -0.1067   -6.2000 O.3       1 ATP        -0.7993
      8 O3B         4.9818   -2.5067   -5.4613 O.3       1 ATP        -0.7763
      9 PA          2.1468   -2.2811   -3.6362 P.3       1 ATP         1.7989
     10 O1A         2.4480   -3.7421   -3.8041 O.2       1 ATP        -0.8148
     11 O2A         0.5929   -1.8899   -3.8585 O.3       1 ATP        -0.8139
     12 O3A         2.9337   -1.3101   -4.6600 O.3       1 ATP        -0.8202
     13 O5'         2.5234   -1.6624   -2.1893 O.3       1 ATP        -0.5616
     14 C5'         2.2816   -0.2918   -1.9206 C.3       1 ATP         0.1639
     15 C4'         2.7248    0.0226   -0.4980 C.3       1 ATP         0.1354
     16 O4'         2.4697    1.4219   -0.2462 O.3       1 ATP        -0.4135
     17 C3'         1.9404   -0.7419    0.5596 C.3       1 ATP         0.0995
     18 O3'         2.7418   -0.8086    1.7389 O.3       1 ATP        -0.5734
     19 C2'         0.7477    0.1630    0.7858 C.3       1 ATP         0.0652
     20 O2'         0.1373   -0.0577    2.0407 O.3       1 ATP        -0.5780
     21 C1'         1.3733    1.5427    0.6747 C.3       1 ATP         0.4207
     22 N9          0.4520    2.5240    0.1767 N.pl3     1 ATP        -0.4600
     23 C8         -0.4598    3.4379    1.0068 C.ar      1 ATP         0.1694
     24 N7         -1.1770    4.2228    0.1845 N.2       1 ATP        -0.2540
     25 C5         -0.7330    3.8149   -1.0455 C.ar      1 ATP        -0.1403
     26 C6         -1.2413    4.4029   -2.3169 C.ar      1 ATP         0.4951
     27 N6         -2.1578    5.3575   -2.2832 N.pl3     1 ATP        -0.8019
     28 N1         -0.6977    3.8860   -3.4216 N.pl3     1 ATP        -0.6941
     29 C2          0.3002    2.8419   -3.3591 C.ar      1 ATP         0.6475
     30 N3          0.7548    2.3183   -2.2631 N.ar      1 ATP        -0.5183
     31 C4          0.2027    2.8430   -1.1309 C.ar      1 ATP         0.3000
     32 HOG2        6.9259   -5.1754   -6.5045 H         1 ATP         0.4939
     33 HOG3        7.5820   -2.0657   -4.3754 H         1 ATP         0.4939
     34 HOB2        5.4432    0.0893   -6.6053 H         1 ATP         0.5072
     35 HOA2       -0.0860   -2.2971   -3.2795 H         1 ATP         0.5058
     36 H5'1        2.8429    0.3147   -2.6388 H         1 ATP         0.0543
     37 H5'2        1.2125   -0.0898   -2.0417 H         1 ATP         0.0543
     38 H4'         3.8046   -0.1390   -0.4012 H         1 ATP         0.1294
     39 H3'         1.6787   -1.7628    0.2719 H         1 ATP         0.0900
     40 HO3'        2.2231   -1.2979    2.3952 H         1 ATP         0.4260
     41 H2'         0.0002   -0.0084   -0.0014 H         1 ATP         0.0698
     42 HO2'       -0.1554   -0.9852    2.0577 H         1 ATP         0.4288
     43 H1'         1.7718    1.9211    1.6015 H         1 ATP         0.1374
     44 H8         -0.5892    3.5248    2.0902 H         1 ATP         0.2460
     45 HN61       -2.5128    5.6880   -1.3974 H         1 ATP         0.4865
     46 HN62       -2.5040    5.7581   -3.1431 H         1 ATP         0.4865
     47 H2          0.6550    2.5166   -4.3490 H         1 ATP         0.1083
     48 H48        -1.0101    4.2527   -4.3160 H         1 ATP         0.4893
@<TRIPOS>BOND
     1    1    2 2
     2    1    3 1
     3    1    4 1
     4    1    8 1
     5    3   32 1
     6    4   33 1
     7    5    6 2
     8    5    7 1
     9    5    8 1
    10    5   12 1
    11    7   34 1
    12    9   10 2
    13    9   11 1
    14    9   12 1
    15    9   13 1
    16   11   35 1
    17   13   14 1
    18   14   15 1
    19   14   36 1
    20   14   37 1
    21   15   16 1
    22   15   17 1
    23   15   38 1
    24   16   21 1
    25   17   18 1
    26   17   19 1
    27   17   39 1
    28   18   40 1
    29   19   20 1
    30   19   21 1
    31   19   41 1
    32   20   42 1
    33   21   22 1
    34   21   43 1
    35   22   23 ar
    36   22   31 ar
    37   23   24 ar
    38   23   44 1
    39   24   25 ar
    40   25   26 ar
    41   25   31 ar
    42   26   27 1
    43   26   28 ar
    44   27   45 1
    45   27   46 1
    46   28   29 ar
    47   28   48 1
    48   29   30 ar
    49   29   47 1
    50   30   31 ar
@<TRIPOS>SUBSTRUCTURE
     1 ATP         1 GROUP 0 A     ****
@<TRIPOS>MOLECULE
[[5-(6-amino-1,8-dihydropurine-6,8-diylium-7-id-9-yl)-3,4-dihydroxy-tetrahydrofuran-2-yl]methoxy-hydroxy-phosphoryl] phosphono hydrogen phosphate
   48    50     1     0     0
SMALL
USER_CHARGES

@<TRIPOS>ATOM
      1 PG          0.6591   -0.3880   -7.9509 P.3       1 ATP         1.7931
      2 O1G         1.2441    0.7974   -8.6607 O.2       1 ATP        -0.8245
      3 O2G        -0.8871   -0.2336   -7.5069 O.3       1 ATP        -0.7758
      4 O3G         0.6735   -1.7681   -8.7922 O.3       1 ATP        -0.7758
      5 PB          2.9332   -1.2340   -6.2727 P.3       1 ATP         1.9416
      6 O1B         3.3845   -2.4772   -6.9810 O.2       1 ATP        -0.8420
      7 O2B         3.7979    0.0899   -6.6084 O.3       1 ATP        -0.7993
      8 O3B         1.4102   -0.7890   -6.5773 O.3       1 ATP        -0.7763
      9 PA          2.1468   -2.2811   -3.6362 P.3       1 ATP         1.7989
     10 O1A         2.4480   -3.7421   -3.8041 O.2       1 ATP        -0.8148
     11 O2A         0.5929   -1.8899   -3.8585 O.3       1 ATP        -0.8139
     12 O3A         2.9337   -1.3101   -4.6600 O.3       1 ATP        -0.8202
     13 O5'         2.5234   -1.6624   -2.1893 O.3       1 ATP        -0.5616
     14 C5'         2.2816   -0.2918   -1.9206 C.3       1 ATP         0.1639
     15 C4'         2.7248    0.0226   -0.4980 C.3       1 ATP         0.1354
     16 O4'         2.4697    1.4219   -0.2462 O.3       1 ATP        -0.4135
     17 C3'         1.9404   -0.7419    0.5596 C.3       1 ATP         0.0995
     18 O3'         2.7418   -0.8086    1.7389 O.3       1 ATP        -0.5734
     19 C2'         0.7477    0.1630    0.7858 C.3       1 ATP         0.0652
     20 O2'         0.1373   -0.0577    2.0407 O.3       1 ATP        -0.5780
     21 C1'         1.3733    1.5427    0.6747 C.3       1 ATP         0.4207
     22 N9          0.4520    2.5240    0.1767 N.pl3     1 ATP        -0.4600
     23 C8         -0.4598    3.4379    1.0068 C.ar      1 ATP         0.1694
     24 N7         -1.1770    4.2228    0.1845 N.2       1 ATP        -0.2540
     25 C5         -0.7330    3.8149   -1.0455 C.ar      1 ATP        -0.1403
     26 C6         -1.2413    4.4029   -2.3169 C.ar      1 ATP         0.4951
     27 N6         -2.1578    5.3575   -2.2832 N.pl3     1 ATP        -0.8019
     28 N1         -0.6977    3.8860   -3.4216 N.pl3     1 ATP        -0.6941
     29 C2          0.3002    2.8419   -3.3591 C.ar      1 ATP         0.6475
     30 N3          0.7548    2.3183   -2.2631 N.ar      1 ATP        -0.5183
     31 C4          0.2027    2.8430   -1.1309 C.ar      1 ATP         0.3000
     32 HOG2       -1.1352    0.4901   -6.8931 H         1 ATP         0.4939
     33 HOG3        1.5336   -2.1342   -9.0893 H         1 ATP         0.4939
     34 HOB2        3.8425    0.4050   -7.5362 H         1 ATP         0.5072
     35 HOA2       -0.0860   -2.2971   -3.2795 H         1 ATP         0.5058
     36 H5'1        2.8429    0.3147   -2.6388 H         1 ATP         0.0543
     37 H5'2        1.2125   -0.0898   -2.0417 H         1 ATP         0.0543
     38 H4'         3.8046   -0.1390   -0.4012 H         1 ATP         0.1294
     39 H3'         1.6787   -1.7628    0.2719 H         1 ATP         0.0900
     40 HO3'        2.2231   -1.2979    2.3952 H         1 ATP         0.4260
     41 H2'         0.0002   -0.0084   -0.0014 H         1 ATP         0.0698
     42 HO2'       -0.6132    0.5577    2.1063 H         1 ATP         0.4288
     43 H1'         1.7718    1.9211    1.6015 H         1 ATP         0.1374
     44 H8         -0.5892    3.5248    2.0902 H         1 ATP         0.2460
     45 HN61       -2.5128    5.6880   -1.3974 H         1 ATP         0.4865
     46 HN62       -2.5040    5.7581   -3.1431 H         1 ATP         0.4865
     47 H2          0.6550    2.5166   -4.3490 H         1 ATP         0.1083
     48 H48        -1.0101    4.2527   -4.3160 H         1 ATP         0.4893
@<TRIPOS>BOND
     1    1    2 2
     2    1    3 1
     3    1    4 1
     4    1    8 1
     5    3   32 1
     6    4   33 1
     7    5    6 2
     8    5    7 1
     9    5    8 1
    10    5   12 1
    11    7   34 1
    12    9   10 2
    13    9   11 1
    14    9   12 1
    15    9   13 1
    16   11   35 1
    17   13   14 1
    18   14   15 1
    19   14   36 1
    20   14   37 1
    21   15   16 1
    22   15   17 1
    23   15   38 1
    24   16   21 1
    25   17   18 1
    26   17   19 1
    27   17   39 1
    28   18   40 1
    29   19   20 1
    30   19   21 1
    31   19   41 1
    32   20   42 1
    33   21   22 1
    34   21   43 1
    35   22   23 ar
    36   22   31 ar
    37   23   24 ar
    38   23   44 1
    39   24   25 ar
    40   25   26 ar
    41   25   31 ar
    42   26   27 1
    43   26   28 ar
    44   27   45 1
    45   27   46 1
    46   28   29 ar
    47   28   48 1
    48   29   30 ar
    49   29   47 1
    50   30   31 ar
@<TRIPOS>SUBSTRUCTURE
     1 ATP         1 GROUP 0 A     ****
@<TRIPOS>MOLECULE
[[5-(6-amino-1,8-dihydropurine-6,8-diylium-7-id-9-yl)-3,4-dihydroxy-tetrahydrofuran-2-yl]methoxy-hydroxy-phosphoryl] phosphono hydrogen phosphate
   48    50     1     0     0
SMALL
USER_CHARGES

@<TRIPOS>ATOM
      1 PG          7.6740   -3.2333   -3.8394 P.3       1 ATP         1.7931
      2 O1G         8.7413   -2.4888   -4.5862 O.2       1 ATP        -0.8245
      3 O2G         7.4540   -4.7680   -4.2957 O.3       1 ATP        -0.7758
      4 O3G         7.9026   -3.3440   -2.2431 O.3       1 ATP        -0.7758
      5 PB          5.6188   -1.1392   -3.5324 P.3       1 ATP         1.9416
      6 O1B         5.7436   -0.8057   -2.0749 O.2       1 ATP        -0.8420
      7 O2B         6.3748   -0.1159   -4.5296 O.3       1 ATP        -0.7993
      8 O3B         6.1968   -2.5879   -3.9535 O.3       1 ATP        -0.7763
      9 PA          2.8567   -2.1438   -3.6977 P.3       1 ATP         1.7989
     10 O1A         3.0944   -3.6170   -3.8601 O.2       1 ATP        -0.8148
     11 O2A         1.6417   -1.5609   -4.5928 O.3       1 ATP        -0.8139
     12 O3A         4.1111   -1.2111   -4.1056 O.3       1 ATP        -0.8202
     13 O5'         2.5234   -1.6624   -2.1893 O.3       1 ATP        -0.5616
     14 C5'         2.2816   -0.2918   -1.9206 C.3       1 ATP         0.1639
     15 C4'         2.7248    0.0226   -0.4980 C.3       1 ATP         0.1354
     16 O4'         2.4697    1.4219   -0.2462 O.3       1 ATP        -0.4135
     17 C3'         1.9404   -0.7419    0.5596 C.3       1 ATP         0.0995
     18 O3'         2.7418   -0.8086    1.7389 O.3       1 ATP        -0.5734
     19 C2'         0.7477    0.1630    0.7858 C.3       1 ATP         0.0652
     20 O2'         0.1373   -0.0577    2.0407 O.3       1 ATP        -0.5780
     21 C1'         1.3733    1.5427    0.6747 C.3       1 ATP         0.4207
     22 N9          0.4520    2.5240    0.1767 N.pl3     1 ATP        -0.4600
     23 C8         -0.7463    2.2774   -0.7501 C.ar      1 ATP         0.1694
     24 N7         -1.3714    3.4419   -0.9948 N.2       1 ATP        -0.2540
     25 C5         -0.6104    4.3223   -0.2723 C.ar      1 ATP        -0.1403
     26 C6         -0.9062    5.7820   -0.2194 C.ar      1 ATP         0.4951
     27 N6         -1.9385    6.2713   -0.8881 N.pl3     1 ATP        -0.8019
     28 N1         -0.0613    6.4906    0.5336 N.pl3     1 ATP        -0.6941
     29 C2          1.0416    5.8662    1.2291 C.ar      1 ATP         0.6475
     30 N3          1.3146    4.5989    1.1954 N.ar      1 ATP        -0.5183
     31 C4          0.4541    3.8697    0.4273 C.ar      1 ATP         0.3000
     32 HOG2        7.1956   -4.9555   -5.2231 H         1 ATP         0.4939
     33 HOG3        7.9611   -2.5205   -1.7136 H         1 ATP         0.4939
     34 HOB2        7.3448    0.0011   -4.4435 H         1 ATP         0.5072
     35 HOA2        0.7391   -1.9204   -4.4587 H         1 ATP         0.5058
     36 H5'1        2.8429    0.3147   -2.6388 H         1 ATP         0.0543
     37 H5'2        1.2125   -0.0898   -2.0417 H         1 ATP         0.0543
     38 H4'         3.8046   -0.1390   -0.4012 H         1 ATP         0.1294
     39 H3'         1.6787   -1.7628    0.2719 H         1 ATP         0.0900
     40 HO3'        2.2231   -1.2979    2.3952 H         1 ATP         0.4260
     41 H2'         0.0002   -0.0084   -0.0014 H         1 ATP         0.0698
     42 HO2'       -0.6132    0.5577    2.1063 H         1 ATP         0.4288
     43 H1'         1.7718    1.9211    1.6015 H         1 ATP         0.1374
     44 H8         -1.1244    1.3534   -1.1987 H         1 ATP         0.2460
     45 HN61       -2.5259    5.6573   -1.4336 H         1 ATP         0.4865
     46 HN62       -2.1416    7.2600   -0.8539 H         1 ATP         0.4865
     47 H2          1.6509    6.5764    1.8088 H         1 ATP         0.1083
     48 H48        -0.2190    7.4917    0.6033 H         1 ATP         0.4893
@<TRIPOS>BOND
     1    1    2 2
     2    1    3 1
     3    1    4 1
     4    1    8 1
     5    3   32 1
     6    4   33 1
     7    5    6 2
     8    5    7 1
     9    5    8 1
    10    5   12 1
    11    7   34 1
    12    9   10 2
    13    9   11 1
    14    9   12 1
    15    9   13 1
    16   11   35 1
    17   13   14 1
    18   14   15 1
    19   14   36 1
    20   14   37 1
    21   15   16 1
    22   15   17 1
    23   15   38 1
    24   16   21 1
    25   17   18 1
    26   17   19 1
    27   17   39 1
    28   18   40 1
    29   19   20 1
    30   19   21 1
    31   19   41 1
    32   20   42 1
    33   21   22 1
    34   21   43 1
    35   22   23 ar
    36   22   31 ar
    37   23   24 ar
    38   23   44 1
    39   24   25 ar
    40   25   26 ar
    41   25   31 ar
    42   26   27 1
    43   26   28 ar
    44   27   45 1
    45   27   46 1
    46   28   29 ar
    47   28   48 1
    48   29   30 ar
    49   29   47 1
    50   30   31 ar
@<TRIPOS>SUBSTRUCTURE
     1 ATP         1 GROUP 0 A     ****
@<TRIPOS>MOLECULE
[[5-(6-amino-1,8-dihydropurine-6,8-diylium-7-id-9-yl)-3,4-dihydroxy-tetrahydrofuran-2-yl]methoxy-hydroxy-phosphoryl] phosphono hydrogen phosphate
   48    50     1     0     0
SMALL
USER_CHARGES

@<TRIPOS>ATOM
      1 PG         -1.8946   -1.2431   -3.9298 P.3       1 ATP         1.7931
      2 O1G        -1.1671   -1.2559   -2.6177 O.2       1 ATP        -0.8245
      3 O2G        -2.0029   -2.6737   -4.6737 O.3       1 ATP        -0.7758
      4 O3G        -3.4284   -0.7379   -3.8598 O.3       1 ATP        -0.7758
      5 PB          0.2148   -0.2699   -5.7483 P.3       1 ATP         1.9416
      6 O1B         0.5694   -1.5214   -6.4958 O.2       1 ATP        -0.8420
      7 O2B         0.2069    1.0759   -6.6437 O.3       1 ATP        -0.7993
      8 O3B        -1.2431   -0.2800   -5.0522 O.3       1 ATP        -0.7763
      9 PA          2.7556    0.3903   -4.4163 P.3       1 ATP         1.7989
     10 O1A         3.2126    1.5648   -5.2318 O.2       1 ATP        -0.8148
     11 O2A         3.4313   -1.0181   -4.8372 O.3       1 ATP        -0.8139
     12 O3A         1.1701    0.0910   -4.4978 O.3       1 ATP        -0.8202
     13 O5'         3.0192    0.5132   -2.8246 O.3       1 ATP        -0.5616
     14 C5'         2.2816   -0.2918   -1.9206 C.3       1 ATP         0.1639
     15 C4'         2.7248    0.0226   -0.4980 C.3       1 ATP         0.1354
     16 O4'         2.4697    1.4219   -0.2462 O.3       1 ATP        -0.4135
     17 C3'         1.9404   -0.7419    0.5596 C.3       1 ATP         0.0995
     18 O3'         2.7418   -0.8086    1.7389 O.3       1 ATP        -0.5734
     19 C2'         0.7477    0.1630    0.7858 C.3       1 ATP         0.0652
     20 O2'         0.1373   -0.0577    2.0407 O.3       1 ATP        -0.5780
     21 C1'         1.3733    1.5427    0.6747 C.3       1 ATP         0.4207
     22 N9          0.4520    2.5240    0.1767 N.pl3     1 ATP        -0.4600
     23 C8         -0.4598    3.4379    1.0068 C.ar      1 ATP         0.1694
     24 N7         -1.1770    4.2228    0.1845 N.2       1 ATP        -0.2540
     25 C5         -0.7330    3.8149   -1.0455 C.ar      1 ATP        -0.1403
     26 C6         -1.2413    4.4029   -2.3169 C.ar      1 ATP         0.4951
     27 N6         -2.1578    5.3575   -2.2832 N.pl3     1 ATP        -0.8019
     28 N1         -0.6977    3.8860   -3.4216 N.pl3     1 ATP        -0.6941
     29 C2          0.3002    2.8419   -3.3591 C.ar      1 ATP         0.6475
     30 N3          0.7548    2.3183   -2.2631 N.ar      1 ATP        -0.5183
     31 C4          0.2027    2.8430   -1.1309 C.ar      1 ATP         0.3000
     32 HOG2       -1.1786   -3.1426   -4.9241 H         1 ATP         0.4939
     33 HOG3       -4.0650   -1.2292   -3.2981 H         1 ATP         0.4939
     34 HOB2        1.0335    1.3511   -7.0943 H         1 ATP         0.5072
     35 HOA2        4.4062   -1.1108   -4.7840 H         1 ATP         0.5058
     36 H5'1        1.2150   -0.0785   -2.0448 H         1 ATP         0.0543
     37 H5'2        2.4641   -1.3458   -2.1540 H         1 ATP         0.0543
     38 H4'         3.8046   -0.1390   -0.4012 H         1 ATP         0.1294
     39 H3'         1.6787   -1.7628    0.2719 H         1 ATP         0.0900
     40 HO3'        2.2231   -1.2979    2.3952 H         1 ATP         0.4260
     41 H2'         0.0002   -0.0084   -0.0014 H         1 ATP         0.0698
     42 HO2'       -0.1554   -0.9852    2.0577 H         1 ATP         0.4288
     43 H1'         1.7718    1.9211    1.6015 H         1 ATP         0.1374
     44 H8         -0.5892    3.5248    2.0902 H         1 ATP         0.2460
     45 HN61       -2.5128    5.6880   -1.3974 H         1 ATP         0.4865
     46 HN62       -2.5040    5.7581   -3.1431 H         1 ATP         0.4865
     47 H2          0.6550    2.5166   -4.3490 H         1 ATP         0.1083
     48 H48        -1.0101    4.2527   -4.3160 H         1 ATP         0.4893
@<TRIPOS>BOND
     1    1    2 2
     2    1    3 1
     3    1    4 1
     4    1    8 1
     5    3   32 1
     6    4   33 1
     7    5    6 2
     8    5    7 1
     9    5    8 1
    10    5   12 1
    11    7   34 1
    12    9   10 2
    13    9   11 1
    14    9   12 1
    15    9   13 1
    16   11   35 1
    17   13   14 1
    18   14   15 1
    19   14   36 1
    20   14   37 1
    21   15   16 1
    22   15   17 1
    23   15   38 1
    24   16   21 1
    25   17   18 1
    26   17   19 1
    27   17   39 1
    28   18   40 1
    29   19   20 1
    30   19   21 1
    31   19   41 1
    32   20   42 1
    33   21   22 1
    34   21   43 1
    35   22   23 ar
    36   22   31 ar
    37   23   24 ar
    38   23   44 1
    39   24   25 ar
    40   25   26 ar
    41   25   31 ar
    42   26   27 1
    43   26   28 ar
    44   27   45 1
    45   27   46 1
    46   28   29 ar
    47   28   48 1
    48   29   30 ar
    49   29   47 1
    50   30   31 ar
@<TRIPOS>SUBSTRUCTURE
     1 ATP         1 GROUP 0 A     ****
@<TRIPOS>MOLECULE
[[5-(6-amino-1,8-dihydropurine-6,8-diylium-7-id-9-yl)-3,4-dihydroxy-tetrahydrofuran-2-yl]methoxy-hydroxy-phosphoryl] phosphono hydrogen phosphate
   48    50     1     0     0
SMALL
USER_CHARGES

@<TRIPOS>ATOM
      1 PG          4.7329    0.4311   -7.9135 P.3       1 ATP         1.7931
      2 O1G         3.7632    1.0466   -8.8789 O.2       1 ATP        -0.8245
      3 O2G         5.5507   -0.8448   -8.4746 O.3       1 ATP        -0.7758
      4 O3G         5.8959    1.4206   -7.3835 O.3       1 ATP        -0.7758
      5 PB          2.9332   -1.2340   -6.2727 P.3       1 ATP         1.9416
      6 O1B         1.6029   -0.9572   -6.9088 O.2       1 ATP        -0.8420
      7 O2B         3.6323   -2.6160   -6.7360 O.3       1 ATP        -0.7993
      8 O3B         4.0670   -0.1161   -6.5464 O.3       1 ATP        -0.7763
      9 PA          2.1468   -2.2811   -3.6362 P.3       1 ATP         1.7989
     10 O1A         2.4480   -3.7421   -3.8041 O.2       1 ATP        -0.8148
     11 O2A         0.5929   -1.8899   -3.8585 O.3       1 ATP        -0.8139
     12 O3A         2.9337   -1.3101   -4.6600 O.3       1 ATP        -0.8202
     13 O5'         2.5234   -1.6624   -2.1893 O.3       1 ATP        -0.5616
     14 C5'         2.2816   -0.2918   -1.9206 C.3       1 ATP         0.1639
     15 C4'         2.7248    0.0226   -0.4980 C.3       1 ATP         0.1354
     16 O4'         2.4697    1.4219   -0.2462 O.3       1 ATP        -0.4135
     17 C3'         1.9404   -0.7419    0.5596 C.3       1 ATP         0.0995
     18 O3'         2.7418   -0.8086    1.7389 O.3       1 ATP        -0.5734
     19 C2'         0.7477    0.1630    0.7858 C.3       1 ATP         0.0652
     20 O2'         0.1373   -0.0577    2.0407 O.3       1 ATP        -0.5780
     21 C1'         1.3733    1.5427    0.6747 C.3       1 ATP         0.4207
     22 N9          0.4520    2.5240    0.1767 N.pl3     1 ATP        -0.4600
     23 C8         -0.4598    3.4379    1.0068 C.ar      1 ATP         0.1694
     24 N7         -1.1770    4.2228    0.1845 N.2       1 ATP        -0.2540
     25 C5         -0.7330    3.8149   -1.0455 C.ar      1 ATP        -0.1403
     26 C6         -1.2413    4.4029   -2.3169 C.ar      1 ATP         0.4951
     27 N6         -2.1578    5.3575   -2.2832 N.pl3     1 ATP        -0.8019
     28 N1         -0.6977    3.8860   -3.4216 N.pl3     1 ATP        -0.6941
     29 C2          0.3002    2.8419   -3.3591 C.ar      1 ATP         0.6475
     30 N3          0.7548    2.3183   -2.2631 N.ar      1 ATP        -0.5183
     31 C4          0.2027    2.8430   -1.1309 C.ar      1 ATP         0.3000
     32 HOG2        5.0524   -1.6376   -8.7666 H         1 ATP         0.4939
     33 HOG3        6.5100    1.8229   -8.0340 H         1 ATP         0.4939
     34 HOB2        3.1639   -3.4624   -6.5739 H         1 ATP         0.5072
     35 HOA2       -0.0860   -2.2971   -3.2795 H         1 ATP         0.5058
     36 H5'1        2.8429    0.3147   -2.6388 H         1 ATP         0.0543
     37 H5'2        1.2125   -0.0898   -2.0417 H         1 ATP         0.0543
     38 H4'         3.8046   -0.1390   -0.4012 H         1 ATP         0.1294
     39 H3'         1.6787   -1.7628    0.2719 H         1 ATP         0.0900
     40 HO3'        2.2231   -1.2979    2.3952 H         1 ATP         0.4260
     41 H2'         0.0002   -0.0084   -0.0014 H         1 ATP         0.0698
     42 HO2'       -0.6132    0.5577    2.1063 H         1 ATP         0.4288
     43 H1'         1.7718    1.9211    1.6015 H         1 ATP         0.1374
     44 H8         -0.5892    3.5248    2.0902 H         1 ATP         0.2460
     45 HN61       -2.5128    5.6880   -1.3974 H         1 ATP         0.4865
     46 HN62       -2.5040    5.7581   -3.1431 H         1 ATP         0.4865
     47 H2          0.6550    2.5166   -4.3490 H         1 ATP         0.1083
     48 H48        -1.0101    4.2527   -4.3160 H         1 ATP         0.4893
@<TRIPOS>BOND
     1    1    2 2
     2    1    3 1
     3    1    4 1
     4    1    8 1
     5    3   32 1
     6    4   33 1
     7    5    6 2
     8    5    7 1
     9    5    8 1
    10    5   12 1
    11    7   34 1
    12    9   10 2
    13    9   11 1
    14    9   12 1
    15    9   13 1
    16   11   35 1
    17   13   14 1
    18   14   15 1
    19   14   36 1
    20   14   37 1
    21   15   16 1
    22   15   17 1
    23   15   38 1
    24   16   21 1
    25   17   18 1
    26   17   19 1
    27   17   39 1
    28   18   40 1
    29   19   20 1
    30   19   21 1
    31   19   41 1
    32   20   42 1
    33   21   22 1
    34   21   43 1
    35   22   23 ar
    36   22   31 ar
    37   23   24 ar
    38   23   44 1
    39   24   25 ar
    40   25   26 ar
    41   25   31 ar
    42   26   27 1
    43   26   28 ar
    44   27   45 1
    45   27   46 1
    46   28   29 ar
    47   28   48 1
    48   29   30 ar
    49   29   47 1
    50   30   31 ar
@<TRIPOS>SUBSTRUCTURE
     1 ATP         1 GROUP 0 A     ****
@<TRIPOS>MOLECULE
[[5-(6-amino-1,8-dihydropurine-6,8-diylium-7-id-9-yl)-3,4-dihydroxy-tetrahydrofuran-2-yl]methoxy-hydroxy-phosphoryl] phosphono hydrogen phosphate
   48    50     1     0     0
SMALL
USER_CHARGES

@<TRIPOS>ATOM
      1 PG          3.9749    0.2178   -7.5019 P.3       1 ATP         1.7931
      2 O1G         4.6576   -0.7306   -8.4429 O.2       1 ATP        -0.8245
      3 O2G         4.1189    1.7838   -7.8740 O.3       1 ATP        -0.7758
      4 O3G         2.3785    0.0105   -7.3562 O.3       1 ATP        -0.7758
      5 PB          4.5115   -1.0664   -4.9006 P.3       1 ATP         1.9416
      6 O1B         5.2984   -2.2739   -5.3171 O.2       1 ATP        -0.8420
      7 O2B         5.0179   -0.3643   -3.5354 O.3       1 ATP        -0.7993
      8 O3B         4.4946    0.1414   -5.9736 O.3       1 ATP        -0.7763
      9 PA          2.1468   -2.2811   -3.6362 P.3       1 ATP         1.7989
     10 O1A         2.4480   -3.7421   -3.8041 O.2       1 ATP        -0.8148
     11 O2A         0.5929   -1.8899   -3.8585 O.3       1 ATP        -0.8139
     12 O3A         2.9337   -1.3101   -4.6600 O.3       1 ATP        -0.8202
     13 O5'         2.5234   -1.6624   -2.1893 O.3       1 ATP        -0.5616
     14 C5'         2.2816   -0.2918   -1.9206 C.3       1 ATP         0.1639
     15 C4'         2.7248    0.0226   -0.4980 C.3       1 ATP         0.1354
     16 O4'         2.4697    1.4219   -0.2462 O.3       1 ATP        -0.4135
     17 C3'         1.9404   -0.7419    0.5596 C.3       1 ATP         0.0995
     18 O3'         2.7418   -0.8086    1.7389 O.3       1 ATP        -0.5734
     19 C2'         0.7477    0.1630    0.7858 C.3       1 ATP         0.0652
     20 O2'         0.1373   -0.0577    2.0407 O.3       1 ATP        -0.5780
     21 C1'         1.3733    1.5427    0.6747 C.3       1 ATP         0.4207
     22 N9          0.4520    2.5240    0.1767 N.pl3     1 ATP        -0.4600
     23 C8         -0.7463    2.2774   -0.7501 C.ar      1 ATP         0.1694
     24 N7         -1.3714    3.4419   -0.9948 N.2       1 ATP        -0.2540
     25 C5         -0.6104    4.3223   -0.2723 C.ar      1 ATP        -0.1403
     26 C6         -0.9062    5.7820   -0.2194 C.ar      1 ATP         0.4951
     27 N6         -1.9385    6.2713   -0.8881 N.pl3     1 ATP        -0.8019
     28 N1         -0.0613    6.4906    0.5336 N.pl3     1 ATP        -0.6941
     29 C2          1.0416    5.8662    1.2291 C.ar      1 ATP         0.6475
     30 N3          1.3146    4.5989    1.1954 N.ar      1 ATP        -0.5183
     31 C4          0.4541    3.8697    0.4273 C.ar      1 ATP         0.3000
     32 HOG2        5.0146    2.1810   -7.9189 H         1 ATP         0.4939
     33 HOG3        1.8135    0.0991   -8.1531 H         1 ATP         0.4939
     34 HOB2        5.0189   -0.8866   -2.7051 H         1 ATP         0.5072
     35 HOA2       -0.0860   -2.2971   -3.2795 H         1 ATP         0.5058
     36 H5'1        2.8429    0.3147   -2.6388 H         1 ATP         0.0543
     37 H5'2        1.2125   -0.0898   -2.0417 H         1 ATP         0.0543
     38 H4'         3.8046   -0.1390   -0.4012 H         1 ATP         0.1294
     39 H3'         1.6787   -1.7628    0.2719 H         1 ATP         0.0900
     40 HO3'        2.2231   -1.2979    2.3952 H         1 ATP         0.4260
     41 H2'         0.0002   -0.0084   -0.0014 H         1 ATP         0.0698
     42 HO2'       -0.6132    0.5577    2.1063 H         1 ATP         0.4288
     43 H1'         1.7718    1.9211    1.6015 H         1 ATP         0.1374
     44 H8         -1.1244    1.3534   -1.1987 H         1 ATP         0.2460
     45 HN61       -2.1414    7.2600   -0.8544 H         1 ATP         0.4865
     46 HN62       -2.5256    5.6572   -1.4340 H         1 ATP         0.4865
     47 H2          1.6509    6.5764    1.8088 H         1 ATP         0.1083
     48 H48        -0.2190    7.4917    0.6033 H         1 ATP         0.4893
@<TRIPOS>BOND
     1    1    2 2
     2    1    3 1
     3    1    4 1
     4    1    8 1
     5    3   32 1
     6    4   33 1
     7    5    6 2
     8    5    7 1
     9    5    8 1
    10    5   12 1
    11    7   34 1
    12    9   10 2
    13    9   11 1
    14    9   12 1
    15    9   13 1
    16   11   35 1
    17   13   14 1
    18   14   15 1
    19   14   36 1
    20   14   37 1
    21   15   16 1
    22   15   17 1
    23   15   38 1
    24   16   21 1
    25   17   18 1
    26   17   19 1
    27   17   39 1
    28   18   40 1
    29   19   20 1
    30   19   21 1
    31   19   41 1
    32   20   42 1
    33   21   22 1
    34   21   43 1
    35   22   23 ar
    36   22   31 ar
    37   23   24 ar
    38   23   44 1
    39   24   25 ar
    40   25   26 ar
    41   25   31 ar
    42   26   27 1
    43   26   28 ar
    44   27   45 1
    45   27   46 1
    46   28   29 ar
    47   28   48 1
    48   29   30 ar
    49   29   47 1
    50   30   31 ar
@<TRIPOS>SUBSTRUCTURE
     1 ATP         1 GROUP 0 A     ****
@<TRIPOS>MOLECULE
[[5-(6-amino-1,8-dihydropurine-6,8-diylium-7-id-9-yl)-3,4-dihydroxy-tetrahydrofuran-2-yl]methoxy-hydroxy-phosphoryl] phosphono hydrogen phosphate
   48    50     1     0     0
SMALL
USER_CHARGES

@<TRIPOS>ATOM
      1 PG          6.6749   -1.1766   -6.5389 P.3       1 ATP         1.7931
      2 O1G         7.8102   -0.7935   -5.6359 O.2       1 ATP        -0.8245
      3 O2G         6.4566   -0.2161   -7.8200 O.3       1 ATP        -0.7758
      4 O3G         6.7823   -2.6527   -7.1887 O.3       1 ATP        -0.7758
      5 PB          4.3737   -0.0392   -5.0847 P.3       1 ATP         1.9416
      6 O1B         5.0448    0.5754   -3.8919 O.2       1 ATP        -0.8420
      7 O2B         4.0145    0.9988   -6.2707 O.3       1 ATP        -0.7993
      8 O3B         5.2243   -1.1951   -5.8267 O.3       1 ATP        -0.7763
      9 PA          2.6333   -2.0590   -3.8369 P.3       1 ATP         1.7989
     10 O1A         3.3648   -3.3236   -4.1822 O.2       1 ATP        -0.8148
     11 O2A         1.0223   -2.1729   -3.9297 O.3       1 ATP        -0.8139
     12 O3A         2.9810   -0.7998   -4.7875 O.3       1 ATP        -0.8202
     13 O5'         2.9196   -1.4816   -2.3527 O.3       1 ATP        -0.5616
     14 C5'         2.2816   -0.2918   -1.9206 C.3       1 ATP         0.1639
     15 C4'         2.7248    0.0226   -0.4980 C.3       1 ATP         0.1354
     16 O4'         2.4697    1.4219   -0.2462 O.3       1 ATP        -0.4135
     17 C3'         1.9404   -0.7419    0.5596 C.3       1 ATP         0.0995
     18 O3'         2.7418   -0.8086    1.7389 O.3       1 ATP        -0.5734
     19 C2'         0.7477    0.1630    0.7858 C.3       1 ATP         0.0652
     20 O2'         0.1373   -0.0577    2.0407 O.3       1 ATP        -0.5780
     21 C1'         1.3733    1.5427    0.6747 C.3       1 ATP         0.4207
     22 N9          0.4520    2.5240    0.1767 N.pl3     1 ATP        -0.4600
     23 C8         -0.4598    3.4379    1.0068 C.ar      1 ATP         0.1694
     24 N7         -1.1770    4.2228    0.1845 N.2       1 ATP        -0.2540
     25 C5         -0.7330    3.8149   -1.0455 C.ar      1 ATP        -0.1403
     26 C6         -1.2413    4.4029   -2.3169 C.ar      1 ATP         0.4951
     27 N6         -2.1578    5.3575   -2.2832 N.pl3     1 ATP        -0.8019
     28 N1         -0.6977    3.8860   -3.4216 N.pl3     1 ATP        -0.6941
     29 C2          0.3002    2.8419   -3.3591 C.ar      1 ATP         0.6475
     30 N3          0.7548    2.3183   -2.2631 N.ar      1 ATP        -0.5183
     31 C4          0.2027    2.8430   -1.1309 C.ar      1 ATP         0.3000
     32 HOG2        6.2637    0.7344   -7.6738 H         1 ATP         0.4939
     33 HOG3        7.5529   -2.8666   -7.7566 H         1 ATP         0.4939
     34 HOB2        3.4121    1.7488   -6.0788 H         1 ATP         0.5072
     35 HOA2        0.5598   -2.8269   -3.3635 H         1 ATP         0.5058
     36 H5'1        2.5578    0.5242   -2.5963 H         1 ATP         0.0543
     37 H5'2        1.1971   -0.4363   -1.9604 H         1 ATP         0.0543
     38 H4'         3.8046   -0.1390   -0.4012 H         1 ATP         0.1294
     39 H3'         1.6787   -1.7628    0.2719 H         1 ATP         0.0900
     40 HO3'        2.2231   -1.2979    2.3952 H         1 ATP         0.4260
     41 H2'         0.0002   -0.0084   -0.0014 H         1 ATP         0.0698
     42 HO2'       -0.6132    0.5577    2.1063 H         1 ATP         0.4288
     43 H1'         1.7718    1.9211    1.6015 H         1 ATP         0.1374
     44 H8         -0.5892    3.5248    2.0902 H         1 ATP         0.2460
     45 HN61       -2.5044    5.7578   -3.1430 H         1 ATP         0.4865
     46 HN62       -2.5131    5.6876   -1.3973 H         1 ATP         0.4865
     47 H2          0.6550    2.5166   -4.3490 H         1 ATP         0.1083
     48 H48        -1.0101    4.2527   -4.3160 H         1 ATP         0.4893
@<TRIPOS>BOND
     1    1    2 2
     2    1    3 1
     3    1    4 1
     4    1    8 1
     5    3   32 1
     6    4   33 1
     7    5    6 2
     8    5    7 1
     9    5    8 1
    10    5   12 1
    11    7   34 1
    12    9   10 2
    13    9   11 1
    14    9   12 1
    15    9   13 1
    16   11   35 1
    17   13   14 1
    18   14   15 1
    19   14   36 1
    20   14   37 1
    21   15   16 1
    22   15   17 1
    23   15   38 1
    24   16   21 1
    25   17   18 1
    26   17   19 1
    27   17   39 1
    28   18   40 1
    29   19   20 1
    30   19   21 1
    31   19   41 1
    32   20   42 1
    33   21   22 1
    34   21   43 1
    35   22   23 ar
    36   22   31 ar
    37   23   24 ar
    38   23   44 1
    39   24   25 ar
    40   25   26 ar
    41   25   31 ar
    42   26   27 1
    43   26   28 ar
    44   27   45 1
    45   27   46 1
    46   28   29 ar
    47   28   48 1
    48   29   30 ar
    49   29   47 1
    50   30   31 ar
@<TRIPOS>SUBSTRUCTURE
     1 ATP         1 GROUP 0 A     ****
@<TRIPOS>MOLECULE
[[5-(6-amino-1,8-dihydropurine-6,8-diylium-7-id-9-yl)-3,4-dihydroxy-tetrahydrofuran-2-yl]methoxy-hydroxy-phosphoryl] phosphono hydrogen phosphate
   48    50     1     0     0
SMALL
USER_CHARGES

@<TRIPOS>ATOM
      1 PG          6.1056    1.4907   -4.5719 P.3       1 ATP         1.7931
      2 O1G         5.5228    2.4689   -5.5490 O.2       1 ATP        -0.8245
      3 O2G         7.6470    1.7556   -4.1652 O.3       1 ATP        -0.7758
      4 O3G         5.3483    1.4103   -3.1462 O.3       1 ATP        -0.7758
      5 PB          4.9029   -1.0376   -5.5018 P.3       1 ATP         1.9416
      6 O1B         4.0761   -0.5691   -6.6628 O.2       1 ATP        -0.8420
      7 O2B         5.6367   -2.4611   -5.7222 O.3       1 ATP        -0.7993
      8 O3B         6.1040   -0.0453   -5.0742 O.3       1 ATP        -0.7763
      9 PA          2.8567   -2.1438   -3.6977 P.3       1 ATP         1.7989
     10 O1A         3.0944   -3.6170   -3.8601 O.2       1 ATP        -0.8148
     11 O2A         1.6417   -1.5609   -4.5928 O.3       1 ATP        -0.8139
     12 O3A         4.1111   -1.2111   -4.1056 O.3       1 ATP        -0.8202
     13 O5'         2.5234   -1.6624   -2.1893 O.3       1 ATP        -0.5616
     14 C5'         2.2816   -0.2918   -1.9206 C.3       1 ATP         0.1639
     15 C4'         2.7248    0.0226   -0.4980 C.3       1 ATP         0.1354
     16 O4'         2.4697    1.4219   -0.2462 O.3       1 ATP        -0.4135
     17 C3'         1.9404   -0.7419    0.5596 C.3       1 ATP         0.0995
     18 O3'         2.7418   -0.8086    1.7389 O.3       1 ATP        -0.5734
     19 C2'         0.7477    0.1630    0.7858 C.3       1 ATP         0.0652
     20 O2'         0.1373   -0.0577    2.0407 O.3       1 ATP        -0.5780
     21 C1'         1.3733    1.5427    0.6747 C.3       1 ATP         0.4207
     22 N9          0.4520    2.5240    0.1767 N.pl3     1 ATP        -0.4600
     23 C8         -0.4598    3.4379    1.0068 C.ar      1 ATP         0.1694
     24 N7         -1.1770    4.2228    0.1845 N.2       1 ATP        -0.2540
     25 C5         -0.7330    3.8149   -1.0455 C.ar      1 ATP        -0.1403
     26 C6         -1.2413    4.4029   -2.3169 C.ar      1 ATP         0.4951
     27 N6         -2.1578    5.3575   -2.2832 N.pl3     1 ATP        -0.8019
     28 N1         -0.6977    3.8860   -3.4216 N.pl3     1 ATP        -0.6941
     29 C2          0.3002    2.8419   -3.3591 C.ar      1 ATP         0.6475
     30 N3          0.7548    2.3183   -2.2631 N.ar      1 ATP        -0.5183
     31 C4          0.2027    2.8430   -1.1309 C.ar      1 ATP         0.3000
     32 HOG2        8.3320    1.7458   -4.8671 H         1 ATP         0.4939
     33 HOG3        5.2929    2.2175   -2.5918 H         1 ATP         0.4939
     34 HOB2        5.0887   -3.2553   -5.8984 H         1 ATP         0.5072
     35 HOA2        0.7391   -1.9204   -4.4587 H         1 ATP         0.5058
     36 H5'1        2.8429    0.3147   -2.6388 H         1 ATP         0.0543
     37 H5'2        1.2125   -0.0898   -2.0417 H         1 ATP         0.0543
     38 H4'         3.8046   -0.1390   -0.4012 H         1 ATP         0.1294
     39 H3'         1.6787   -1.7628    0.2719 H         1 ATP         0.0900
     40 HO3'        2.2231   -1.2979    2.3952 H         1 ATP         0.4260
     41 H2'         0.0002   -0.0084   -0.0014 H         1 ATP         0.0698
     42 HO2'       -0.6132    0.5577    2.1063 H         1 ATP         0.4288
     43 H1'         1.7718    1.9211    1.6015 H         1 ATP         0.1374
     44 H8         -0.5892    3.5248    2.0902 H         1 ATP         0.2460
     45 HN61       -2.5044    5.7578   -3.1430 H         1 ATP         0.4865
     46 HN62       -2.5131    5.6876   -1.3973 H         1 ATP         0.4865
     47 H2          0.6550    2.5166   -4.3490 H         1 ATP         0.1083
     48 H48        -1.0101    4.2527   -4.3160 H         1 ATP         0.4893
@<TRIPOS>BOND
     1    1    2 2
     2    1    3 1
     3    1    4 1
     4    1    8 1
     5    3   32 1
     6    4   33 1
     7    5    6 2
     8    5    7 1
     9    5    8 1
    10    5   12 1
    11    7   34 1
    12    9   10 2
    13    9   11 1
    14    9   12 1
    15    9   13 1
    16   11   35 1
    17   13   14 1
    18   14   15 1
    19   14   36 1
    20   14   37 1
    21   15   16 1
    22   15   17 1
    23   15   38 1
    24   16   21 1
    25   17   18 1
    26   17   19 1
    27   17   39 1
    28   18   40 1
    29   19   20 1
    30   19   21 1
    31   19   41 1
    32   20   42 1
    33   21   22 1
    34   21   43 1
    35   22   23 ar
    36   22   31 ar
    37   23   24 ar
    38   23   44 1
    39   24   25 ar
    40   25   26 ar
    41   25   31 ar
    42   26   27 1
    43   26   28 ar
    44   27   45 1
    45   27   46 1
    46   28   29 ar
    47   28   48 1
    48   29   30 ar
    49   29   47 1
    50   30   31 ar
@<TRIPOS>SUBSTRUCTURE
     1 ATP         1 GROUP 0 A     ****
@<TRIPOS>MOLECULE
[[5-(6-amino-1,8-dihydropurine-6,8-diylium-7-id-9-yl)-3,4-dihydroxy-tetrahydrofuran-2-yl]methoxy-hydroxy-phosphoryl] phosphono hydrogen phosphate
   48    50     1     0     0
SMALL
USER_CHARGES

@<TRIPOS>ATOM
      1 PG          6.6749   -1.1766   -6.5389 P.3       1 ATP         1.7931
      2 O1G         6.7943   -0.2223   -7.6904 O.2       1 ATP        -0.8245
      3 O2G         6.9412   -2.7296   -6.8981 O.3       1 ATP        -0.7758
      4 O3G         7.6835   -0.8966   -5.3072 O.3       1 ATP        -0.7758
      5 PB          4.3737   -0.0392   -5.0847 P.3       1 ATP         1.9416
      6 O1B         5.0448    0.5754   -3.8919 O.2       1 ATP        -0.8420
      7 O2B         4.0145    0.9988   -6.2707 O.3       1 ATP        -0.7993
      8 O3B         5.2243   -1.1951   -5.8267 O.3       1 ATP        -0.7763
      9 PA          2.6333   -2.0590   -3.8369 P.3       1 ATP         1.7989
     10 O1A         3.3648   -3.3236   -4.1822 O.2       1 ATP        -0.8148
     11 O2A         1.0223   -2.1729   -3.9297 O.3       1 ATP        -0.8139
     12 O3A         2.9810   -0.7998   -4.7875 O.3       1 ATP        -0.8202
     13 O5'         2.9196   -1.4816   -2.3527 O.3       1 ATP        -0.5616
     14 C5'         2.2816   -0.2918   -1.9206 C.3       1 ATP         0.1639
     15 C4'         2.7248    0.0226   -0.4980 C.3       1 ATP         0.1354
     16 O4'         2.4697    1.4219   -0.2462 O.3       1 ATP        -0.4135
     17 C3'         1.9404   -0.7419    0.5596 C.3       1 ATP         0.0995
     18 O3'         2.7418   -0.8086    1.7389 O.3       1 ATP        -0.5734
     19 C2'         0.7477    0.1630    0.7858 C.3       1 ATP         0.0652
     20 O2'         0.1373   -0.0577    2.0407 O.3       1 ATP        -0.5780
     21 C1'         1.3733    1.5427    0.6747 C.3       1 ATP         0.4207
     22 N9          0.4520    2.5240    0.1767 N.pl3     1 ATP        -0.4600
     23 C8         -0.7463    2.2774   -0.7501 C.ar      1 ATP         0.1694
     24 N7         -1.3714    3.4419   -0.9948 N.2       1 ATP        -0.2540
     25 C5         -0.6104    4.3223   -0.2723 C.ar      1 ATP        -0.1403
     26 C6         -0.9062    5.7820   -0.2194 C.ar      1 ATP         0.4951
     27 N6         -1.9385    6.2713   -0.8881 N.pl3     1 ATP        -0.8019
     28 N1         -0.0613    6.4906    0.5336 N.pl3     1 ATP        -0.6941
     29 C2          1.0416    5.8662    1.2291 C.ar      1 ATP         0.6475
     30 N3          1.3146    4.5989    1.1954 N.ar      1 ATP        -0.5183
     31 C4          0.4541    3.8697    0.4273 C.ar      1 ATP         0.3000
     32 HOG2        6.3683   -3.1687   -7.5621 H         1 ATP         0.4939
     33 HOG3        8.6504   -0.9209   -5.4704 H         1 ATP         0.4939
     34 HOB2        3.4121    1.7488   -6.0788 H         1 ATP         0.5072
     35 HOA2        0.5598   -2.8269   -3.3635 H         1 ATP         0.5058
     36 H5'1        2.5578    0.5242   -2.5963 H         1 ATP         0.0543
     37 H5'2        1.1971   -0.4363   -1.9604 H         1 ATP         0.0543
     38 H4'         3.8046   -0.1390   -0.4012 H         1 ATP         0.1294
     39 H3'         1.6787   -1.7628    0.2719 H         1 ATP         0.0900
     40 HO3'        2.2231   -1.2979    2.3952 H         1 ATP         0.4260
     41 H2'         0.0002   -0.0084   -0.0014 H         1 ATP         0.0698
     42 HO2'       -0.6132    0.5577    2.1063 H         1 ATP         0.4288
     43 H1'         1.7718    1.9211    1.6015 H         1 ATP         0.1374
     44 H8         -1.1244    1.3534   -1.1987 H         1 ATP         0.2460
     45 HN61       -2.1414    7.2600   -0.8544 H         1 ATP         0.4865
     46 HN62       -2.5256    5.6572   -1.4340 H         1 ATP         0.4865
     47 H2          1.6509    6.5764    1.8088 H         1 ATP         0.1083
     48 H48        -0.2190    7.4917    0.6033 H         1 ATP         0.4893
@<TRIPOS>BOND
     1    1    2 2
     2    1    3 1
     3    1    4 1
     4    1    8 1
     5    3   32 1
     6    4   33 1
     7    5    6 2
     8    5    7 1
     9    5    8 1
    10    5   12 1
    11    7   34 1
    12    9   10 2
    13    9   11 1
    14    9   12 1
    15    9   13 1
    16   11   35 1
    17   13   14 1
    18   14   15 1
    19   14   36 1
    20   14   37 1
    21   15   16 1
    22   15   17 1
    23   15   38 1
    24   16   21 1
    25   17   18 1
    26   17   19 1
    27   17   39 1
    28   18   40 1
    29   19   20 1
    30   19   21 1
    31   19   41 1
    32   20   42 1
    33   21   22 1
    34   21   43 1
    35   22   23 ar
    36   22   31 ar
    37   23   24 ar
    38   23   44 1
    39   24   25 ar
    40   25   26 ar
    41   25   31 ar
    42   26   27 1
    43   26   28 ar
    44   27   45 1
    45   27   46 1
    46   28   29 ar
    47   28   48 1
    48   29   30 ar
    49   29   47 1
    50   30   31 ar
@<TRIPOS>SUBSTRUCTURE
     1 ATP         1 GROUP 0 A     ****
@<TRIPOS>MOLECULE
[[5-(6-amino-1,8-dihydropurine-6,8-diylium-7-id-9-yl)-3,4-dihydroxy-tetrahydrofuran-2-yl]methoxy-hydroxy-phosphoryl] phosphono hydrogen phosphate
   48    50     1     0     0
SMALL
USER_CHARGES

@<TRIPOS>ATOM
      1 PG          5.6831    1.0263   -6.6186 P.3       1 ATP         1.7931
      2 O1G         6.4978    1.7995   -5.6239 O.2       1 ATP        -0.8245
      3 O2G         4.9290    1.9177   -7.7360 O.3       1 ATP        -0.7758
      4 O3G         6.5099   -0.0531   -7.4927 O.3       1 ATP        -0.7758
      5 PB          4.5115   -1.0664   -4.9006 P.3       1 ATP         1.9416
      6 O1B         5.2984   -2.2739   -5.3171 O.2       1 ATP        -0.8420
      7 O2B         5.0179   -0.3643   -3.5354 O.3       1 ATP        -0.7993
      8 O3B         4.4946    0.1414   -5.9736 O.3       1 ATP        -0.7763
      9 PA          2.1468   -2.2811   -3.6362 P.3       1 ATP         1.7989
     10 O1A         2.4480   -3.7421   -3.8041 O.2       1 ATP        -0.8148
     11 O2A         0.5929   -1.8899   -3.8585 O.3       1 ATP        -0.8139
     12 O3A         2.9337   -1.3101   -4.6600 O.3       1 ATP        -0.8202
     13 O5'         2.5234   -1.6624   -2.1893 O.3       1 ATP        -0.5616
     14 C5'         2.2816   -0.2918   -1.9206 C.3       1 ATP         0.1639
     15 C4'         2.7248    0.0226   -0.4980 C.3       1 ATP         0.1354
     16 O4'         2.4697    1.4219   -0.2462 O.3       1 ATP        -0.4135
     17 C3'         1.9404   -0.7419    0.5596 C.3       1 ATP         0.0995
     18 O3'         2.7418   -0.8086    1.7389 O.3       1 ATP        -0.5734
     19 C2'         0.7477    0.1630    0.7858 C.3       1 ATP         0.0652
     20 O2'         0.1373   -0.0577    2.0407 O.3       1 ATP        -0.5780
     21 C1'         1.3733    1.5427    0.6747 C.3       1 ATP         0.4207
     22 N9          0.4520    2.5240    0.1767 N.pl3     1 ATP        -0.4600
     23 C8         -0.7463    2.2774   -0.7501 C.ar      1 ATP         0.1694
     24 N7         -1.3714    3.4419   -0.9948 N.2       1 ATP        -0.2540
     25 C5         -0.6104    4.3223   -0.2723 C.ar      1 ATP        -0.1403
     26 C6         -0.9062    5.7820   -0.2194 C.ar      1 ATP         0.4951
     27 N6         -1.9385    6.2713   -0.8881 N.pl3     1 ATP        -0.8019
     28 N1         -0.0613    6.4906    0.5336 N.pl3     1 ATP        -0.6941
     29 C2          1.0416    5.8662    1.2291 C.ar      1 ATP         0.6475
     30 N3          1.3146    4.5989    1.1954 N.ar      1 ATP        -0.5183
     31 C4          0.4541    3.8697    0.4273 C.ar      1 ATP         0.3000
     32 HOG2        4.2769    2.5906   -7.4464 H         1 ATP         0.4939
     33 HOG3        7.2479    0.2592   -8.0583 H         1 ATP         0.4939
     34 HOB2        5.0189   -0.8866   -2.7051 H         1 ATP         0.5072
     35 HOA2       -0.0860   -2.2971   -3.2795 H         1 ATP         0.5058
     36 H5'1        2.8429    0.3147   -2.6388 H         1 ATP         0.0543
     37 H5'2        1.2125   -0.0898   -2.0417 H         1 ATP         0.0543
     38 H4'         3.8046   -0.1390   -0.4012 H         1 ATP         0.1294
     39 H3'         1.6787   -1.7628    0.2719 H         1 ATP         0.0900
     40 HO3'        2.2231   -1.2979    2.3952 H         1 ATP         0.4260
     41 H2'         0.0002   -0.0084   -0.0014 H         1 ATP         0.0698
     42 HO2'       -0.6132    0.5577    2.1063 H         1 ATP         0.4288
     43 H1'         1.7718    1.9211    1.6015 H         1 ATP         0.1374
     44 H8         -1.1244    1.3534   -1.1987 H         1 ATP         0.2460
     45 HN61       -2.1414    7.2600   -0.8544 H         1 ATP         0.4865
     46 HN62       -2.5256    5.6572   -1.4340 H         1 ATP         0.4865
     47 H2          1.6509    6.5764    1.8088 H         1 ATP         0.1083
     48 H48        -0.2190    7.4917    0.6033 H         1 ATP         0.4893
@<TRIPOS>BOND
     1    1    2 2
     2    1    3 1
     3    1    4 1
     4    1    8 1
     5    3   32 1
     6    4   33 1
     7    5    6 2
     8    5    7 1
     9    5    8 1
    10    5   12 1
    11    7   34 1
    12    9   10 2
    13    9   11 1
    14    9   12 1
    15    9   13 1
    16   11   35 1
    17   13   14 1
    18   14   15 1
    19   14   36 1
    20   14   37 1
    21   15   16 1
    22   15   17 1
    23   15   38 1
    24   16   21 1
    25   17   18 1
    26   17   19 1
    27   17   39 1
    28   18   40 1
    29   19   20 1
    30   19   21 1
    31   19   41 1
    32   20   42 1
    33   21   22 1
    34   21   43 1
    35   22   23 ar
    36   22   31 ar
    37   23   24 ar
    38   23   44 1
    39   24   25 ar
    40   25   26 ar
    41   25   31 ar
    42   26   27 1
    43   26   28 ar
    44   27   45 1
    45   27   46 1
    46   28   29 ar
    47   28   48 1
    48   29   30 ar
    49   29   47 1
    50   30   31 ar
@<TRIPOS>SUBSTRUCTURE
     1 ATP         1 GROUP 0 A     ****
@<TRIPOS>MOLECULE
[[5-(6-amino-1,8-dihydropurine-6,8-diylium-7-id-9-yl)-3,4-dihydroxy-tetrahydrofuran-2-yl]methoxy-hydroxy-phosphoryl] phosphono hydrogen phosphate
   48    50     1     0     0
SMALL
USER_CHARGES

@<TRIPOS>ATOM
      1 PG          7.3899    0.5024   -5.8855 P.3       1 ATP         1.7931
      2 O1G         7.0620    1.2844   -7.1233 O.2       1 ATP        -0.8245
      3 O2G         8.2824   -0.8239   -6.1225 O.3       1 ATP        -0.7758
      4 O3G         8.2150    1.3151   -4.7580 O.3       1 ATP        -0.7758
      5 PB          4.9029   -1.0376   -5.5018 P.3       1 ATP         1.9416
      6 O1B         4.0761   -0.5691   -6.6628 O.2       1 ATP        -0.8420
      7 O2B         5.6367   -2.4611   -5.7222 O.3       1 ATP        -0.7993
      8 O3B         6.1040   -0.0453   -5.0742 O.3       1 ATP        -0.7763
      9 PA          2.8567   -2.1438   -3.6977 P.3       1 ATP         1.7989
     10 O1A         3.0944   -3.6170   -3.8601 O.2       1 ATP        -0.8148
     11 O2A         1.6417   -1.5609   -4.5928 O.3       1 ATP        -0.8139
     12 O3A         4.1111   -1.2111   -4.1056 O.3       1 ATP        -0.8202
     13 O5'         2.5234   -1.6624   -2.1893 O.3       1 ATP        -0.5616
     14 C5'         2.2816   -0.2918   -1.9206 C.3       1 ATP         0.1639
     15 C4'         2.7248    0.0226   -0.4980 C.3       1 ATP         0.1354
     16 O4'         2.4697    1.4219   -0.2462 O.3       1 ATP        -0.4135
     17 C3'         1.9404   -0.7419    0.5596 C.3       1 ATP         0.0995
     18 O3'         2.7418   -0.8086    1.7389 O.3       1 ATP        -0.5734
     19 C2'         0.7477    0.1630    0.7858 C.3       1 ATP         0.0652
     20 O2'         0.1373   -0.0577    2.0407 O.3       1 ATP        -0.5780
     21 C1'         1.3733    1.5427    0.6747 C.3       1 ATP         0.4207
     22 N9          0.4520    2.5240    0.1767 N.pl3     1 ATP        -0.4600
     23 C8         -0.7463    2.2774   -0.7501 C.ar      1 ATP         0.1694
     24 N7         -1.3714    3.4419   -0.9948 N.2       1 ATP        -0.2540
     25 C5         -0.6104    4.3223   -0.2723 C.ar      1 ATP        -0.1403
     26 C6         -0.9062    5.7820   -0.2194 C.ar      1 ATP         0.4951
     27 N6         -1.9385    6.2713   -0.8881 N.pl3     1 ATP        -0.8019
     28 N1         -0.0613    6.4906    0.5336 N.pl3     1 ATP        -0.6941
     29 C2          1.0416    5.8662    1.2291 C.ar      1 ATP         0.6475
     30 N3          1.3146    4.5989    1.1954 N.ar      1 ATP        -0.5183
     31 C4          0.4541    3.8697    0.4273 C.ar      1 ATP         0.3000
     32 HOG2        7.9337   -1.5338   -6.7026 H         1 ATP         0.4939
     33 HOG3        9.0957    1.6817   -4.9861 H         1 ATP         0.4939
     34 HOB2        5.0887   -3.2553   -5.8984 H         1 ATP         0.5072
     35 HOA2        1.6893   -1.6447   -5.5689 H         1 ATP         0.5058
     36 H5'1        2.8429    0.3147   -2.6388 H         1 ATP         0.0543
     37 H5'2        1.2125   -0.0898   -2.0417 H         1 ATP         0.0543
     38 H4'         3.8046   -0.1390   -0.4012 H         1 ATP         0.1294
     39 H3'         1.6787   -1.7628    0.2719 H         1 ATP         0.0900
     40 HO3'        2.2231   -1.2979    2.3952 H         1 ATP         0.4260
     41 H2'         0.0002   -0.0084   -0.0014 H         1 ATP         0.0698
     42 HO2'       -0.6132    0.5577    2.1063 H         1 ATP         0.4288
     43 H1'         1.7718    1.9211    1.6015 H         1 ATP         0.1374
     44 H8         -1.1244    1.3534   -1.1987 H         1 ATP         0.2460
     45 HN61       -2.1414    7.2600   -0.8544 H         1 ATP         0.4865
     46 HN62       -2.5256    5.6572   -1.4340 H         1 ATP         0.4865
     47 H2          1.6509    6.5764    1.8088 H         1 ATP         0.1083
     48 H48        -0.2190    7.4917    0.6033 H         1 ATP         0.4893
@<TRIPOS>BOND
     1    1    2 2
     2    1    3 1
     3    1    4 1
     4    1    8 1
     5    3   32 1
     6    4   33 1
     7    5    6 2
     8    5    7 1
     9    5    8 1
    10    5   12 1
    11    7   34 1
    12    9   10 2
    13    9   11 1
    14    9   12 1
    15    9   13 1
    16   11   35 1
    17   13   14 1
    18   14   15 1
    19   14   36 1
    20   14   37 1
    21   15   16 1
    22   15   17 1
    23   15   38 1
    24   16   21 1
    25   17   18 1
    26   17   19 1
    27   17   39 1
    28   18   40 1
    29   19   20 1
    30   19   21 1
    31   19   41 1
    32   20   42 1
    33   21   22 1
    34   21   43 1
    35   22   23 ar
    36   22   31 ar
    37   23   24 ar
    38   23   44 1
    39   24   25 ar
    40   25   26 ar
    41   25   31 ar
    42   26   27 1
    43   26   28 ar
    44   27   45 1
    45   27   46 1
    46   28   29 ar
    47   28   48 1
    48   29   30 ar
    49   29   47 1
    50   30   31 ar
@<TRIPOS>SUBSTRUCTURE
     1 ATP         1 GROUP 0 A     ****
@<TRIPOS>MOLECULE
[[5-(6-amino-1,8-dihydropurine-6,8-diylium-7-id-9-yl)-3,4-dihydroxy-tetrahydrofuran-2-yl]methoxy-hydroxy-phosphoryl] phosphono hydrogen phosphate
   48    50     1     0     0
SMALL
USER_CHARGES

@<TRIPOS>ATOM
      1 PG          3.9749    0.2178   -7.5019 P.3       1 ATP         1.7931
      2 O1G         2.5165   -0.0850   -7.6825 O.2       1 ATP        -0.8245
      3 O2G         4.9871   -0.7600   -8.2963 O.3       1 ATP        -0.7758
      4 O3G         4.4328    1.6954   -7.9706 O.3       1 ATP        -0.7758
      5 PB          4.5115   -1.0664   -4.9006 P.3       1 ATP         1.9416
      6 O1B         5.2984   -2.2739   -5.3171 O.2       1 ATP        -0.8420
      7 O2B         5.0179   -0.3643   -3.5354 O.3       1 ATP        -0.7993
      8 O3B         4.4946    0.1414   -5.9736 O.3       1 ATP        -0.7763
      9 PA          2.1468   -2.2811   -3.6362 P.3       1 ATP         1.7989
     10 O1A         2.4480   -3.7421   -3.8041 O.2       1 ATP        -0.8148
     11 O2A         0.5929   -1.8899   -3.8585 O.3       1 ATP        -0.8139
     12 O3A         2.9337   -1.3101   -4.6600 O.3       1 ATP        -0.8202
     13 O5'         2.5234   -1.6624   -2.1893 O.3       1 ATP        -0.5616
     14 C5'         2.2816   -0.2918   -1.9206 C.3       1 ATP         0.1639
     15 C4'         2.7248    0.0226   -0.4980 C.3       1 ATP         0.1354
     16 O4'         2.4697    1.4219   -0.2462 O.3       1 ATP        -0.4135
     17 C3'         1.9404   -0.7419    0.5596 C.3       1 ATP         0.0995
     18 O3'         2.7418   -0.8086    1.7389 O.3       1 ATP        -0.5734
     19 C2'         0.7477    0.1630    0.7858 C.3       1 ATP         0.0652
     20 O2'         0.1373   -0.0577    2.0407 O.3       1 ATP        -0.5780
     21 C1'         1.3733    1.5427    0.6747 C.3       1 ATP         0.4207
     22 N9          0.4520    2.5240    0.1767 N.pl3     1 ATP        -0.4600
     23 C8         -0.4598    3.4379    1.0068 C.ar      1 ATP         0.1694
     24 N7         -1.1770    4.2228    0.1845 N.2       1 ATP        -0.2540
     25 C5         -0.7330    3.8149   -1.0455 C.ar      1 ATP        -0.1403
     26 C6         -1.2413    4.4029   -2.3169 C.ar      1 ATP         0.4951
     27 N6         -2.1578    5.3575   -2.2832 N.pl3     1 ATP        -0.8019
     28 N1         -0.6977    3.8860   -3.4216 N.pl3     1 ATP        -0.6941
     29 C2          0.3002    2.8419   -3.3591 C.ar      1 ATP         0.6475
     30 N3          0.7548    2.3183   -2.2631 N.ar      1 ATP        -0.5183
     31 C4          0.2027    2.8430   -1.1309 C.ar      1 ATP         0.3000
     32 HOG2        4.9721   -1.7207   -8.0995 H         1 ATP         0.4939
     33 HOG3        4.3020    1.9584   -8.9064 H         1 ATP         0.4939
     34 HOB2        5.0189   -0.8866   -2.7051 H         1 ATP         0.5072
     35 HOA2       -0.0860   -2.2971   -3.2795 H         1 ATP         0.5058
     36 H5'1        2.8429    0.3147   -2.6388 H         1 ATP         0.0543
     37 H5'2        1.2125   -0.0898   -2.0417 H         1 ATP         0.0543
     38 H4'         3.8046   -0.1390   -0.4012 H         1 ATP         0.1294
     39 H3'         1.6787   -1.7628    0.2719 H         1 ATP         0.0900
     40 HO3'        2.2231   -1.2979    2.3952 H         1 ATP         0.4260
     41 H2'         0.0002   -0.0084   -0.0014 H         1 ATP         0.0698
     42 HO2'       -0.6132    0.5577    2.1063 H         1 ATP         0.4288
     43 H1'         1.7718    1.9211    1.6015 H         1 ATP         0.1374
     44 H8         -0.5892    3.5248    2.0902 H         1 ATP         0.2460
     45 HN61       -2.5044    5.7578   -3.1430 H         1 ATP         0.4865
     46 HN62       -2.5131    5.6876   -1.3973 H         1 ATP         0.4865
     47 H2          0.6550    2.5166   -4.3490 H         1 ATP         0.1083
     48 H48        -1.0101    4.2527   -4.3160 H         1 ATP         0.4893
@<TRIPOS>BOND
     1    1    2 2
     2    1    3 1
     3    1    4 1
     4    1    8 1
     5    3   32 1
     6    4   33 1
     7    5    6 2
     8    5    7 1
     9    5    8 1
    10    5   12 1
    11    7   34 1
    12    9   10 2
    13    9   11 1
    14    9   12 1
    15    9   13 1
    16   11   35 1
    17   13   14 1
    18   14   15 1
    19   14   36 1
    20   14   37 1
    21   15   16 1
    22   15   17 1
    23   15   38 1
    24   16   21 1
    25   17   18 1
    26   17   19 1
    27   17   39 1
    28   18   40 1
    29   19   20 1
    30   19   21 1
    31   19   41 1
    32   20   42 1
    33   21   22 1
    34   21   43 1
    35   22   23 ar
    36   22   31 ar
    37   23   24 ar
    38   23   44 1
    39   24   25 ar
    40   25   26 ar
    41   25   31 ar
    42   26   27 1
    43   26   28 ar
    44   27   45 1
    45   27   46 1
    46   28   29 ar
    47   28   48 1
    48   29   30 ar
    49   29   47 1
    50   30   31 ar
@<TRIPOS>SUBSTRUCTURE
     1 ATP         1 GROUP 0 A     ****
@<TRIPOS>MOLECULE
[[5-(6-amino-1,8-dihydropurine-6,8-diylium-7-id-9-yl)-3,4-dihydroxy-tetrahydrofuran-2-yl]methoxy-hydroxy-phosphoryl] phosphono hydrogen phosphate
   48    50     1     0     0
SMALL
USER_CHARGES

@<TRIPOS>ATOM
      1 PG          5.6831    1.0263   -6.6186 P.3       1 ATP         1.7931
      2 O1G         6.7047    0.2384   -7.3844 O.2       1 ATP        -0.8245
      3 O2G         6.2570    1.8648   -5.3619 O.3       1 ATP        -0.7758
      4 O3G         4.8856    2.1374   -7.4801 O.3       1 ATP        -0.7758
      5 PB          4.5115   -1.0664   -4.9006 P.3       1 ATP         1.9416
      6 O1B         5.2984   -2.2739   -5.3171 O.2       1 ATP        -0.8420
      7 O2B         5.0179   -0.3643   -3.5354 O.3       1 ATP        -0.7993
      8 O3B         4.4946    0.1414   -5.9736 O.3       1 ATP        -0.7763
      9 PA          2.1468   -2.2811   -3.6362 P.3       1 ATP         1.7989
     10 O1A         2.4480   -3.7421   -3.8041 O.2       1 ATP        -0.8148
     11 O2A         0.5929   -1.8899   -3.8585 O.3       1 ATP        -0.8139
     12 O3A         2.9337   -1.3101   -4.6600 O.3       1 ATP        -0.8202
     13 O5'         2.5234   -1.6624   -2.1893 O.3       1 ATP        -0.5616
     14 C5'         2.2816   -0.2918   -1.9206 C.3       1 ATP         0.1639
     15 C4'         2.7248    0.0226   -0.4980 C.3       1 ATP         0.1354
     16 O4'         2.4697    1.4219   -0.2462 O.3       1 ATP        -0.4135
     17 C3'         1.9404   -0.7419    0.5596 C.3       1 ATP         0.0995
     18 O3'         2.7418   -0.8086    1.7389 O.3       1 ATP        -0.5734
     19 C2'         0.7477    0.1630    0.7858 C.3       1 ATP         0.0652
     20 O2'         0.1373   -0.0577    2.0407 O.3       1 ATP        -0.5780
     21 C1'         1.3733    1.5427    0.6747 C.3       1 ATP         0.4207
     22 N9          0.4520    2.5240    0.1767 N.pl3     1 ATP        -0.4600
     23 C8         -0.4598    3.4379    1.0068 C.ar      1 ATP         0.1694
     24 N7         -1.1770    4.2228    0.1845 N.2       1 ATP        -0.2540
     25 C5         -0.7330    3.8149   -1.0455 C.ar      1 ATP        -0.1403
     26 C6         -1.2413    4.4029   -2.3169 C.ar      1 ATP         0.4951
     27 N6         -2.1578    5.3575   -2.2832 N.pl3     1 ATP        -0.8019
     28 N1         -0.6977    3.8860   -3.4216 N.pl3     1 ATP        -0.6941
     29 C2          0.3002    2.8419   -3.3591 C.ar      1 ATP         0.6475
     30 N3          0.7548    2.3183   -2.2631 N.ar      1 ATP        -0.5183
     31 C4          0.2027    2.8430   -1.1309 C.ar      1 ATP         0.3000
     32 HOG2        6.7029    1.3830   -4.6331 H         1 ATP         0.4939
     33 HOG3        5.3927    2.8581   -7.9109 H         1 ATP         0.4939
     34 HOB2        5.0189   -0.8866   -2.7051 H         1 ATP         0.5072
     35 HOA2       -0.0860   -2.2971   -3.2795 H         1 ATP         0.5058
     36 H5'1        2.8429    0.3147   -2.6388 H         1 ATP         0.0543
     37 H5'2        1.2125   -0.0898   -2.0417 H         1 ATP         0.0543
     38 H4'         3.8046   -0.1390   -0.4012 H         1 ATP         0.1294
     39 H3'         1.6787   -1.7628    0.2719 H         1 ATP         0.0900
     40 HO3'        2.2231   -1.2979    2.3952 H         1 ATP         0.4260
     41 H2'         0.0002   -0.0084   -0.0014 H         1 ATP         0.0698
     42 HO2'       -0.6132    0.5577    2.1063 H         1 ATP         0.4288
     43 H1'         1.7718    1.9211    1.6015 H         1 ATP         0.1374
     44 H8         -0.5892    3.5248    2.0902 H         1 ATP         0.2460
     45 HN61       -2.5044    5.7578   -3.1430 H         1 ATP         0.4865
     46 HN62       -2.5131    5.6876   -1.3973 H         1 ATP         0.4865
     47 H2          0.6550    2.5166   -4.3490 H         1 ATP         0.1083
     48 H48        -1.0101    4.2527   -4.3160 H         1 ATP         0.4893
@<TRIPOS>BOND
     1    1    2 2
     2    1    3 1
     3    1    4 1
     4    1    8 1
     5    3   32 1
     6    4   33 1
     7    5    6 2
     8    5    7 1
     9    5    8 1
    10    5   12 1
    11    7   34 1
    12    9   10 2
    13    9   11 1
    14    9   12 1
    15    9   13 1
    16   11   35 1
    17   13   14 1
    18   14   15 1
    19   14   36 1
    20   14   37 1
    21   15   16 1
    22   15   17 1
    23   15   38 1
    24   16   21 1
    25   17   18 1
    26   17   19 1
    27   17   39 1
    28   18   40 1
    29   19   20 1
    30   19   21 1
    31   19   41 1
    32   20   42 1
    33   21   22 1
    34   21   43 1
    35   22   23 ar
    36   22   31 ar
    37   23   24 ar
    38   23   44 1
    39   24   25 ar
    40   25   26 ar
    41   25   31 ar
    42   26   27 1
    43   26   28 ar
    44   27   45 1
    45   27   46 1
    46   28   29 ar
    47   28   48 1
    48   29   30 ar
    49   29   47 1
    50   30   31 ar
@<TRIPOS>SUBSTRUCTURE
     1 ATP         1 GROUP 0 A     ****
@<TRIPOS>MOLECULE
[[5-(6-amino-1,8-dihydropurine-6,8-diylium-7-id-9-yl)-3,4-dihydroxy-tetrahydrofuran-2-yl]methoxy-hydroxy-phosphoryl] phosphono hydrogen phosphate
   48    50     1     0     0
SMALL
USER_CHARGES

@<TRIPOS>ATOM
      1 PG          7.6740   -3.2333   -3.8394 P.3       1 ATP         1.7931
      2 O1G         8.2108   -3.3240   -2.4413 O.2       1 ATP        -0.8245
      3 O2G         8.5560   -2.3457   -4.8620 O.3       1 ATP        -0.7758
      4 O3G         7.5159   -4.6468   -4.6074 O.3       1 ATP        -0.7758
      5 PB          5.6188   -1.1392   -3.5324 P.3       1 ATP         1.9416
      6 O1B         5.7436   -0.8057   -2.0749 O.2       1 ATP        -0.8420
      7 O2B         6.3748   -0.1159   -4.5296 O.3       1 ATP        -0.7993
      8 O3B         6.1968   -2.5879   -3.9535 O.3       1 ATP        -0.7763
      9 PA          2.8567   -2.1438   -3.6977 P.3       1 ATP         1.7989
     10 O1A         3.0944   -3.6170   -3.8601 O.2       1 ATP        -0.8148
     11 O2A         1.6417   -1.5609   -4.5928 O.3       1 ATP        -0.8139
     12 O3A         4.1111   -1.2111   -4.1056 O.3       1 ATP        -0.8202
     13 O5'         2.5234   -1.6624   -2.1893 O.3       1 ATP        -0.5616
     14 C5'         2.2816   -0.2918   -1.9206 C.3       1 ATP         0.1639
     15 C4'         2.7248    0.0226   -0.4980 C.3       1 ATP         0.1354
     16 O4'         2.4697    1.4219   -0.2462 O.3       1 ATP        -0.4135
     17 C3'         1.9404   -0.7419    0.5596 C.3       1 ATP         0.0995
     18 O3'         2.7418   -0.8086    1.7389 O.3       1 ATP        -0.5734
     19 C2'         0.7477    0.1630    0.7858 C.3       1 ATP         0.0652
     20 O2'         0.1373   -0.0577    2.0407 O.3       1 ATP        -0.5780
     21 C1'         1.3733    1.5427    0.6747 C.3       1 ATP         0.4207
     22 N9          0.4520    2.5240    0.1767 N.pl3     1 ATP        -0.4600
     23 C8         -0.4598    3.4379    1.0068 C.ar      1 ATP         0.1694
     24 N7         -1.1770    4.2228    0.1845 N.2       1 ATP        -0.2540
     25 C5         -0.7330    3.8149   -1.0455 C.ar      1 ATP        -0.1403
     26 C6         -1.2413    4.4029   -2.3169 C.ar      1 ATP         0.4951
     27 N6         -2.1578    5.3575   -2.2832 N.pl3     1 ATP        -0.8019
     28 N1         -0.6977    3.8860   -3.4216 N.pl3     1 ATP        -0.6941
     29 C2          0.3002    2.8419   -3.3591 C.ar      1 ATP         0.6475
     30 N3          0.7548    2.3183   -2.2631 N.ar      1 ATP        -0.5183
     31 C4          0.2027    2.8430   -1.1309 C.ar      1 ATP         0.3000
     32 HOG2        8.7066   -1.3977   -4.6602 H         1 ATP         0.4939
     33 HOG3        8.3121   -5.2021   -4.7487 H         1 ATP         0.4939
     34 HOB2        6.1130    0.8293   -4.5275 H         1 ATP         0.5072
     35 HOA2        1.6893   -1.6447   -5.5689 H         1 ATP         0.5058
     36 H5'1        2.8429    0.3147   -2.6388 H         1 ATP         0.0543
     37 H5'2        1.2125   -0.0898   -2.0417 H         1 ATP         0.0543
     38 H4'         3.8046   -0.1390   -0.4012 H         1 ATP         0.1294
     39 H3'         1.6787   -1.7628    0.2719 H         1 ATP         0.0900
     40 HO3'        2.2231   -1.2979    2.3952 H         1 ATP         0.4260
     41 H2'         0.0002   -0.0084   -0.0014 H         1 ATP         0.0698
     42 HO2'       -0.6132    0.5577    2.1063 H         1 ATP         0.4288
     43 H1'         1.7718    1.9211    1.6015 H         1 ATP         0.1374
     44 H8         -0.5892    3.5248    2.0902 H         1 ATP         0.2460
     45 HN61       -2.5128    5.6880   -1.3974 H         1 ATP         0.4865
     46 HN62       -2.5040    5.7581   -3.1431 H         1 ATP         0.4865
     47 H2          0.6550    2.5166   -4.3490 H         1 ATP         0.1083
     48 H48        -1.0101    4.2527   -4.3160 H         1 ATP         0.4893
@<TRIPOS>BOND
     1    1    2 2
     2    1    3 1
     3    1    4 1
     4    1    8 1
     5    3   32 1
     6    4   33 1
     7    5    6 2
     8    5    7 1
     9    5    8 1
    10    5   12 1
    11    7   34 1
    12    9   10 2
    13    9   11 1
    14    9   12 1
    15    9   13 1
    16   11   35 1
    17   13   14 1
    18   14   15 1
    19   14   36 1
    20   14   37 1
    21   15   16 1
    22   15   17 1
    23   15   38 1
    24   16   21 1
    25   17   18 1
    26   17   19 1
    27   17   39 1
    28   18   40 1
    29   19   20 1
    30   19   21 1
    31   19   41 1
    32   20   42 1
    33   21   22 1
    34   21   43 1
    35   22   23 ar
    36   22   31 ar
    37   23   24 ar
    38   23   44 1
    39   24   25 ar
    40   25   26 ar
    41   25   31 ar
    42   26   27 1
    43   26   28 ar
    44   27   45 1
    45   27   46 1
    46   28   29 ar
    47   28   48 1
    48   29   30 ar
    49   29   47 1
    50   30   31 ar
@<TRIPOS>SUBSTRUCTURE
     1 ATP         1 GROUP 0 A     ****
@<TRIPOS>MOLECULE
[[5-(6-amino-1,8-dihydropurine-6,8-diylium-7-id-9-yl)-3,4-dihydroxy-tetrahydrofuran-2-yl]methoxy-hydroxy-phosphoryl] phosphono hydrogen phosphate
   48    50     1     0     0
SMALL
USER_CHARGES

@<TRIPOS>ATOM
      1 PG          3.8048    0.1687   -7.9600 P.3       1 ATP         1.7931
      2 O1G         4.2291   -0.8335   -8.9928 O.2       1 ATP        -0.8245
      3 O2G         4.7418    1.4803   -7.8440 O.3       1 ATP        -0.7758
      4 O3G         2.3232    0.7813   -8.1654 O.3       1 ATP        -0.7758
      5 PB          4.9029   -1.0376   -5.5018 P.3       1 ATP         1.9416
      6 O1B         5.5508   -2.2797   -6.0390 O.2       1 ATP        -0.8420
      7 O2B         5.9151    0.1941   -5.2345 O.3       1 ATP        -0.7993
      8 O3B         3.7590   -0.4000   -6.4480 O.3       1 ATP        -0.7763
      9 PA          2.8567   -2.1438   -3.6977 P.3       1 ATP         1.7989
     10 O1A         3.0944   -3.6170   -3.8601 O.2       1 ATP        -0.8148
     11 O2A         1.6417   -1.5609   -4.5928 O.3       1 ATP        -0.8139
     12 O3A         4.1111   -1.2111   -4.1056 O.3       1 ATP        -0.8202
     13 O5'         2.5234   -1.6624   -2.1893 O.3       1 ATP        -0.5616
     14 C5'         2.2816   -0.2918   -1.9206 C.3       1 ATP         0.1639
     15 C4'         2.7248    0.0226   -0.4980 C.3       1 ATP         0.1354
     16 O4'         2.4697    1.4219   -0.2462 O.3       1 ATP        -0.4135
     17 C3'         1.9404   -0.7419    0.5596 C.3       1 ATP         0.0995
     18 O3'         2.7418   -0.8086    1.7389 O.3       1 ATP        -0.5734
     19 C2'         0.7477    0.1630    0.7858 C.3       1 ATP         0.0652
     20 O2'         0.1373   -0.0577    2.0407 O.3       1 ATP        -0.5780
     21 C1'         1.3733    1.5427    0.6747 C.3       1 ATP         0.4207
     22 N9          0.4520    2.5240    0.1767 N.pl3     1 ATP        -0.4600
     23 C8         -0.4598    3.4379    1.0068 C.ar      1 ATP         0.1694
     24 N7         -1.1770    4.2228    0.1845 N.2       1 ATP        -0.2540
     25 C5         -0.7330    3.8149   -1.0455 C.ar      1 ATP        -0.1403
     26 C6         -1.2413    4.4029   -2.3169 C.ar      1 ATP         0.4951
     27 N6         -2.1578    5.3575   -2.2832 N.pl3     1 ATP        -0.8019
     28 N1         -0.6977    3.8860   -3.4216 N.pl3     1 ATP        -0.6941
     29 C2          0.3002    2.8419   -3.3591 C.ar      1 ATP         0.6475
     30 N3          0.7548    2.3183   -2.2631 N.ar      1 ATP        -0.5183
     31 C4          0.2027    2.8430   -1.1309 C.ar      1 ATP         0.3000
     32 HOG2        5.6890    1.3687   -7.6149 H         1 ATP         0.4939
     33 HOG3        2.1213    1.2685   -8.9924 H         1 ATP         0.4939
     34 HOB2        6.6520    0.0735   -4.5985 H         1 ATP         0.5072
     35 HOA2        1.6893   -1.6447   -5.5689 H         1 ATP         0.5058
     36 H5'1        2.8429    0.3147   -2.6388 H         1 ATP         0.0543
     37 H5'2        1.2125   -0.0898   -2.0417 H         1 ATP         0.0543
     38 H4'         3.8046   -0.1390   -0.4012 H         1 ATP         0.1294
     39 H3'         1.6787   -1.7628    0.2719 H         1 ATP         0.0900
     40 HO3'        2.2231   -1.2979    2.3952 H         1 ATP         0.4260
     41 H2'         0.0002   -0.0084   -0.0014 H         1 ATP         0.0698
     42 HO2'       -0.1554   -0.9852    2.0577 H         1 ATP         0.4288
     43 H1'         1.7718    1.9211    1.6015 H         1 ATP         0.1374
     44 H8         -0.5892    3.5248    2.0902 H         1 ATP         0.2460
     45 HN61       -2.5128    5.6880   -1.3974 H         1 ATP         0.4865
     46 HN62       -2.5040    5.7581   -3.1431 H         1 ATP         0.4865
     47 H2          0.6550    2.5166   -4.3490 H         1 ATP         0.1083
     48 H48        -1.0101    4.2527   -4.3160 H         1 ATP         0.4893
@<TRIPOS>BOND
     1    1    2 2
     2    1    3 1
     3    1    4 1
     4    1    8 1
     5    3   32 1
     6    4   33 1
     7    5    6 2
     8    5    7 1
     9    5    8 1
    10    5   12 1
    11    7   34 1
    12    9   10 2
    13    9   11 1
    14    9   12 1
    15    9   13 1
    16   11   35 1
    17   13   14 1
    18   14   15 1
    19   14   36 1
    20   14   37 1
    21   15   16 1
    22   15   17 1
    23   15   38 1
    24   16   21 1
    25   17   18 1
    26   17   19 1
    27   17   39 1
    28   18   40 1
    29   19   20 1
    30   19   21 1
    31   19   41 1
    32   20   42 1
    33   21   22 1
    34   21   43 1
    35   22   23 ar
    36   22   31 ar
    37   23   24 ar
    38   23   44 1
    39   24   25 ar
    40   25   26 ar
    41   25   31 ar
    42   26   27 1
    43   26   28 ar
    44   27   45 1
    45   27   46 1
    46   28   29 ar
    47   28   48 1
    48   29   30 ar
    49   29   47 1
    50   30   31 ar
@<TRIPOS>SUBSTRUCTURE
     1 ATP         1 GROUP 0 A     ****
@<TRIPOS>MOLECULE
[[5-(6-amino-1,8-dihydropurine-6,8-diylium-7-id-9-yl)-3,4-dihydroxy-tetrahydrofuran-2-yl]methoxy-hydroxy-phosphoryl] phosphono hydrogen phosphate
   48    50     1     0     0
SMALL
USER_CHARGES

@<TRIPOS>ATOM
      1 PG          6.8632   -0.5054   -6.2709 P.3       1 ATP         1.7931
      2 O1G         7.7545    0.0828   -5.2170 O.2       1 ATP        -0.8245
      3 O2G         6.5617    0.4546   -7.5354 O.3       1 ATP        -0.7758
      4 O3G         7.4102   -1.8653   -6.9522 O.3       1 ATP        -0.7758
      5 PB          4.9041   -1.9662   -4.6181 P.3       1 ATP         1.9416
      6 O1B         5.3196   -3.3897   -4.8456 O.2       1 ATP        -0.8420
      7 O2B         5.4388   -1.3156   -3.2382 O.3       1 ATP        -0.7993
      8 O3B         5.3909   -0.9231   -5.7517 O.3       1 ATP        -0.7763
      9 PA          2.1468   -2.2811   -3.6362 P.3       1 ATP         1.7989
     10 O1A         1.9959   -3.7741   -3.6727 O.2       1 ATP        -0.8148
     11 O2A         0.8295   -1.4653   -4.1016 O.3       1 ATP        -0.8139
     12 O3A         3.3120   -1.6991   -4.5921 O.3       1 ATP        -0.8202
     13 O5'         2.5234   -1.6624   -2.1893 O.3       1 ATP        -0.5616
     14 C5'         2.2816   -0.2918   -1.9206 C.3       1 ATP         0.1639
     15 C4'         2.7248    0.0226   -0.4980 C.3       1 ATP         0.1354
     16 O4'         2.4697    1.4219   -0.2462 O.3       1 ATP        -0.4135
     17 C3'         1.9404   -0.7419    0.5596 C.3       1 ATP         0.0995
     18 O3'         2.7418   -0.8086    1.7389 O.3       1 ATP        -0.5734
     19 C2'         0.7477    0.1630    0.7858 C.3       1 ATP         0.0652
     20 O2'         0.1373   -0.0577    2.0407 O.3       1 ATP        -0.5780
     21 C1'         1.3733    1.5427    0.6747 C.3       1 ATP         0.4207
     22 N9          0.4520    2.5240    0.1767 N.pl3     1 ATP        -0.4600
     23 C8         -0.4598    3.4379    1.0068 C.ar      1 ATP         0.1694
     24 N7         -1.1770    4.2228    0.1845 N.2       1 ATP        -0.2540
     25 C5         -0.7330    3.8149   -1.0455 C.ar      1 ATP        -0.1403
     26 C6         -1.2413    4.4029   -2.3169 C.ar      1 ATP         0.4951
     27 N6         -2.1578    5.3575   -2.2832 N.pl3     1 ATP        -0.8019
     28 N1         -0.6977    3.8860   -3.4216 N.pl3     1 ATP        -0.6941
     29 C2          0.3002    2.8419   -3.3591 C.ar      1 ATP         0.6475
     30 N3          0.7548    2.3183   -2.2631 N.ar      1 ATP        -0.5183
     31 C4          0.2027    2.8430   -1.1309 C.ar      1 ATP         0.3000
     32 HOG2        7.3123    0.7690   -8.0829 H         1 ATP         0.4939
     33 HOG3        7.5712   -2.6491   -6.3850 H         1 ATP         0.4939
     34 HOB2        5.1790   -1.7281   -2.3870 H         1 ATP         0.5072
     35 HOA2       -0.0058   -1.5895   -3.6028 H         1 ATP         0.5058
     36 H5'1        2.8429    0.3147   -2.6388 H         1 ATP         0.0543
     37 H5'2        1.2125   -0.0898   -2.0417 H         1 ATP         0.0543
     38 H4'         3.8046   -0.1390   -0.4012 H         1 ATP         0.1294
     39 H3'         1.6787   -1.7628    0.2719 H         1 ATP         0.0900
     40 HO3'        2.2231   -1.2979    2.3952 H         1 ATP         0.4260
     41 H2'         0.0002   -0.0084   -0.0014 H         1 ATP         0.0698
     42 HO2'       -0.1554   -0.9852    2.0577 H         1 ATP         0.4288
     43 H1'         1.7718    1.9211    1.6015 H         1 ATP         0.1374
     44 H8         -0.5892    3.5248    2.0902 H         1 ATP         0.2460
     45 HN61       -2.5044    5.7578   -3.1430 H         1 ATP         0.4865
     46 HN62       -2.5131    5.6876   -1.3973 H         1 ATP         0.4865
     47 H2          0.6550    2.5166   -4.3490 H         1 ATP         0.1083
     48 H48        -1.0101    4.2527   -4.3160 H         1 ATP         0.4893
@<TRIPOS>BOND
     1    1    2 2
     2    1    3 1
     3    1    4 1
     4    1    8 1
     5    3   32 1
     6    4   33 1
     7    5    6 2
     8    5    7 1
     9    5    8 1
    10    5   12 1
    11    7   34 1
    12    9   10 2
    13    9   11 1
    14    9   12 1
    15    9   13 1
    16   11   35 1
    17   13   14 1
    18   14   15 1
    19   14   36 1
    20   14   37 1
    21   15   16 1
    22   15   17 1
    23   15   38 1
    24   16   21 1
    25   17   18 1
    26   17   19 1
    27   17   39 1
    28   18   40 1
    29   19   20 1
    30   19   21 1
    31   19   41 1
    32   20   42 1
    33   21   22 1
    34   21   43 1
    35   22   23 ar
    36   22   31 ar
    37   23   24 ar
    38   23   44 1
    39   24   25 ar
    40   25   26 ar
    41   25   31 ar
    42   26   27 1
    43   26   28 ar
    44   27   45 1
    45   27   46 1
    46   28   29 ar
    47   28   48 1
    48   29   30 ar
    49   29   47 1
    50   30   31 ar
@<TRIPOS>SUBSTRUCTURE
     1 ATP         1 GROUP 0 A     ****
@<TRIPOS>MOLECULE
[[5-(6-amino-1,8-dihydropurine-6,8-diylium-7-id-9-yl)-3,4-dihydroxy-tetrahydrofuran-2-yl]methoxy-hydroxy-phosphoryl] phosphono hydrogen phosphate
   48    50     1     0     0
SMALL
USER_CHARGES

@<TRIPOS>ATOM
      1 PG          7.3899    0.5024   -5.8855 P.3       1 ATP         1.7931
      2 O1G         8.3236   -0.5661   -6.3729 O.2       1 ATP        -0.8245
      3 O2G         8.0429    1.5833   -4.8771 O.3       1 ATP        -0.7758
      4 O3G         6.7296    1.4176   -7.0427 O.3       1 ATP        -0.7758
      5 PB          4.9029   -1.0376   -5.5018 P.3       1 ATP         1.9416
      6 O1B         4.0761   -0.5691   -6.6628 O.2       1 ATP        -0.8420
      7 O2B         5.6367   -2.4611   -5.7222 O.3       1 ATP        -0.7993
      8 O3B         6.1040   -0.0453   -5.0742 O.3       1 ATP        -0.7763
      9 PA          2.8567   -2.1438   -3.6977 P.3       1 ATP         1.7989
     10 O1A         3.0944   -3.6170   -3.8601 O.2       1 ATP        -0.8148
     11 O2A         1.6417   -1.5609   -4.5928 O.3       1 ATP        -0.8139
     12 O3A         4.1111   -1.2111   -4.1056 O.3       1 ATP        -0.8202
     13 O5'         2.5234   -1.6624   -2.1893 O.3       1 ATP        -0.5616
     14 C5'         2.2816   -0.2918   -1.9206 C.3       1 ATP         0.1639
     15 C4'         2.7248    0.0226   -0.4980 C.3       1 ATP         0.1354
     16 O4'         2.4697    1.4219   -0.2462 O.3       1 ATP        -0.4135
     17 C3'         1.9404   -0.7419    0.5596 C.3       1 ATP         0.0995
     18 O3'         2.7418   -0.8086    1.7389 O.3       1 ATP        -0.5734
     19 C2'         0.7477    0.1630    0.7858 C.3       1 ATP         0.0652
     20 O2'         0.1373   -0.0577    2.0407 O.3       1 ATP        -0.5780
     21 C1'         1.3733    1.5427    0.6747 C.3       1 ATP         0.4207
     22 N9          0.4520    2.5240    0.1767 N.pl3     1 ATP        -0.4600
     23 C8         -0.4598    3.4379    1.0068 C.ar      1 ATP         0.1694
     24 N7         -1.1770    4.2228    0.1845 N.2       1 ATP        -0.2540
     25 C5         -0.7330    3.8149   -1.0455 C.ar      1 ATP        -0.1403
     26 C6         -1.2413    4.4029   -2.3169 C.ar      1 ATP         0.4951
     27 N6         -2.1578    5.3575   -2.2832 N.pl3     1 ATP        -0.8019
     28 N1         -0.6977    3.8860   -3.4216 N.pl3     1 ATP        -0.6941
     29 C2          0.3002    2.8419   -3.3591 C.ar      1 ATP         0.6475
     30 N3          0.7548    2.3183   -2.2631 N.ar      1 ATP        -0.5183
     31 C4          0.2027    2.8430   -1.1309 C.ar      1 ATP         0.3000
     32 HOG2        8.4255    1.2716   -4.0295 H         1 ATP         0.4939
     33 HOG3        6.1788    0.9882   -7.7314 H         1 ATP         0.4939
     34 HOB2        5.0887   -3.2553   -5.8984 H         1 ATP         0.5072
     35 HOA2        0.7391   -1.9204   -4.4587 H         1 ATP         0.5058
     36 H5'1        2.8429    0.3147   -2.6388 H         1 ATP         0.0543
     37 H5'2        1.2125   -0.0898   -2.0417 H         1 ATP         0.0543
     38 H4'         3.8046   -0.1390   -0.4012 H         1 ATP         0.1294
     39 H3'         1.6787   -1.7628    0.2719 H         1 ATP         0.0900
     40 HO3'        2.2231   -1.2979    2.3952 H         1 ATP         0.4260
     41 H2'         0.0002   -0.0084   -0.0014 H         1 ATP         0.0698
     42 HO2'       -0.1554   -0.9852    2.0577 H         1 ATP         0.4288
     43 H1'         1.7718    1.9211    1.6015 H         1 ATP         0.1374
     44 H8         -0.5892    3.5248    2.0902 H         1 ATP         0.2460
     45 HN61       -2.5128    5.6880   -1.3974 H         1 ATP         0.4865
     46 HN62       -2.5040    5.7581   -3.1431 H         1 ATP         0.4865
     47 H2          0.6550    2.5166   -4.3490 H         1 ATP         0.1083
     48 H48        -1.0101    4.2527   -4.3160 H         1 ATP         0.4893
@<TRIPOS>BOND
     1    1    2 2
     2    1    3 1
     3    1    4 1
     4    1    8 1
     5    3   32 1
     6    4   33 1
     7    5    6 2
     8    5    7 1
     9    5    8 1
    10    5   12 1
    11    7   34 1
    12    9   10 2
    13    9   11 1
    14    9   12 1
    15    9   13 1
    16   11   35 1
    17   13   14 1
    18   14   15 1
    19   14   36 1
    20   14   37 1
    21   15   16 1
    22   15   17 1
    23   15   38 1
    24   16   21 1
    25   17   18 1
    26   17   19 1
    27   17   39 1
    28   18   40 1
    29   19   20 1
    30   19   21 1
    31   19   41 1
    32   20   42 1
    33   21   22 1
    34   21   43 1
    35   22   23 ar
    36   22   31 ar
    37   23   24 ar
    38   23   44 1
    39   24   25 ar
    40   25   26 ar
    41   25   31 ar
    42   26   27 1
    43   26   28 ar
    44   27   45 1
    45   27   46 1
    46   28   29 ar
    47   28   48 1
    48   29   30 ar
    49   29   47 1
    50   30   31 ar
@<TRIPOS>SUBSTRUCTURE
     1 ATP         1 GROUP 0 A     ****
@<TRIPOS>MOLECULE
[[5-(6-amino-1,8-dihydropurine-6,8-diylium-7-id-9-yl)-3,4-dihydroxy-tetrahydrofuran-2-yl]methoxy-hydroxy-phosphoryl] phosphono hydrogen phosphate
   48    50     1     0     0
SMALL
USER_CHARGES

@<TRIPOS>ATOM
      1 PG          0.7043    5.8654   -4.4055 P.3       1 ATP         1.7931
      2 O1G        -0.6970    5.9013   -4.9406 O.2       1 ATP        -0.8245
      3 O2G         1.8281    6.5161   -5.3674 O.3       1 ATP        -0.7758
      4 O3G         0.9223    6.6319   -2.9993 O.3       1 ATP        -0.7758
      5 PB          1.5015    3.1025   -5.0646 P.3       1 ATP         1.9416
      6 O1B         0.2637    2.5833   -5.7349 O.2       1 ATP        -0.8420
      7 O2B         2.6708    3.5783   -6.0742 O.3       1 ATP        -0.7993
      8 O3B         1.2733    4.3827   -4.1060 O.3       1 ATP        -0.7763
      9 PA          2.8837    0.6137   -4.3156 P.3       1 ATP         1.7989
     10 O1A         4.0005    0.5905   -5.3184 O.2       1 ATP        -0.8148
     11 O2A         1.6113   -0.3033   -4.7122 O.3       1 ATP        -0.8139
     12 O3A         2.2372    2.0724   -4.0624 O.3       1 ATP        -0.8202
     13 O5'         3.2876    0.1332   -2.8242 O.3       1 ATP        -0.5616
     14 C5'         2.2816   -0.2918   -1.9206 C.3       1 ATP         0.1639
     15 C4'         2.7248    0.0226   -0.4980 C.3       1 ATP         0.1354
     16 O4'         2.4697    1.4219   -0.2462 O.3       1 ATP        -0.4135
     17 C3'         1.9404   -0.7419    0.5596 C.3       1 ATP         0.0995
     18 O3'         2.7418   -0.8086    1.7389 O.3       1 ATP        -0.5734
     19 C2'         0.7477    0.1630    0.7858 C.3       1 ATP         0.0652
     20 O2'         0.1373   -0.0577    2.0407 O.3       1 ATP        -0.5780
     21 C1'         1.3733    1.5427    0.6747 C.3       1 ATP         0.4207
     22 N9          0.4520    2.5240    0.1767 N.pl3     1 ATP        -0.4600
     23 C8          0.0254    3.8246    0.8711 C.ar      1 ATP         0.1694
     24 N7         -0.8510    4.4823    0.0926 N.2       1 ATP        -0.2540
     25 C5         -0.9459    3.6446   -0.9871 C.ar      1 ATP        -0.1403
     26 C6         -1.8194    3.9411   -2.1575 C.ar      1 ATP         0.4951
     27 N6         -2.5417    5.0503   -2.1784 N.pl3     1 ATP        -0.8019
     28 N1         -1.7885    3.0154   -3.1193 N.pl3     1 ATP        -0.6941
     29 C2         -0.9657    1.8320   -3.0072 C.ar      1 ATP         0.6475
     30 N3         -0.1996    1.5571   -1.9975 N.ar      1 ATP        -0.5183
     31 C4         -0.2271    2.5000   -1.0115 C.ar      1 ATP         0.3000
     32 HOG2        1.7501    7.4613   -5.6174 H         1 ATP         0.4939
     33 HOG3        0.4148    6.3364   -2.2137 H         1 ATP         0.4939
     34 HOB2        3.0523    2.9262   -6.6997 H         1 ATP         0.5072
     35 HOA2        1.7421   -1.2674   -4.8367 H         1 ATP         0.5058
     36 H5'1        1.3495    0.2323   -2.1554 H         1 ATP         0.0543
     37 H5'2        2.1262   -1.3685   -2.0437 H         1 ATP         0.0543
     38 H4'         3.8046   -0.1390   -0.4012 H         1 ATP         0.1294
     39 H3'         1.6787   -1.7628    0.2719 H         1 ATP         0.0900
     40 HO3'        2.2231   -1.2979    2.3952 H         1 ATP         0.4260
     41 H2'         0.0002   -0.0084   -0.0014 H         1 ATP         0.0698
     42 HO2'       -0.1554   -0.9852    2.0577 H         1 ATP         0.4288
     43 H1'         1.7718    1.9211    1.6015 H         1 ATP         0.1374
     44 H8          0.3188    4.2486    1.8365 H         1 ATP         0.2460
     45 HN61       -2.5015    5.6958   -1.4029 H         1 ATP         0.4865
     46 HN62       -3.1343    5.2540   -2.9703 H         1 ATP         0.4865
     47 H2         -1.0441    1.1612   -3.8764 H         1 ATP         0.1083
     48 H48        -2.3667    3.1698   -3.9401 H         1 ATP         0.4893
@<TRIPOS>BOND
     1    1    2 2
     2    1    3 1
     3    1    4 1
     4    1    8 1
     5    3   32 1
     6    4   33 1
     7    5    6 2
     8    5    7 1
     9    5    8 1
    10    5   12 1
    11    7   34 1
    12    9   10 2
    13    9   11 1
    14    9   12 1
    15    9   13 1
    16   11   35 1
    17   13   14 1
    18   14   15 1
    19   14   36 1
    20   14   37 1
    21   15   16 1
    22   15   17 1
    23   15   38 1
    24   16   21 1
    25   17   18 1
    26   17   19 1
    27   17   39 1
    28   18   40 1
    29   19   20 1
    30   19   21 1
    31   19   41 1
    32   20   42 1
    33   21   22 1
    34   21   43 1
    35   22   23 ar
    36   22   31 ar
    37   23   24 ar
    38   23   44 1
    39   24   25 ar
    40   25   26 ar
    41   25   31 ar
    42   26   27 1
    43   26   28 ar
    44   27   45 1
    45   27   46 1
    46   28   29 ar
    47   28   48 1
    48   29   30 ar
    49   29   47 1
    50   30   31 ar
@<TRIPOS>SUBSTRUCTURE
     1 ATP         1 GROUP 0 A     ****
@<TRIPOS>MOLECULE
[[5-(6-amino-1,8-dihydropurine-6,8-diylium-7-id-9-yl)-3,4-dihydroxy-tetrahydrofuran-2-yl]methoxy-hydroxy-phosphoryl] phosphono hydrogen phosphate
   48    50     1     0     0
SMALL
USER_CHARGES

@<TRIPOS>ATOM
      1 PG         -1.8625   -0.0924   -4.1942 P.3       1 ATP         1.7931
      2 O1G        -2.3782   -1.4770   -4.4545 O.2       1 ATP        -0.8245
      3 O2G        -2.9950    1.0525   -4.0580 O.3       1 ATP        -0.7758
      4 O3G        -0.9941    0.0740   -2.8411 O.3       1 ATP        -0.7758
      5 PB          0.5435   -0.0438   -5.9007 P.3       1 ATP         1.9416
      6 O1B         0.5147   -1.4182   -6.5016 O.2       1 ATP        -0.8420
      7 O2B         1.0195    1.1273   -6.9082 O.3       1 ATP        -0.7993
      8 O3B        -0.8749    0.4846   -5.3359 O.3       1 ATP        -0.7763
      9 PA          3.0852   -0.0762   -4.4159 P.3       1 ATP         1.7989
     10 O1A         3.9407    0.7955   -5.2886 O.2       1 ATP        -0.8148
     11 O2A         3.2913   -1.6635   -4.6509 O.3       1 ATP        -0.8139
     12 O3A         1.4949    0.1335   -4.6083 O.3       1 ATP        -0.8202
     13 O5'         3.2876    0.1332   -2.8242 O.3       1 ATP        -0.5616
     14 C5'         2.2816   -0.2918   -1.9206 C.3       1 ATP         0.1639
     15 C4'         2.7248    0.0226   -0.4980 C.3       1 ATP         0.1354
     16 O4'         2.4697    1.4219   -0.2462 O.3       1 ATP        -0.4135
     17 C3'         1.9404   -0.7419    0.5596 C.3       1 ATP         0.0995
     18 O3'         2.7418   -0.8086    1.7389 O.3       1 ATP        -0.5734
     19 C2'         0.7477    0.1630    0.7858 C.3       1 ATP         0.0652
     20 O2'         0.1373   -0.0577    2.0407 O.3       1 ATP        -0.5780
     21 C1'         1.3733    1.5427    0.6747 C.3       1 ATP         0.4207
     22 N9          0.4520    2.5240    0.1767 N.pl3     1 ATP        -0.4600
     23 C8         -0.4598    3.4379    1.0068 C.ar      1 ATP         0.1694
     24 N7         -1.1770    4.2228    0.1845 N.2       1 ATP        -0.2540
     25 C5         -0.7330    3.8149   -1.0455 C.ar      1 ATP        -0.1403
     26 C6         -1.2413    4.4029   -2.3169 C.ar      1 ATP         0.4951
     27 N6         -2.1578    5.3575   -2.2832 N.pl3     1 ATP        -0.8019
     28 N1         -0.6977    3.8860   -3.4216 N.pl3     1 ATP        -0.6941
     29 C2          0.3002    2.8419   -3.3591 C.ar      1 ATP         0.6475
     30 N3          0.7548    2.3183   -2.2631 N.ar      1 ATP        -0.5183
     31 C4          0.2027    2.8430   -1.1309 C.ar      1 ATP         0.3000
     32 HOG2       -3.5962    1.2185   -4.8150 H         1 ATP         0.4939
     33 HOG3       -1.4134   -0.1342   -1.9791 H         1 ATP         0.4939
     34 HOB2        1.9138    1.0754   -7.3076 H         1 ATP         0.5072
     35 HOA2        4.1796   -2.0529   -4.5052 H         1 ATP         0.5058
     36 H5'1        1.3495    0.2323   -2.1554 H         1 ATP         0.0543
     37 H5'2        2.1262   -1.3685   -2.0437 H         1 ATP         0.0543
     38 H4'         3.8046   -0.1390   -0.4012 H         1 ATP         0.1294
     39 H3'         1.6787   -1.7628    0.2719 H         1 ATP         0.0900
     40 HO3'        2.2231   -1.2979    2.3952 H         1 ATP         0.4260
     41 H2'         0.0002   -0.0084   -0.0014 H         1 ATP         0.0698
     42 HO2'       -0.1554   -0.9852    2.0577 H         1 ATP         0.4288
     43 H1'         1.7718    1.9211    1.6015 H         1 ATP         0.1374
     44 H8         -0.5892    3.5248    2.0902 H         1 ATP         0.2460
     45 HN61       -2.5128    5.6880   -1.3974 H         1 ATP         0.4865
     46 HN62       -2.5040    5.7581   -3.1431 H         1 ATP         0.4865
     47 H2          0.6550    2.5166   -4.3490 H         1 ATP         0.1083
     48 H48        -1.0101    4.2527   -4.3160 H         1 ATP         0.4893
@<TRIPOS>BOND
     1    1    2 2
     2    1    3 1
     3    1    4 1
     4    1    8 1
     5    3   32 1
     6    4   33 1
     7    5    6 2
     8    5    7 1
     9    5    8 1
    10    5   12 1
    11    7   34 1
    12    9   10 2
    13    9   11 1
    14    9   12 1
    15    9   13 1
    16   11   35 1
    17   13   14 1
    18   14   15 1
    19   14   36 1
    20   14   37 1
    21   15   16 1
    22   15   17 1
    23   15   38 1
    24   16   21 1
    25   17   18 1
    26   17   19 1
    27   17   39 1
    28   18   40 1
    29   19   20 1
    30   19   21 1
    31   19   41 1
    32   20   42 1
    33   21   22 1
    34   21   43 1
    35   22   23 ar
    36   22   31 ar
    37   23   24 ar
    38   23   44 1
    39   24   25 ar
    40   25   26 ar
    41   25   31 ar
    42   26   27 1
    43   26   28 ar
    44   27   45 1
    45   27   46 1
    46   28   29 ar
    47   28   48 1
    48   29   30 ar
    49   29   47 1
    50   30   31 ar
@<TRIPOS>SUBSTRUCTURE
     1 ATP         1 GROUP 0 A     ****
@<TRIPOS>MOLECULE
[[5-(6-amino-1,8-dihydropurine-6,8-diylium-7-id-9-yl)-3,4-dihydroxy-tetrahydrofuran-2-yl]methoxy-hydroxy-phosphoryl] phosphono hydrogen phosphate
   48    50     1     0     0
SMALL
USER_CHARGES

@<TRIPOS>ATOM
      1 PG          6.1056    1.4907   -4.5719 P.3       1 ATP         1.7931
      2 O1G         5.3303    1.7375   -3.3113 O.2       1 ATP        -0.8245
      3 O2G         5.5989    2.3140   -5.8670 O.3       1 ATP        -0.7758
      4 O3G         7.6800    1.8476   -4.4910 O.3       1 ATP        -0.7758
      5 PB          4.9029   -1.0376   -5.5018 P.3       1 ATP         1.9416
      6 O1B         4.0761   -0.5691   -6.6628 O.2       1 ATP        -0.8420
      7 O2B         5.6367   -2.4611   -5.7222 O.3       1 ATP        -0.7993
      8 O3B         6.1040   -0.0453   -5.0742 O.3       1 ATP        -0.7763
      9 PA          2.8567   -2.1438   -3.6977 P.3       1 ATP         1.7989
     10 O1A         3.0944   -3.6170   -3.8601 O.2       1 ATP        -0.8148
     11 O2A         1.6417   -1.5609   -4.5928 O.3       1 ATP        -0.8139
     12 O3A         4.1111   -1.2111   -4.1056 O.3       1 ATP        -0.8202
     13 O5'         2.5234   -1.6624   -2.1893 O.3       1 ATP        -0.5616
     14 C5'         2.2816   -0.2918   -1.9206 C.3       1 ATP         0.1639
     15 C4'         2.7248    0.0226   -0.4980 C.3       1 ATP         0.1354
     16 O4'         2.4697    1.4219   -0.2462 O.3       1 ATP        -0.4135
     17 C3'         1.9404   -0.7419    0.5596 C.3       1 ATP         0.0995
     18 O3'         2.7418   -0.8086    1.7389 O.3       1 ATP        -0.5734
     19 C2'         0.7477    0.1630    0.7858 C.3       1 ATP         0.0652
     20 O2'         0.1373   -0.0577    2.0407 O.3       1 ATP        -0.5780
     21 C1'         1.3733    1.5427    0.6747 C.3       1 ATP         0.4207
     22 N9          0.4520    2.5240    0.1767 N.pl3     1 ATP        -0.4600
     23 C8          0.0254    3.8246    0.8711 C.ar      1 ATP         0.1694
     24 N7         -0.8510    4.4823    0.0926 N.2       1 ATP        -0.2540
     25 C5         -0.9459    3.6446   -0.9871 C.ar      1 ATP        -0.1403
     26 C6         -1.8194    3.9411   -2.1575 C.ar      1 ATP         0.4951
     27 N6         -2.5417    5.0503   -2.1784 N.pl3     1 ATP        -0.8019
     28 N1         -1.7885    3.0154   -3.1193 N.pl3     1 ATP        -0.6941
     29 C2         -0.9657    1.8320   -3.0072 C.ar      1 ATP         0.6475
     30 N3         -0.1996    1.5571   -1.9975 N.ar      1 ATP        -0.5183
     31 C4         -0.2271    2.5000   -1.0115 C.ar      1 ATP         0.3000
     32 HOG2        4.6809    2.1806   -6.1856 H         1 ATP         0.4939
     33 HOG3        7.9482    2.7681   -4.2840 H         1 ATP         0.4939
     34 HOB2        6.2745   -2.5570   -6.4611 H         1 ATP         0.5072
     35 HOA2        1.6893   -1.6447   -5.5689 H         1 ATP         0.5058
     36 H5'1        2.8429    0.3147   -2.6388 H         1 ATP         0.0543
     37 H5'2        1.2125   -0.0898   -2.0417 H         1 ATP         0.0543
     38 H4'         3.8046   -0.1390   -0.4012 H         1 ATP         0.1294
     39 H3'         1.6787   -1.7628    0.2719 H         1 ATP         0.0900
     40 HO3'        2.2231   -1.2979    2.3952 H         1 ATP         0.4260
     41 H2'         0.0002   -0.0084   -0.0014 H         1 ATP         0.0698
     42 HO2'       -0.1554   -0.9852    2.0577 H         1 ATP         0.4288
     43 H1'         1.7718    1.9211    1.6015 H         1 ATP         0.1374
     44 H8          0.3188    4.2486    1.8365 H         1 ATP         0.2460
     45 HN61       -2.5015    5.6958   -1.4029 H         1 ATP         0.4865
     46 HN62       -3.1343    5.2540   -2.9703 H         1 ATP         0.4865
     47 H2         -1.0441    1.1612   -3.8764 H         1 ATP         0.1083
     48 H48        -2.3667    3.1698   -3.9401 H         1 ATP         0.4893
@<TRIPOS>BOND
     1    1    2 2
     2    1    3 1
     3    1    4 1
     4    1    8 1
     5    3   32 1
     6    4   33 1
     7    5    6 2
     8    5    7 1
     9    5    8 1
    10    5   12 1
    11    7   34 1
    12    9   10 2
    13    9   11 1
    14    9   12 1
    15    9   13 1
    16   11   35 1
    17   13   14 1
    18   14   15 1
    19   14   36 1
    20   14   37 1
    21   15   16 1
    22   15   17 1
    23   15   38 1
    24   16   21 1
    25   17   18 1
    26   17   19 1
    27   17   39 1
    28   18   40 1
    29   19   20 1
    30   19   21 1
    31   19   41 1
    32   20   42 1
    33   21   22 1
    34   21   43 1
    35   22   23 ar
    36   22   31 ar
    37   23   24 ar
    38   23   44 1
    39   24   25 ar
    40   25   26 ar
    41   25   31 ar
    42   26   27 1
    43   26   28 ar
    44   27   45 1
    45   27   46 1
    46   28   29 ar
    47   28   48 1
    48   29   30 ar
    49   29   47 1
    50   30   31 ar
@<TRIPOS>SUBSTRUCTURE
     1 ATP         1 GROUP 0 A     ****
@<TRIPOS>MOLECULE
[[5-(6-amino-1,8-dihydropurine-6,8-diylium-7-id-9-yl)-3,4-dihydroxy-tetrahydrofuran-2-yl]methoxy-hydroxy-phosphoryl] phosphono hydrogen phosphate
   48    50     1     0     0
SMALL
USER_CHARGES

@<TRIPOS>ATOM
      1 PG          4.8629    5.0919   -4.9805 P.3       1 ATP         1.7931
      2 O1G         4.1223    6.3897   -5.1154 O.2       1 ATP        -0.8245
      3 O2G         5.7445    4.6626   -6.2652 O.3       1 ATP        -0.7758
      4 O3G         5.9203    5.0282   -3.7597 O.3       1 ATP        -0.7758
      5 PB          2.8877    3.4503   -3.5287 P.3       1 ATP         1.9416
      6 O1B         3.4929    3.3935   -2.1570 O.2       1 ATP        -0.8420
      7 O2B         1.7081    4.5413   -3.7052 O.3       1 ATP        -0.7993
      8 O3B         3.9228    3.8039   -4.7178 O.3       1 ATP        -0.7763
      9 PA          2.8837    0.6137   -4.3156 P.3       1 ATP         1.7989
     10 O1A         4.0005    0.5905   -5.3184 O.2       1 ATP        -0.8148
     11 O2A         1.6113   -0.3033   -4.7122 O.3       1 ATP        -0.8139
     12 O3A         2.2372    2.0724   -4.0624 O.3       1 ATP        -0.8202
     13 O5'         3.2876    0.1332   -2.8242 O.3       1 ATP        -0.5616
     14 C5'         2.2816   -0.2918   -1.9206 C.3       1 ATP         0.1639
     15 C4'         2.7248    0.0226   -0.4980 C.3       1 ATP         0.1354
     16 O4'         2.4697    1.4219   -0.2462 O.3       1 ATP        -0.4135
     17 C3'         1.9404   -0.7419    0.5596 C.3       1 ATP         0.0995
     18 O3'         2.7418   -0.8086    1.7389 O.3       1 ATP        -0.5734
     19 C2'         0.7477    0.1630    0.7858 C.3       1 ATP         0.0652
     20 O2'         0.1373   -0.0577    2.0407 O.3       1 ATP        -0.5780
     21 C1'         1.3733    1.5427    0.6747 C.3       1 ATP         0.4207
     22 N9          0.4520    2.5240    0.1767 N.pl3     1 ATP        -0.4600
     23 C8          0.0254    3.8246    0.8711 C.ar      1 ATP         0.1694
     24 N7         -0.8510    4.4823    0.0926 N.2       1 ATP        -0.2540
     25 C5         -0.9459    3.6446   -0.9871 C.ar      1 ATP        -0.1403
     26 C6         -1.8194    3.9411   -2.1575 C.ar      1 ATP         0.4951
     27 N6         -2.5417    5.0503   -2.1784 N.pl3     1 ATP        -0.8019
     28 N1         -1.7885    3.0154   -3.1193 N.pl3     1 ATP        -0.6941
     29 C2         -0.9657    1.8320   -3.0072 C.ar      1 ATP         0.6475
     30 N3         -0.1996    1.5571   -1.9975 N.ar      1 ATP        -0.5183
     31 C4         -0.2271    2.5000   -1.0115 C.ar      1 ATP         0.3000
     32 HOG2        5.2952    4.5302   -7.1269 H         1 ATP         0.4939
     33 HOG3        5.5951    5.1538   -2.8429 H         1 ATP         0.4939
     34 HOB2        0.9056    4.4673   -3.1460 H         1 ATP         0.5072
     35 HOA2        1.7421   -1.2674   -4.8367 H         1 ATP         0.5058
     36 H5'1        1.3495    0.2323   -2.1554 H         1 ATP         0.0543
     37 H5'2        2.1262   -1.3685   -2.0437 H         1 ATP         0.0543
     38 H4'         3.8046   -0.1390   -0.4012 H         1 ATP         0.1294
     39 H3'         1.6787   -1.7628    0.2719 H         1 ATP         0.0900
     40 HO3'        2.2231   -1.2979    2.3952 H         1 ATP         0.4260
     41 H2'         0.0002   -0.0084   -0.0014 H         1 ATP         0.0698
     42 HO2'       -0.6132    0.5577    2.1063 H         1 ATP         0.4288
     43 H1'         1.7718    1.9211    1.6015 H         1 ATP         0.1374
     44 H8          0.3188    4.2486    1.8365 H         1 ATP         0.2460
     45 HN61       -2.5015    5.6958   -1.4029 H         1 ATP         0.4865
     46 HN62       -3.1343    5.2540   -2.9703 H         1 ATP         0.4865
     47 H2         -1.0441    1.1612   -3.8764 H         1 ATP         0.1083
     48 H48        -2.3667    3.1698   -3.9401 H         1 ATP         0.4893
@<TRIPOS>BOND
     1    1    2 2
     2    1    3 1
     3    1    4 1
     4    1    8 1
     5    3   32 1
     6    4   33 1
     7    5    6 2
     8    5    7 1
     9    5    8 1
    10    5   12 1
    11    7   34 1
    12    9   10 2
    13    9   11 1
    14    9   12 1
    15    9   13 1
    16   11   35 1
    17   13   14 1
    18   14   15 1
    19   14   36 1
    20   14   37 1
    21   15   16 1
    22   15   17 1
    23   15   38 1
    24   16   21 1
    25   17   18 1
    26   17   19 1
    27   17   39 1
    28   18   40 1
    29   19   20 1
    30   19   21 1
    31   19   41 1
    32   20   42 1
    33   21   22 1
    34   21   43 1
    35   22   23 ar
    36   22   31 ar
    37   23   24 ar
    38   23   44 1
    39   24   25 ar
    40   25   26 ar
    41   25   31 ar
    42   26   27 1
    43   26   28 ar
    44   27   45 1
    45   27   46 1
    46   28   29 ar
    47   28   48 1
    48   29   30 ar
    49   29   47 1
    50   30   31 ar
@<TRIPOS>SUBSTRUCTURE
     1 ATP         1 GROUP 0 A     ****
@<TRIPOS>MOLECULE
[[5-(6-amino-1,8-dihydropurine-6,8-diylium-7-id-9-yl)-3,4-dihydroxy-tetrahydrofuran-2-yl]methoxy-hydroxy-phosphoryl] phosphono hydrogen phosphate
   48    50     1     0     0
SMALL
USER_CHARGES

@<TRIPOS>ATOM
      1 PG          5.1052   -0.8476   -7.3406 P.3       1 ATP         1.7931
      2 O1G         5.5651   -2.0466   -8.1165 O.2       1 ATP        -0.8245
      3 O2G         5.7724    0.5572   -7.7799 O.3       1 ATP        -0.7758
      4 O3G         3.5182   -0.5499   -7.4132 O.3       1 ATP        -0.7758
      5 PB          4.9041   -1.9662   -4.6181 P.3       1 ATP         1.9416
      6 O1B         5.3196   -3.3897   -4.8456 O.2       1 ATP        -0.8420
      7 O2B         5.4388   -1.3156   -3.2382 O.3       1 ATP        -0.7993
      8 O3B         5.3909   -0.9231   -5.7517 O.3       1 ATP        -0.7763
      9 PA          2.1468   -2.2811   -3.6362 P.3       1 ATP         1.7989
     10 O1A         1.9959   -3.7741   -3.6727 O.2       1 ATP        -0.8148
     11 O2A         0.8295   -1.4653   -4.1016 O.3       1 ATP        -0.8139
     12 O3A         3.3120   -1.6991   -4.5921 O.3       1 ATP        -0.8202
     13 O5'         2.5234   -1.6624   -2.1893 O.3       1 ATP        -0.5616
     14 C5'         2.2816   -0.2918   -1.9206 C.3       1 ATP         0.1639
     15 C4'         2.7248    0.0226   -0.4980 C.3       1 ATP         0.1354
     16 O4'         2.4697    1.4219   -0.2462 O.3       1 ATP        -0.4135
     17 C3'         1.9404   -0.7419    0.5596 C.3       1 ATP         0.0995
     18 O3'         2.7418   -0.8086    1.7389 O.3       1 ATP        -0.5734
     19 C2'         0.7477    0.1630    0.7858 C.3       1 ATP         0.0652
     20 O2'         0.1373   -0.0577    2.0407 O.3       1 ATP        -0.5780
     21 C1'         1.3733    1.5427    0.6747 C.3       1 ATP         0.4207
     22 N9          0.4520    2.5240    0.1767 N.pl3     1 ATP        -0.4600
     23 C8          0.0254    3.8246    0.8711 C.ar      1 ATP         0.1694
     24 N7         -0.8510    4.4823    0.0926 N.2       1 ATP        -0.2540
     25 C5         -0.9459    3.6446   -0.9871 C.ar      1 ATP        -0.1403
     26 C6         -1.8194    3.9411   -2.1575 C.ar      1 ATP         0.4951
     27 N6         -2.5417    5.0503   -2.1784 N.pl3     1 ATP        -0.8019
     28 N1         -1.7885    3.0154   -3.1193 N.pl3     1 ATP        -0.6941
     29 C2         -0.9657    1.8320   -3.0072 C.ar      1 ATP         0.6475
     30 N3         -0.1996    1.5571   -1.9975 N.ar      1 ATP        -0.5183
     31 C4         -0.2271    2.5000   -1.0115 C.ar      1 ATP         0.3000
     32 HOG2        5.6497    0.8744   -8.6999 H         1 ATP         0.4939
     33 HOG3        2.8918   -1.2324   -7.0909 H         1 ATP         0.4939
     34 HOB2        5.1790   -1.7281   -2.3870 H         1 ATP         0.5072
     35 HOA2       -0.0058   -1.5895   -3.6028 H         1 ATP         0.5058
     36 H5'1        2.8429    0.3147   -2.6388 H         1 ATP         0.0543
     37 H5'2        1.2125   -0.0898   -2.0417 H         1 ATP         0.0543
     38 H4'         3.8046   -0.1390   -0.4012 H         1 ATP         0.1294
     39 H3'         1.6787   -1.7628    0.2719 H         1 ATP         0.0900
     40 HO3'        2.2231   -1.2979    2.3952 H         1 ATP         0.4260
     41 H2'         0.0002   -0.0084   -0.0014 H         1 ATP         0.0698
     42 HO2'       -0.1554   -0.9852    2.0577 H         1 ATP         0.4288
     43 H1'         1.7718    1.9211    1.6015 H         1 ATP         0.1374
     44 H8          0.3188    4.2486    1.8365 H         1 ATP         0.2460
     45 HN61       -3.1347    5.2539   -2.9700 H         1 ATP         0.4865
     46 HN62       -2.5018    5.6955   -1.4026 H         1 ATP         0.4865
     47 H2         -1.0441    1.1612   -3.8764 H         1 ATP         0.1083
     48 H48        -2.3667    3.1698   -3.9401 H         1 ATP         0.4893
@<TRIPOS>BOND
     1    1    2 2
     2    1    3 1
     3    1    4 1
     4    1    8 1
     5    3   32 1
     6    4   33 1
     7    5    6 2
     8    5    7 1
     9    5    8 1
    10    5   12 1
    11    7   34 1
    12    9   10 2
    13    9   11 1
    14    9   12 1
    15    9   13 1
    16   11   35 1
    17   13   14 1
    18   14   15 1
    19   14   36 1
    20   14   37 1
    21   15   16 1
    22   15   17 1
    23   15   38 1
    24   16   21 1
    25   17   18 1
    26   17   19 1
    27   17   39 1
    28   18   40 1
    29   19   20 1
    30   19   21 1
    31   19   41 1
    32   20   42 1
    33   21   22 1
    34   21   43 1
    35   22   23 ar
    36   22   31 ar
    37   23   24 ar
    38   23   44 1
    39   24   25 ar
    40   25   26 ar
    41   25   31 ar
    42   26   27 1
    43   26   28 ar
    44   27   45 1
    45   27   46 1
    46   28   29 ar
    47   28   48 1
    48   29   30 ar
    49   29   47 1
    50   30   31 ar
@<TRIPOS>SUBSTRUCTURE
     1 ATP         1 GROUP 0 A     ****
@<TRIPOS>MOLECULE
[[5-(6-amino-1,8-dihydropurine-6,8-diylium-7-id-9-yl)-3,4-dihydroxy-tetrahydrofuran-2-yl]methoxy-hydroxy-phosphoryl] phosphono hydrogen phosphate
   48    50     1     0     0
SMALL
USER_CHARGES

@<TRIPOS>ATOM
      1 PG         -0.7455    3.0454   -4.7491 P.3       1 ATP         1.7931
      2 O1G        -2.0090    2.2747   -4.9952 O.2       1 ATP        -0.8245
      3 O2G        -0.8964    4.6537   -4.7987 O.3       1 ATP        -0.7758
      4 O3G        -0.0448    2.7768   -3.3174 O.3       1 ATP        -0.7758
      5 PB          1.2303    1.3826   -6.1757 P.3       1 ATP         1.9416
      6 O1B         0.3666    0.2762   -6.7057 O.2       1 ATP        -0.8420
      7 O2B         2.3963    1.8741   -7.1816 O.3       1 ATP        -0.7993
      8 O3B         0.4438    2.7431   -5.8008 O.3       1 ATP        -0.7763
      9 PA          3.0852   -0.0762   -4.4159 P.3       1 ATP         1.7989
     10 O1A         4.3456   -0.0389   -5.2303 O.2       1 ATP        -0.8148
     11 O2A         2.2470   -1.4538   -4.5457 O.3       1 ATP        -0.8139
     12 O3A         2.0050    1.0635   -4.7956 O.3       1 ATP        -0.8202
     13 O5'         3.2876    0.1332   -2.8242 O.3       1 ATP        -0.5616
     14 C5'         2.2816   -0.2918   -1.9206 C.3       1 ATP         0.1639
     15 C4'         2.7248    0.0226   -0.4980 C.3       1 ATP         0.1354
     16 O4'         2.4697    1.4219   -0.2462 O.3       1 ATP        -0.4135
     17 C3'         1.9404   -0.7419    0.5596 C.3       1 ATP         0.0995
     18 O3'         2.7418   -0.8086    1.7389 O.3       1 ATP        -0.5734
     19 C2'         0.7477    0.1630    0.7858 C.3       1 ATP         0.0652
     20 O2'         0.1373   -0.0577    2.0407 O.3       1 ATP        -0.5780
     21 C1'         1.3733    1.5427    0.6747 C.3       1 ATP         0.4207
     22 N9          0.4520    2.5240    0.1767 N.pl3     1 ATP        -0.4600
     23 C8         -0.7463    2.2774   -0.7501 C.ar      1 ATP         0.1694
     24 N7         -1.3714    3.4419   -0.9948 N.2       1 ATP        -0.2540
     25 C5         -0.6104    4.3223   -0.2723 C.ar      1 ATP        -0.1403
     26 C6         -0.9062    5.7820   -0.2194 C.ar      1 ATP         0.4951
     27 N6         -1.9385    6.2713   -0.8881 N.pl3     1 ATP        -0.8019
     28 N1         -0.0613    6.4906    0.5336 N.pl3     1 ATP        -0.6941
     29 C2          1.0416    5.8662    1.2291 C.ar      1 ATP         0.6475
     30 N3          1.3146    4.5989    1.1954 N.ar      1 ATP        -0.5183
     31 C4          0.4541    3.8697    0.4273 C.ar      1 ATP         0.3000
     32 HOG2       -1.5065    5.0933   -4.1690 H         1 ATP         0.4939
     33 HOG3        0.2450    1.8668   -3.0939 H         1 ATP         0.4939
     34 HOB2        3.0734    1.2280   -7.4752 H         1 ATP         0.5072
     35 HOA2        2.6751   -2.2959   -4.2818 H         1 ATP         0.5058
     36 H5'1        1.3495    0.2323   -2.1554 H         1 ATP         0.0543
     37 H5'2        2.1262   -1.3685   -2.0437 H         1 ATP         0.0543
     38 H4'         3.8046   -0.1390   -0.4012 H         1 ATP         0.1294
     39 H3'         1.6787   -1.7628    0.2719 H         1 ATP         0.0900
     40 HO3'        2.2231   -1.2979    2.3952 H         1 ATP         0.4260
     41 H2'         0.0002   -0.0084   -0.0014 H         1 ATP         0.0698
     42 HO2'       -0.6132    0.5577    2.1063 H         1 ATP         0.4288
     43 H1'         1.7718    1.9211    1.6015 H         1 ATP         0.1374
     44 H8         -1.1244    1.3534   -1.1987 H         1 ATP         0.2460
     45 HN61       -2.1414    7.2600   -0.8544 H         1 ATP         0.4865
     46 HN62       -2.5256    5.6572   -1.4340 H         1 ATP         0.4865
     47 H2          1.6509    6.5764    1.8088 H         1 ATP         0.1083
     48 H48        -0.2190    7.4917    0.6033 H         1 ATP         0.4893
@<TRIPOS>BOND
     1    1    2 2
     2    1    3 1
     3    1    4 1
     4    1    8 1
     5    3   32 1
     6    4   33 1
     7    5    6 2
     8    5    7 1
     9    5    8 1
    10    5   12 1
    11    7   34 1
    12    9   10 2
    13    9   11 1
    14    9   12 1
    15    9   13 1
    16   11   35 1
    17   13   14 1
    18   14   15 1
    19   14   36 1
    20   14   37 1
    21   15   16 1
    22   15   17 1
    23   15   38 1
    24   16   21 1
    25   17   18 1
    26   17   19 1
    27   17   39 1
    28   18   40 1
    29   19   20 1
    30   19   21 1
    31   19   41 1
    32   20   42 1
    33   21   22 1
    34   21   43 1
    35   22   23 ar
    36   22   31 ar
    37   23   24 ar
    38   23   44 1
    39   24   25 ar
    40   25   26 ar
    41   25   31 ar
    42   26   27 1
    43   26   28 ar
    44   27   45 1
    45   27   46 1
    46   28   29 ar
    47   28   48 1
    48   29   30 ar
    49   29   47 1
    50   30   31 ar
@<TRIPOS>SUBSTRUCTURE
     1 ATP         1 GROUP 0 A     ****
@<TRIPOS>MOLECULE
[[5-(6-amino-1,8-dihydropurine-6,8-diylium-7-id-9-yl)-3,4-dihydroxy-tetrahydrofuran-2-yl]methoxy-hydroxy-phosphoryl] phosphono hydrogen phosphate
   48    50     1     0     0
SMALL
USER_CHARGES

@<TRIPOS>ATOM
      1 PG         -0.2874    2.8999   -6.4891 P.3       1 ATP         1.7931
      2 O1G        -0.4859    1.4715   -6.9028 O.2       1 ATP        -0.8245
      3 O2G         0.4670    3.8341   -7.5707 O.3       1 ATP        -0.7758
      4 O3G        -1.6446    3.7167   -6.1674 O.3       1 ATP        -0.7758
      5 PB          2.1000    2.6750   -4.7704 P.3       1 ATP         1.9416
      6 O1B         3.1596    3.2763   -5.6461 O.2       1 ATP        -0.8420
      7 O2B         2.2285    3.0412   -3.2012 O.3       1 ATP        -0.7993
      8 O3B         0.5856    3.0965   -5.1433 O.3       1 ATP        -0.7763
      9 PA          3.0852   -0.0762   -4.4159 P.3       1 ATP         1.7989
     10 O1A         4.3456   -0.0389   -5.2303 O.2       1 ATP        -0.8148
     11 O2A         2.2470   -1.4538   -4.5457 O.3       1 ATP        -0.8139
     12 O3A         2.0050    1.0635   -4.7956 O.3       1 ATP        -0.8202
     13 O5'         3.2876    0.1332   -2.8242 O.3       1 ATP        -0.5616
     14 C5'         2.2816   -0.2918   -1.9206 C.3       1 ATP         0.1639
     15 C4'         2.7248    0.0226   -0.4980 C.3       1 ATP         0.1354
     16 O4'         2.4697    1.4219   -0.2462 O.3       1 ATP        -0.4135
     17 C3'         1.9404   -0.7419    0.5596 C.3       1 ATP         0.0995
     18 O3'         2.7418   -0.8086    1.7389 O.3       1 ATP        -0.5734
     19 C2'         0.7477    0.1630    0.7858 C.3       1 ATP         0.0652
     20 O2'         0.1373   -0.0577    2.0407 O.3       1 ATP        -0.5780
     21 C1'         1.3733    1.5427    0.6747 C.3       1 ATP         0.4207
     22 N9          0.4520    2.5240    0.1767 N.pl3     1 ATP        -0.4600
     23 C8          0.0254    3.8246    0.8711 C.ar      1 ATP         0.1694
     24 N7         -0.8510    4.4823    0.0926 N.2       1 ATP        -0.2540
     25 C5         -0.9459    3.6446   -0.9871 C.ar      1 ATP        -0.1403
     26 C6         -1.8194    3.9411   -2.1575 C.ar      1 ATP         0.4951
     27 N6         -2.5417    5.0503   -2.1784 N.pl3     1 ATP        -0.8019
     28 N1         -1.7885    3.0154   -3.1193 N.pl3     1 ATP        -0.6941
     29 C2         -0.9657    1.8320   -3.0072 C.ar      1 ATP         0.6475
     30 N3         -0.1996    1.5571   -1.9975 N.ar      1 ATP        -0.5183
     31 C4         -0.2271    2.5000   -1.0115 C.ar      1 ATP         0.3000
     32 HOG2        1.3756    3.5955   -7.8529 H         1 ATP         0.4939
     33 HOG3       -2.3163    3.8189   -6.8748 H         1 ATP         0.4939
     34 HOB2        3.0429    2.7836   -2.7189 H         1 ATP         0.5072
     35 HOA2        2.6751   -2.2959   -4.2818 H         1 ATP         0.5058
     36 H5'1        1.3495    0.2323   -2.1554 H         1 ATP         0.0543
     37 H5'2        2.1262   -1.3685   -2.0437 H         1 ATP         0.0543
     38 H4'         3.8046   -0.1390   -0.4012 H         1 ATP         0.1294
     39 H3'         1.6787   -1.7628    0.2719 H         1 ATP         0.0900
     40 HO3'        2.2231   -1.2979    2.3952 H         1 ATP         0.4260
     41 H2'         0.0002   -0.0084   -0.0014 H         1 ATP         0.0698
     42 HO2'       -0.6132    0.5577    2.1063 H         1 ATP         0.4288
     43 H1'         1.7718    1.9211    1.6015 H         1 ATP         0.1374
     44 H8          0.3188    4.2486    1.8365 H         1 ATP         0.2460
     45 HN61       -3.1347    5.2539   -2.9700 H         1 ATP         0.4865
     46 HN62       -2.5018    5.6955   -1.4026 H         1 ATP         0.4865
     47 H2         -1.0441    1.1612   -3.8764 H         1 ATP         0.1083
     48 H48        -2.3667    3.1698   -3.9401 H         1 ATP         0.4893
@<TRIPOS>BOND
     1    1    2 2
     2    1    3 1
     3    1    4 1
     4    1    8 1
     5    3   32 1
     6    4   33 1
     7    5    6 2
     8    5    7 1
     9    5    8 1
    10    5   12 1
    11    7   34 1
    12    9   10 2
    13    9   11 1
    14    9   12 1
    15    9   13 1
    16   11   35 1
    17   13   14 1
    18   14   15 1
    19   14   36 1
    20   14   37 1
    21   15   16 1
    22   15   17 1
    23   15   38 1
    24   16   21 1
    25   17   18 1
    26   17   19 1
    27   17   39 1
    28   18   40 1
    29   19   20 1
    30   19   21 1
    31   19   41 1
    32   20   42 1
    33   21   22 1
    34   21   43 1
    35   22   23 ar
    36   22   31 ar
    37   23   24 ar
    38   23   44 1
    39   24   25 ar
    40   25   26 ar
    41   25   31 ar
    42   26   27 1
    43   26   28 ar
    44   27   45 1
    45   27   46 1
    46   28   29 ar
    47   28   48 1
    48   29   30 ar
    49   29   47 1
    50   30   31 ar
@<TRIPOS>SUBSTRUCTURE
     1 ATP         1 GROUP 0 A     ****
@<TRIPOS>MOLECULE
[[5-(6-amino-1,8-dihydropurine-6,8-diylium-7-id-9-yl)-3,4-dihydroxy-tetrahydrofuran-2-yl]methoxy-hydroxy-phosphoryl] phosphono hydrogen phosphate
   48    50     1     0     0
SMALL
USER_CHARGES

@<TRIPOS>ATOM
      1 PG          7.3899    0.5024   -5.8855 P.3       1 ATP         1.7931
      2 O1G         7.0620    1.2844   -7.1233 O.2       1 ATP        -0.8245
      3 O2G         8.2824   -0.8239   -6.1225 O.3       1 ATP        -0.7758
      4 O3G         8.2150    1.3151   -4.7580 O.3       1 ATP        -0.7758
      5 PB          4.9029   -1.0376   -5.5018 P.3       1 ATP         1.9416
      6 O1B         4.0761   -0.5691   -6.6628 O.2       1 ATP        -0.8420
      7 O2B         5.6367   -2.4611   -5.7222 O.3       1 ATP        -0.7993
      8 O3B         6.1040   -0.0453   -5.0742 O.3       1 ATP        -0.7763
      9 PA          2.8567   -2.1438   -3.6977 P.3       1 ATP         1.7989
     10 O1A         3.0944   -3.6170   -3.8601 O.2       1 ATP        -0.8148
     11 O2A         1.6417   -1.5609   -4.5928 O.3       1 ATP        -0.8139
     12 O3A         4.1111   -1.2111   -4.1056 O.3       1 ATP        -0.8202
     13 O5'         2.5234   -1.6624   -2.1893 O.3       1 ATP        -0.5616
     14 C5'         2.2816   -0.2918   -1.9206 C.3       1 ATP         0.1639
     15 C4'         2.7248    0.0226   -0.4980 C.3       1 ATP         0.1354
     16 O4'         2.4697    1.4219   -0.2462 O.3       1 ATP        -0.4135
     17 C3'         1.9404   -0.7419    0.5596 C.3       1 ATP         0.0995
     18 O3'         2.7418   -0.8086    1.7389 O.3       1 ATP        -0.5734
     19 C2'         0.7477    0.1630    0.7858 C.3       1 ATP         0.0652
     20 O2'         0.1373   -0.0577    2.0407 O.3       1 ATP        -0.5780
     21 C1'         1.3733    1.5427    0.6747 C.3       1 ATP         0.4207
     22 N9          0.4520    2.5240    0.1767 N.pl3     1 ATP        -0.4600
     23 C8          0.0254    3.8246    0.8711 C.ar      1 ATP         0.1694
     24 N7         -0.8510    4.4823    0.0926 N.2       1 ATP        -0.2540
     25 C5         -0.9459    3.6446   -0.9871 C.ar      1 ATP        -0.1403
     26 C6         -1.8194    3.9411   -2.1575 C.ar      1 ATP         0.4951
     27 N6         -2.5417    5.0503   -2.1784 N.pl3     1 ATP        -0.8019
     28 N1         -1.7885    3.0154   -3.1193 N.pl3     1 ATP        -0.6941
     29 C2         -0.9657    1.8320   -3.0072 C.ar      1 ATP         0.6475
     30 N3         -0.1996    1.5571   -1.9975 N.ar      1 ATP        -0.5183
     31 C4         -0.2271    2.5000   -1.0115 C.ar      1 ATP         0.3000
     32 HOG2        9.1724   -0.7322   -6.5242 H         1 ATP         0.4939
     33 HOG3        9.0957    1.6817   -4.9861 H         1 ATP         0.4939
     34 HOB2        6.2745   -2.5570   -6.4611 H         1 ATP         0.5072
     35 HOA2        0.7391   -1.9204   -4.4587 H         1 ATP         0.5058
     36 H5'1        2.8429    0.3147   -2.6388 H         1 ATP         0.0543
     37 H5'2        1.2125   -0.0898   -2.0417 H         1 ATP         0.0543
     38 H4'         3.8046   -0.1390   -0.4012 H         1 ATP         0.1294
     39 H3'         1.6787   -1.7628    0.2719 H         1 ATP         0.0900
     40 HO3'        2.2231   -1.2979    2.3952 H         1 ATP         0.4260
     41 H2'         0.0002   -0.0084   -0.0014 H         1 ATP         0.0698
     42 HO2'       -0.6132    0.5577    2.1063 H         1 ATP         0.4288
     43 H1'         1.7718    1.9211    1.6015 H         1 ATP         0.1374
     44 H8          0.3188    4.2486    1.8365 H         1 ATP         0.2460
     45 HN61       -3.1347    5.2539   -2.9700 H         1 ATP         0.4865
     46 HN62       -2.5018    5.6955   -1.4026 H         1 ATP         0.4865
     47 H2         -1.0441    1.1612   -3.8764 H         1 ATP         0.1083
     48 H48        -2.3667    3.1698   -3.9401 H         1 ATP         0.4893
@<TRIPOS>BOND
     1    1    2 2
     2    1    3 1
     3    1    4 1
     4    1    8 1
     5    3   32 1
     6    4   33 1
     7    5    6 2
     8    5    7 1
     9    5    8 1
    10    5   12 1
    11    7   34 1
    12    9   10 2
    13    9   11 1
    14    9   12 1
    15    9   13 1
    16   11   35 1
    17   13   14 1
    18   14   15 1
    19   14   36 1
    20   14   37 1
    21   15   16 1
    22   15   17 1
    23   15   38 1
    24   16   21 1
    25   17   18 1
    26   17   19 1
    27   17   39 1
    28   18   40 1
    29   19   20 1
    30   19   21 1
    31   19   41 1
    32   20   42 1
    33   21   22 1
    34   21   43 1
    35   22   23 ar
    36   22   31 ar
    37   23   24 ar
    38   23   44 1
    39   24   25 ar
    40   25   26 ar
    41   25   31 ar
    42   26   27 1
    43   26   28 ar
    44   27   45 1
    45   27   46 1
    46   28   29 ar
    47   28   48 1
    48   29   30 ar
    49   29   47 1
    50   30   31 ar
@<TRIPOS>SUBSTRUCTURE
     1 ATP         1 GROUP 0 A     ****
@<TRIPOS>MOLECULE
[[5-(6-amino-1,8-dihydropurine-6,8-diylium-7-id-9-yl)-3,4-dihydroxy-tetrahydrofuran-2-yl]methoxy-hydroxy-phosphoryl] phosphono hydrogen phosphate
   48    50     1     0     0
SMALL
USER_CHARGES

@<TRIPOS>ATOM
      1 PG          3.7731    4.3243   -6.5549 P.3       1 ATP         1.7931
      2 O1G         4.4058    5.2672   -5.5743 O.2       1 ATP        -0.8245
      3 O2G         2.4987    4.9130   -7.3557 O.3       1 ATP        -0.7758
      4 O3G         4.7490    3.8011   -7.7324 O.3       1 ATP        -0.7758
      5 PB          2.1000    2.6750   -4.7704 P.3       1 ATP         1.9416
      6 O1B         2.3926    3.2870   -3.4322 O.2       1 ATP        -0.8420
      7 O2B         0.7193    3.1653   -5.4533 O.3       1 ATP        -0.7993
      8 O3B         3.2140    2.9534   -5.9070 O.3       1 ATP        -0.7763
      9 PA          3.0852   -0.0762   -4.4159 P.3       1 ATP         1.7989
     10 O1A         4.3456   -0.0389   -5.2303 O.2       1 ATP        -0.8148
     11 O2A         2.2470   -1.4538   -4.5457 O.3       1 ATP        -0.8139
     12 O3A         2.0050    1.0635   -4.7956 O.3       1 ATP        -0.8202
     13 O5'         3.2876    0.1332   -2.8242 O.3       1 ATP        -0.5616
     14 C5'         2.2816   -0.2918   -1.9206 C.3       1 ATP         0.1639
     15 C4'         2.7248    0.0226   -0.4980 C.3       1 ATP         0.1354
     16 O4'         2.4697    1.4219   -0.2462 O.3       1 ATP        -0.4135
     17 C3'         1.9404   -0.7419    0.5596 C.3       1 ATP         0.0995
     18 O3'         2.7418   -0.8086    1.7389 O.3       1 ATP        -0.5734
     19 C2'         0.7477    0.1630    0.7858 C.3       1 ATP         0.0652
     20 O2'         0.1373   -0.0577    2.0407 O.3       1 ATP        -0.5780
     21 C1'         1.3733    1.5427    0.6747 C.3       1 ATP         0.4207
     22 N9          0.4520    2.5240    0.1767 N.pl3     1 ATP        -0.4600
     23 C8          0.0254    3.8246    0.8711 C.ar      1 ATP         0.1694
     24 N7         -0.8510    4.4823    0.0926 N.2       1 ATP        -0.2540
     25 C5         -0.9459    3.6446   -0.9871 C.ar      1 ATP        -0.1403
     26 C6         -1.8194    3.9411   -2.1575 C.ar      1 ATP         0.4951
     27 N6         -2.5417    5.0503   -2.1784 N.pl3     1 ATP        -0.8019
     28 N1         -1.7885    3.0154   -3.1193 N.pl3     1 ATP        -0.6941
     29 C2         -0.9657    1.8320   -3.0072 C.ar      1 ATP         0.6475
     30 N3         -0.1996    1.5571   -1.9975 N.ar      1 ATP        -0.5183
     31 C4         -0.2271    2.5000   -1.0115 C.ar      1 ATP         0.3000
     32 HOG2        2.6160    5.7101   -7.9151 H         1 ATP         0.4939
     33 HOG3        5.1551    4.4564   -8.3388 H         1 ATP         0.4939
     34 HOB2        0.5992    4.1188   -5.6497 H         1 ATP         0.5072
     35 HOA2        2.6751   -2.2959   -4.2818 H         1 ATP         0.5058
     36 H5'1        1.3495    0.2323   -2.1554 H         1 ATP         0.0543
     37 H5'2        2.1262   -1.3685   -2.0437 H         1 ATP         0.0543
     38 H4'         3.8046   -0.1390   -0.4012 H         1 ATP         0.1294
     39 H3'         1.6787   -1.7628    0.2719 H         1 ATP         0.0900
     40 HO3'        2.2231   -1.2979    2.3952 H         1 ATP         0.4260
     41 H2'         0.0002   -0.0084   -0.0014 H         1 ATP         0.0698
     42 HO2'       -0.6132    0.5577    2.1063 H         1 ATP         0.4288
     43 H1'         1.7718    1.9211    1.6015 H         1 ATP         0.1374
     44 H8          0.3188    4.2486    1.8365 H         1 ATP         0.2460
     45 HN61       -3.1347    5.2539   -2.9700 H         1 ATP         0.4865
     46 HN62       -2.5018    5.6955   -1.4026 H         1 ATP         0.4865
     47 H2         -1.0441    1.1612   -3.8764 H         1 ATP         0.1083
     48 H48        -2.3667    3.1698   -3.9401 H         1 ATP         0.4893
@<TRIPOS>BOND
     1    1    2 2
     2    1    3 1
     3    1    4 1
     4    1    8 1
     5    3   32 1
     6    4   33 1
     7    5    6 2
     8    5    7 1
     9    5    8 1
    10    5   12 1
    11    7   34 1
    12    9   10 2
    13    9   11 1
    14    9   12 1
    15    9   13 1
    16   11   35 1
    17   13   14 1
    18   14   15 1
    19   14   36 1
    20   14   37 1
    21   15   16 1
    22   15   17 1
    23   15   38 1
    24   16   21 1
    25   17   18 1
    26   17   19 1
    27   17   39 1
    28   18   40 1
    29   19   20 1
    30   19   21 1
    31   19   41 1
    32   20   42 1
    33   21   22 1
    34   21   43 1
    35   22   23 ar
    36   22   31 ar
    37   23   24 ar
    38   23   44 1
    39   24   25 ar
    40   25   26 ar
    41   25   31 ar
    42   26   27 1
    43   26   28 ar
    44   27   45 1
    45   27   46 1
    46   28   29 ar
    47   28   48 1
    48   29   30 ar
    49   29   47 1
    50   30   31 ar
@<TRIPOS>SUBSTRUCTURE
     1 ATP         1 GROUP 0 A     ****
@<TRIPOS>MOLECULE
[[5-(6-amino-1,8-dihydropurine-6,8-diylium-7-id-9-yl)-3,4-dihydroxy-tetrahydrofuran-2-yl]methoxy-hydroxy-phosphoryl] phosphono hydrogen phosphate
   48    50     1     0     0
SMALL
USER_CHARGES

@<TRIPOS>ATOM
      1 PG         -0.2874    2.8999   -6.4891 P.3       1 ATP         1.7931
      2 O1G        -0.4859    1.4715   -6.9028 O.2       1 ATP        -0.8245
      3 O2G         0.4670    3.8341   -7.5707 O.3       1 ATP        -0.7758
      4 O3G        -1.6446    3.7167   -6.1674 O.3       1 ATP        -0.7758
      5 PB          2.1000    2.6750   -4.7704 P.3       1 ATP         1.9416
      6 O1B         3.1596    3.2763   -5.6461 O.2       1 ATP        -0.8420
      7 O2B         2.2285    3.0412   -3.2012 O.3       1 ATP        -0.7993
      8 O3B         0.5856    3.0965   -5.1433 O.3       1 ATP        -0.7763
      9 PA          3.0852   -0.0762   -4.4159 P.3       1 ATP         1.7989
     10 O1A         4.3456   -0.0389   -5.2303 O.2       1 ATP        -0.8148
     11 O2A         2.2470   -1.4538   -4.5457 O.3       1 ATP        -0.8139
     12 O3A         2.0050    1.0635   -4.7956 O.3       1 ATP        -0.8202
     13 O5'         3.2876    0.1332   -2.8242 O.3       1 ATP        -0.5616
     14 C5'         2.2816   -0.2918   -1.9206 C.3       1 ATP         0.1639
     15 C4'         2.7248    0.0226   -0.4980 C.3       1 ATP         0.1354
     16 O4'         2.4697    1.4219   -0.2462 O.3       1 ATP        -0.4135
     17 C3'         1.9404   -0.7419    0.5596 C.3       1 ATP         0.0995
     18 O3'         2.7418   -0.8086    1.7389 O.3       1 ATP        -0.5734
     19 C2'         0.7477    0.1630    0.7858 C.3       1 ATP         0.0652
     20 O2'         0.1373   -0.0577    2.0407 O.3       1 ATP        -0.5780
     21 C1'         1.3733    1.5427    0.6747 C.3       1 ATP         0.4207
     22 N9          0.4520    2.5240    0.1767 N.pl3     1 ATP        -0.4600
     23 C8          0.1798    2.8712   -1.2933 C.ar      1 ATP         0.1694
     24 N7         -0.7494    3.8400   -1.3610 N.2       1 ATP        -0.2540
     25 C5         -1.0173    4.0603   -0.0358 C.ar      1 ATP        -0.1403
     26 C6         -2.0105    5.0717    0.4241 C.ar      1 ATP         0.4951
     27 N6         -2.6723    5.7982   -0.4628 N.pl3     1 ATP        -0.8019
     28 N1         -2.1445    5.1522    1.7502 N.pl3     1 ATP        -0.6941
     29 C2         -1.3755    4.3143    2.6427 C.ar      1 ATP         0.6475
     30 N3         -0.5075    3.4292    2.2616 N.ar      1 ATP        -0.5183
     31 C4         -0.3667    3.3425    0.9070 C.ar      1 ATP         0.3000
     32 HOG2        0.0659    3.9528   -8.4578 H         1 ATP         0.4939
     33 HOG3       -2.3163    3.8189   -6.8748 H         1 ATP         0.4939
     34 HOB2        3.0429    2.7836   -2.7189 H         1 ATP         0.5072
     35 HOA2        1.9175   -1.7270   -5.4282 H         1 ATP         0.5058
     36 H5'1        1.3495    0.2323   -2.1554 H         1 ATP         0.0543
     37 H5'2        2.1262   -1.3685   -2.0437 H         1 ATP         0.0543
     38 H4'         3.8046   -0.1390   -0.4012 H         1 ATP         0.1294
     39 H3'         1.6787   -1.7628    0.2719 H         1 ATP         0.0900
     40 HO3'        3.5553   -1.2733    1.4913 H         1 ATP         0.4260
     41 H2'         0.0002   -0.0084   -0.0014 H         1 ATP         0.0698
     42 HO2'        0.8091    0.1203    2.7213 H         1 ATP         0.4288
     43 H1'         1.7718    1.9211    1.6015 H         1 ATP         0.1374
     44 H8          0.6089    2.4651   -2.2147 H         1 ATP         0.2460
     45 HN61       -2.5055    5.6680   -1.4503 H         1 ATP         0.4865
     46 HN62       -3.3462    6.4841   -0.1542 H         1 ATP         0.4865
     47 H2         -1.5932    4.4937    3.7066 H         1 ATP         0.1083
     48 H48        -2.8098    5.8270    2.1160 H         1 ATP         0.4893
@<TRIPOS>BOND
     1    1    2 2
     2    1    3 1
     3    1    4 1
     4    1    8 1
     5    3   32 1
     6    4   33 1
     7    5    6 2
     8    5    7 1
     9    5    8 1
    10    5   12 1
    11    7   34 1
    12    9   10 2
    13    9   11 1
    14    9   12 1
    15    9   13 1
    16   11   35 1
    17   13   14 1
    18   14   15 1
    19   14   36 1
    20   14   37 1
    21   15   16 1
    22   15   17 1
    23   15   38 1
    24   16   21 1
    25   17   18 1
    26   17   19 1
    27   17   39 1
    28   18   40 1
    29   19   20 1
    30   19   21 1
    31   19   41 1
    32   20   42 1
    33   21   22 1
    34   21   43 1
    35   22   23 ar
    36   22   31 ar
    37   23   24 ar
    38   23   44 1
    39   24   25 ar
    40   25   26 ar
    41   25   31 ar
    42   26   27 1
    43   26   28 ar
    44   27   45 1
    45   27   46 1
    46   28   29 ar
    47   28   48 1
    48   29   30 ar
    49   29   47 1
    50   30   31 ar
@<TRIPOS>SUBSTRUCTURE
     1 ATP         1 GROUP 0 A     ****
@<TRIPOS>MOLECULE
[[5-(6-amino-1,8-dihydropurine-6,8-diylium-7-id-9-yl)-3,4-dihydroxy-tetrahydrofuran-2-yl]methoxy-hydroxy-phosphoryl] phosphono hydrogen phosphate
   48    50     1     0     0
SMALL
USER_CHARGES

@<TRIPOS>ATOM
      1 PG         -0.8436    4.9084   -4.2946 P.3       1 ATP         1.7931
      2 O1G        -2.1302    4.5614   -4.9841 O.2       1 ATP        -0.8245
      3 O2G         0.0930    5.9706   -5.0732 O.3       1 ATP        -0.7758
      4 O3G        -1.0063    5.5573   -2.8232 O.3       1 ATP        -0.7758
      5 PB          0.8496    2.6123   -5.0460 P.3       1 ATP         1.9416
      6 O1B        -0.0934    1.8053   -5.8888 O.2       1 ATP        -0.8420
      7 O2B         1.8892    3.5283   -5.8787 O.3       1 ATP        -0.7993
      8 O3B         0.1410    3.6536   -4.0342 O.3       1 ATP        -0.7763
      9 PA          2.8837    0.6137   -4.3156 P.3       1 ATP         1.7989
     10 O1A         4.0327    1.0410   -5.1820 O.2       1 ATP        -0.8148
     11 O2A         2.0112   -0.6079   -4.9186 O.3       1 ATP        -0.8139
     12 O3A         1.7852    1.7655   -4.0389 O.3       1 ATP        -0.8202
     13 O5'         3.2876    0.1332   -2.8242 O.3       1 ATP        -0.5616
     14 C5'         2.2816   -0.2918   -1.9206 C.3       1 ATP         0.1639
     15 C4'         2.7248    0.0226   -0.4980 C.3       1 ATP         0.1354
     16 O4'         2.4697    1.4219   -0.2462 O.3       1 ATP        -0.4135
     17 C3'         1.9404   -0.7419    0.5596 C.3       1 ATP         0.0995
     18 O3'         2.7418   -0.8086    1.7389 O.3       1 ATP        -0.5734
     19 C2'         0.7477    0.1630    0.7858 C.3       1 ATP         0.0652
     20 O2'         0.1373   -0.0577    2.0407 O.3       1 ATP        -0.5780
     21 C1'         1.3733    1.5427    0.6747 C.3       1 ATP         0.4207
     22 N9          0.4520    2.5240    0.1767 N.pl3     1 ATP        -0.4600
     23 C8         -0.3054    2.4845   -1.1576 C.ar      1 ATP         0.1694
     24 N7         -1.0755    3.5806   -1.2691 N.2       1 ATP        -0.2540
     25 C5         -0.8043    4.2306   -0.0942 C.ar      1 ATP        -0.1403
     26 C6         -1.4324    5.5335    0.2646 C.ar      1 ATP         0.4951
     27 N6         -2.2885    6.1055   -0.5675 N.pl3     1 ATP        -0.8019
     28 N1         -1.0537    6.0229    1.4478 N.pl3     1 ATP        -0.6941
     29 C2         -0.1096    5.3242    2.2908 C.ar      1 ATP         0.6475
     30 N3          0.4468    4.1904    1.9960 N.ar      1 ATP        -0.5183
     31 C4          0.0631    3.6855    0.7877 C.ar      1 ATP         0.3000
     32 HOG2       -0.2610    6.8651   -5.2649 H         1 ATP         0.4939
     33 HOG3       -1.5022    6.3981   -2.7272 H         1 ATP         0.4939
     34 HOB2        1.5373    4.2164   -6.4826 H         1 ATP         0.5072
     35 HOA2        2.4537   -1.4656   -5.0933 H         1 ATP         0.5058
     36 H5'1        1.3495    0.2323   -2.1554 H         1 ATP         0.0543
     37 H5'2        2.1262   -1.3685   -2.0437 H         1 ATP         0.0543
     38 H4'         3.8046   -0.1390   -0.4012 H         1 ATP         0.1294
     39 H3'         1.6787   -1.7628    0.2719 H         1 ATP         0.0900
     40 HO3'        3.5553   -1.2733    1.4913 H         1 ATP         0.4260
     41 H2'         0.0002   -0.0084   -0.0014 H         1 ATP         0.0698
     42 HO2'       -0.6132    0.5577    2.1063 H         1 ATP         0.4288
     43 H1'         1.7718    1.9211    1.6015 H         1 ATP         0.1374
     44 H8         -0.2991    1.7413   -1.9611 H         1 ATP         0.2460
     45 HN61       -2.5167    5.6603   -1.4447 H         1 ATP         0.4865
     46 HN62       -2.7159    6.9882   -0.3270 H         1 ATP         0.4865
     47 H2          0.1059    5.8491    3.2340 H         1 ATP         0.1083
     48 H48        -1.4532    6.9099    1.7401 H         1 ATP         0.4893
@<TRIPOS>BOND
     1    1    2 2
     2    1    3 1
     3    1    4 1
     4    1    8 1
     5    3   32 1
     6    4   33 1
     7    5    6 2
     8    5    7 1
     9    5    8 1
    10    5   12 1
    11    7   34 1
    12    9   10 2
    13    9   11 1
    14    9   12 1
    15    9   13 1
    16   11   35 1
    17   13   14 1
    18   14   15 1
    19   14   36 1
    20   14   37 1
    21   15   16 1
    22   15   17 1
    23   15   38 1
    24   16   21 1
    25   17   18 1
    26   17   19 1
    27   17   39 1
    28   18   40 1
    29   19   20 1
    30   19   21 1
    31   19   41 1
    32   20   42 1
    33   21   22 1
    34   21   43 1
    35   22   23 ar
    36   22   31 ar
    37   23   24 ar
    38   23   44 1
    39   24   25 ar
    40   25   26 ar
    41   25   31 ar
    42   26   27 1
    43   26   28 ar
    44   27   45 1
    45   27   46 1
    46   28   29 ar
    47   28   48 1
    48   29   30 ar
    49   29   47 1
    50   30   31 ar
@<TRIPOS>SUBSTRUCTURE
     1 ATP         1 GROUP 0 A     ****
@<TRIPOS>MOLECULE
[[5-(6-amino-1,8-dihydropurine-6,8-diylium-7-id-9-yl)-3,4-dihydroxy-tetrahydrofuran-2-yl]methoxy-hydroxy-phosphoryl] phosphono hydrogen phosphate
   48    50     1     0     0
SMALL
USER_CHARGES

@<TRIPOS>ATOM
      1 PG          3.7731    4.3243   -6.5549 P.3       1 ATP         1.7931
      2 O1G         2.7335    5.1624   -7.2391 O.2       1 ATP        -0.8245
      3 O2G         4.9911    3.8306   -7.4953 O.3       1 ATP        -0.7758
      4 O3G         4.5216    5.0375   -5.3125 O.3       1 ATP        -0.7758
      5 PB          2.1000    2.6750   -4.7704 P.3       1 ATP         1.9416
      6 O1B         2.3926    3.2870   -3.4322 O.2       1 ATP        -0.8420
      7 O2B         0.7193    3.1653   -5.4533 O.3       1 ATP        -0.7993
      8 O3B         3.2140    2.9534   -5.9070 O.3       1 ATP        -0.7763
      9 PA          3.0852   -0.0762   -4.4159 P.3       1 ATP         1.7989
     10 O1A         4.3456   -0.0389   -5.2303 O.2       1 ATP        -0.8148
     11 O2A         2.2470   -1.4538   -4.5457 O.3       1 ATP        -0.8139
     12 O3A         2.0050    1.0635   -4.7956 O.3       1 ATP        -0.8202
     13 O5'         3.2876    0.1332   -2.8242 O.3       1 ATP        -0.5616
     14 C5'         2.2816   -0.2918   -1.9206 C.3       1 ATP         0.1639
     15 C4'         2.7248    0.0226   -0.4980 C.3       1 ATP         0.1354
     16 O4'         2.4697    1.4219   -0.2462 O.3       1 ATP        -0.4135
     17 C3'         1.9404   -0.7419    0.5596 C.3       1 ATP         0.0995
     18 O3'         2.7418   -0.8086    1.7389 O.3       1 ATP        -0.5734
     19 C2'         0.7477    0.1630    0.7858 C.3       1 ATP         0.0652
     20 O2'         0.1373   -0.0577    2.0407 O.3       1 ATP        -0.5780
     21 C1'         1.3733    1.5427    0.6747 C.3       1 ATP         0.4207
     22 N9          0.4520    2.5240    0.1767 N.pl3     1 ATP        -0.4600
     23 C8          0.5793    3.3338   -1.1209 C.ar      1 ATP         0.1694
     24 N7         -0.4807    4.1508   -1.2458 N.2       1 ATP        -0.2540
     25 C5         -1.1921    3.8572   -0.1126 C.ar      1 ATP        -0.1403
     26 C6         -2.4855    4.5203    0.2163 C.ar      1 ATP         0.4951
     27 N6         -2.9873    5.4319   -0.6020 N.pl3     1 ATP        -0.8019
     28 N1         -3.0414    4.1119    1.3596 N.pl3     1 ATP        -0.6941
     29 C2         -2.4169    3.1071    2.1904 C.ar      1 ATP         0.6475
     30 N3         -1.2928    2.5191    1.9210 N.ar      1 ATP        -0.5183
     31 C4         -0.7202    2.9326    0.7534 C.ar      1 ATP         0.3000
     32 HOG2        5.5550    4.5025   -7.9342 H         1 ATP         0.4939
     33 HOG3        3.9886    5.3368   -4.5454 H         1 ATP         0.4939
     34 HOB2       -0.1261    3.0058   -4.9822 H         1 ATP         0.5072
     35 HOA2        2.6751   -2.2959   -4.2818 H         1 ATP         0.5058
     36 H5'1        1.3495    0.2323   -2.1554 H         1 ATP         0.0543
     37 H5'2        2.1262   -1.3685   -2.0437 H         1 ATP         0.0543
     38 H4'         3.8046   -0.1390   -0.4012 H         1 ATP         0.1294
     39 H3'         1.6787   -1.7628    0.2719 H         1 ATP         0.0900
     40 HO3'        2.2231   -1.2979    2.3952 H         1 ATP         0.4260
     41 H2'         0.0002   -0.0084   -0.0014 H         1 ATP         0.0698
     42 HO2'       -0.1554   -0.9852    2.0577 H         1 ATP         0.4288
     43 H1'         1.7718    1.9211    1.6015 H         1 ATP         0.1374
     44 H8          1.3565    3.3309   -1.8916 H         1 ATP         0.2460
     45 HN61       -3.8634    5.8832   -0.3817 H         1 ATP         0.4865
     46 HN62       -2.4948    5.6788   -1.4484 H         1 ATP         0.4865
     47 H2         -2.9911    2.8734    3.1000 H         1 ATP         0.1083
     48 H48        -3.9253    4.5332    1.6302 H         1 ATP         0.4893
@<TRIPOS>BOND
     1    1    2 2
     2    1    3 1
     3    1    4 1
     4    1    8 1
     5    3   32 1
     6    4   33 1
     7    5    6 2
     8    5    7 1
     9    5    8 1
    10    5   12 1
    11    7   34 1
    12    9   10 2
    13    9   11 1
    14    9   12 1
    15    9   13 1
    16   11   35 1
    17   13   14 1
    18   14   15 1
    19   14   36 1
    20   14   37 1
    21   15   16 1
    22   15   17 1
    23   15   38 1
    24   16   21 1
    25   17   18 1
    26   17   19 1
    27   17   39 1
    28   18   40 1
    29   19   20 1
    30   19   21 1
    31   19   41 1
    32   20   42 1
    33   21   22 1
    34   21   43 1
    35   22   23 ar
    36   22   31 ar
    37   23   24 ar
    38   23   44 1
    39   24   25 ar
    40   25   26 ar
    41   25   31 ar
    42   26   27 1
    43   26   28 ar
    44   27   45 1
    45   27   46 1
    46   28   29 ar
    47   28   48 1
    48   29   30 ar
    49   29   47 1
    50   30   31 ar
@<TRIPOS>SUBSTRUCTURE
     1 ATP         1 GROUP 0 A     ****
@<TRIPOS>MOLECULE
[[5-(6-amino-1,8-dihydropurine-6,8-diylium-7-id-9-yl)-3,4-dihydroxy-tetrahydrofuran-2-yl]methoxy-hydroxy-phosphoryl] phosphono hydrogen phosphate
   48    50     1     0     0
SMALL
USER_CHARGES

@<TRIPOS>ATOM
      1 PG          4.8629    5.0919   -4.9805 P.3       1 ATP         1.7931
      2 O1G         5.8686    5.3630   -3.9007 O.2       1 ATP        -0.8245
      3 O2G         3.8062    6.2833   -5.2555 O.3       1 ATP        -0.7758
      4 O3G         5.4870    4.7972   -6.4421 O.3       1 ATP        -0.7758
      5 PB          2.8877    3.4503   -3.5287 P.3       1 ATP         1.9416
      6 O1B         3.4929    3.3935   -2.1570 O.2       1 ATP        -0.8420
      7 O2B         1.7081    4.5413   -3.7052 O.3       1 ATP        -0.7993
      8 O3B         3.9228    3.8039   -4.7178 O.3       1 ATP        -0.7763
      9 PA          2.8837    0.6137   -4.3156 P.3       1 ATP         1.7989
     10 O1A         4.0005    0.5905   -5.3184 O.2       1 ATP        -0.8148
     11 O2A         1.6113   -0.3033   -4.7122 O.3       1 ATP        -0.8139
     12 O3A         2.2372    2.0724   -4.0624 O.3       1 ATP        -0.8202
     13 O5'         3.2876    0.1332   -2.8242 O.3       1 ATP        -0.5616
     14 C5'         2.2816   -0.2918   -1.9206 C.3       1 ATP         0.1639
     15 C4'         2.7248    0.0226   -0.4980 C.3       1 ATP         0.1354
     16 O4'         2.4697    1.4219   -0.2462 O.3       1 ATP        -0.4135
     17 C3'         1.9404   -0.7419    0.5596 C.3       1 ATP         0.0995
     18 O3'         2.7418   -0.8086    1.7389 O.3       1 ATP        -0.5734
     19 C2'         0.7477    0.1630    0.7858 C.3       1 ATP         0.0652
     20 O2'         0.1373   -0.0577    2.0407 O.3       1 ATP        -0.5780
     21 C1'         1.3733    1.5427    0.6747 C.3       1 ATP         0.4207
     22 N9          0.4520    2.5240    0.1767 N.pl3     1 ATP        -0.4600
     23 C8          0.5793    3.3338   -1.1209 C.ar      1 ATP         0.1694
     24 N7         -0.4807    4.1508   -1.2458 N.2       1 ATP        -0.2540
     25 C5         -1.1921    3.8572   -0.1126 C.ar      1 ATP        -0.1403
     26 C6         -2.4855    4.5203    0.2163 C.ar      1 ATP         0.4951
     27 N6         -2.9873    5.4319   -0.6020 N.pl3     1 ATP        -0.8019
     28 N1         -3.0414    4.1119    1.3596 N.pl3     1 ATP        -0.6941
     29 C2         -2.4169    3.1071    2.1904 C.ar      1 ATP         0.6475
     30 N3         -1.2928    2.5191    1.9210 N.ar      1 ATP        -0.5183
     31 C4         -0.7202    2.9326    0.7534 C.ar      1 ATP         0.3000
     32 HOG2        4.1424    7.1620   -5.5327 H         1 ATP         0.4939
     33 HOG3        6.0395    5.4854   -6.8701 H         1 ATP         0.4939
     34 HOB2        1.9096    5.4881   -3.5467 H         1 ATP         0.5072
     35 HOA2        1.7421   -1.2674   -4.8367 H         1 ATP         0.5058
     36 H5'1        1.3495    0.2323   -2.1554 H         1 ATP         0.0543
     37 H5'2        2.1262   -1.3685   -2.0437 H         1 ATP         0.0543
     38 H4'         3.8046   -0.1390   -0.4012 H         1 ATP         0.1294
     39 H3'         1.6787   -1.7628    0.2719 H         1 ATP         0.0900
     40 HO3'        2.2231   -1.2979    2.3952 H         1 ATP         0.4260
     41 H2'         0.0002   -0.0084   -0.0014 H         1 ATP         0.0698
     42 HO2'       -0.1554   -0.9852    2.0577 H         1 ATP         0.4288
     43 H1'         1.7718    1.9211    1.6015 H         1 ATP         0.1374
     44 H8          1.3565    3.3309   -1.8916 H         1 ATP         0.2460
     45 HN61       -3.8634    5.8832   -0.3817 H         1 ATP         0.4865
     46 HN62       -2.4948    5.6788   -1.4484 H         1 ATP         0.4865
     47 H2         -2.9911    2.8734    3.1000 H         1 ATP         0.1083
     48 H48        -3.9253    4.5332    1.6302 H         1 ATP         0.4893
@<TRIPOS>BOND
     1    1    2 2
     2    1    3 1
     3    1    4 1
     4    1    8 1
     5    3   32 1
     6    4   33 1
     7    5    6 2
     8    5    7 1
     9    5    8 1
    10    5   12 1
    11    7   34 1
    12    9   10 2
    13    9   11 1
    14    9   12 1
    15    9   13 1
    16   11   35 1
    17   13   14 1
    18   14   15 1
    19   14   36 1
    20   14   37 1
    21   15   16 1
    22   15   17 1
    23   15   38 1
    24   16   21 1
    25   17   18 1
    26   17   19 1
    27   17   39 1
    28   18   40 1
    29   19   20 1
    30   19   21 1
    31   19   41 1
    32   20   42 1
    33   21   22 1
    34   21   43 1
    35   22   23 ar
    36   22   31 ar
    37   23   24 ar
    38   23   44 1
    39   24   25 ar
    40   25   26 ar
    41   25   31 ar
    42   26   27 1
    43   26   28 ar
    44   27   45 1
    45   27   46 1
    46   28   29 ar
    47   28   48 1
    48   29   30 ar
    49   29   47 1
    50   30   31 ar
@<TRIPOS>SUBSTRUCTURE
     1 ATP         1 GROUP 0 A     ****
@<TRIPOS>MOLECULE
[[5-(6-amino-1,8-dihydropurine-6,8-diylium-7-id-9-yl)-3,4-dihydroxy-tetrahydrofuran-2-yl]methoxy-hydroxy-phosphoryl] phosphono hydrogen phosphate
   48    50     1     0     0
SMALL
USER_CHARGES

@<TRIPOS>ATOM
      1 PG         -0.5814   -1.9338   -7.2228 P.3       1 ATP         1.7931
      2 O1G        -2.0681   -1.9512   -7.0213 O.2       1 ATP        -0.8245
      3 O2G         0.1447   -3.3748   -7.1340 O.3       1 ATP        -0.7758
      4 O3G        -0.0881   -1.3505   -8.6472 O.3       1 ATP        -0.7758
      5 PB          0.1630    0.5424   -5.8024 P.3       1 ATP         1.9416
      6 O1B         0.4729    1.4639   -6.9452 O.2       1 ATP        -0.8420
      7 O2B        -1.3081    0.7301   -5.1593 O.3       1 ATP        -0.7993
      8 O3B         0.2325   -1.0323   -6.1567 O.3       1 ATP        -0.7763
      9 PA          2.7556    0.3903   -4.4163 P.3       1 ATP         1.7989
     10 O1A         3.5951    1.2919   -5.2741 O.2       1 ATP        -0.8148
     11 O2A         2.9235   -1.1858   -4.7401 O.3       1 ATP        -0.8139
     12 O3A         1.1636    0.6363   -4.5388 O.3       1 ATP        -0.8202
     13 O5'         3.0192    0.5132   -2.8246 O.3       1 ATP        -0.5616
     14 C5'         2.2816   -0.2918   -1.9206 C.3       1 ATP         0.1639
     15 C4'         2.7248    0.0226   -0.4980 C.3       1 ATP         0.1354
     16 O4'         2.4697    1.4219   -0.2462 O.3       1 ATP        -0.4135
     17 C3'         1.9404   -0.7419    0.5596 C.3       1 ATP         0.0995
     18 O3'         2.7418   -0.8086    1.7389 O.3       1 ATP        -0.5734
     19 C2'         0.7477    0.1630    0.7858 C.3       1 ATP         0.0652
     20 O2'         0.1373   -0.0577    2.0407 O.3       1 ATP        -0.5780
     21 C1'         1.3733    1.5427    0.6747 C.3       1 ATP         0.4207
     22 N9          0.4520    2.5240    0.1767 N.pl3     1 ATP        -0.4600
     23 C8         -0.4598    3.4379    1.0068 C.ar      1 ATP         0.1694
     24 N7         -1.1770    4.2228    0.1845 N.2       1 ATP        -0.2540
     25 C5         -0.7330    3.8149   -1.0455 C.ar      1 ATP        -0.1403
     26 C6         -1.2413    4.4029   -2.3169 C.ar      1 ATP         0.4951
     27 N6         -2.1578    5.3575   -2.2832 N.pl3     1 ATP        -0.8019
     28 N1         -0.6977    3.8860   -3.4216 N.pl3     1 ATP        -0.6941
     29 C2          0.3002    2.8419   -3.3591 C.ar      1 ATP         0.6475
     30 N3          0.7548    2.3183   -2.2631 N.ar      1 ATP        -0.5183
     31 C4          0.2027    2.8430   -1.1309 C.ar      1 ATP         0.3000
     32 HOG2       -0.1188   -4.0792   -7.7636 H         1 ATP         0.4939
     33 HOG3       -0.3201   -0.4286   -8.8888 H         1 ATP         0.4939
     34 HOB2       -2.0956    0.5982   -5.7291 H         1 ATP         0.5072
     35 HOA2        2.7040   -1.5112   -5.6389 H         1 ATP         0.5058
     36 H5'1        1.2150   -0.0785   -2.0448 H         1 ATP         0.0543
     37 H5'2        2.4641   -1.3458   -2.1540 H         1 ATP         0.0543
     38 H4'         3.8046   -0.1390   -0.4012 H         1 ATP         0.1294
     39 H3'         1.6787   -1.7628    0.2719 H         1 ATP         0.0900
     40 HO3'        2.2231   -1.2979    2.3952 H         1 ATP         0.4260
     41 H2'         0.0002   -0.0084   -0.0014 H         1 ATP         0.0698
     42 HO2'       -0.6132    0.5577    2.1063 H         1 ATP         0.4288
     43 H1'         1.7718    1.9211    1.6015 H         1 ATP         0.1374
     44 H8         -0.5892    3.5248    2.0902 H         1 ATP         0.2460
     45 HN61       -2.5128    5.6880   -1.3974 H         1 ATP         0.4865
     46 HN62       -2.5040    5.7581   -3.1431 H         1 ATP         0.4865
     47 H2          0.6550    2.5166   -4.3490 H         1 ATP         0.1083
     48 H48        -1.0101    4.2527   -4.3160 H         1 ATP         0.4893
@<TRIPOS>BOND
     1    1    2 2
     2    1    3 1
     3    1    4 1
     4    1    8 1
     5    3   32 1
     6    4   33 1
     7    5    6 2
     8    5    7 1
     9    5    8 1
    10    5   12 1
    11    7   34 1
    12    9   10 2
    13    9   11 1
    14    9   12 1
    15    9   13 1
    16   11   35 1
    17   13   14 1
    18   14   15 1
    19   14   36 1
    20   14   37 1
    21   15   16 1
    22   15   17 1
    23   15   38 1
    24   16   21 1
    25   17   18 1
    26   17   19 1
    27   17   39 1
    28   18   40 1
    29   19   20 1
    30   19   21 1
    31   19   41 1
    32   20   42 1
    33   21   22 1
    34   21   43 1
    35   22   23 ar
    36   22   31 ar
    37   23   24 ar
    38   23   44 1
    39   24   25 ar
    40   25   26 ar
    41   25   31 ar
    42   26   27 1
    43   26   28 ar
    44   27   45 1
    45   27   46 1
    46   28   29 ar
    47   28   48 1
    48   29   30 ar
    49   29   47 1
    50   30   31 ar
@<TRIPOS>SUBSTRUCTURE
     1 ATP         1 GROUP 0 A     ****
@<TRIPOS>MOLECULE
[[5-(6-amino-1,8-dihydropurine-6,8-diylium-7-id-9-yl)-3,4-dihydroxy-tetrahydrofuran-2-yl]methoxy-hydroxy-phosphoryl] phosphono hydrogen phosphate
   48    50     1     0     0
SMALL
USER_CHARGES

@<TRIPOS>ATOM
      1 PG         -2.6677    1.3733   -5.8164 P.3       1 ATP         1.7931
      2 O1G        -2.6571    2.4312   -6.8803 O.2       1 ATP        -0.8245
      3 O2G        -3.6069    1.6872   -4.5393 O.3       1 ATP        -0.7758
      4 O3G        -3.1680   -0.0848   -6.3026 O.3       1 ATP        -0.7758
      5 PB          0.1630    0.5424   -5.8024 P.3       1 ATP         1.9416
      6 O1B         0.0870   -0.7982   -6.4717 O.2       1 ATP        -0.8420
      7 O2B         0.6240    1.7563   -6.7653 O.3       1 ATP        -0.7993
      8 O3B        -1.2241    1.0643   -5.1591 O.3       1 ATP        -0.7763
      9 PA          2.7556    0.3903   -4.4163 P.3       1 ATP         1.7989
     10 O1A         3.5951    1.2919   -5.2741 O.2       1 ATP        -0.8148
     11 O2A         2.9235   -1.1858   -4.7401 O.3       1 ATP        -0.8139
     12 O3A         1.1636    0.6363   -4.5388 O.3       1 ATP        -0.8202
     13 O5'         3.0192    0.5132   -2.8246 O.3       1 ATP        -0.5616
     14 C5'         2.2816   -0.2918   -1.9206 C.3       1 ATP         0.1639
     15 C4'         2.7248    0.0226   -0.4980 C.3       1 ATP         0.1354
     16 O4'         2.4697    1.4219   -0.2462 O.3       1 ATP        -0.4135
     17 C3'         1.9404   -0.7419    0.5596 C.3       1 ATP         0.0995
     18 O3'         2.7418   -0.8086    1.7389 O.3       1 ATP        -0.5734
     19 C2'         0.7477    0.1630    0.7858 C.3       1 ATP         0.0652
     20 O2'         0.1373   -0.0577    2.0407 O.3       1 ATP        -0.5780
     21 C1'         1.3733    1.5427    0.6747 C.3       1 ATP         0.4207
     22 N9          0.4520    2.5240    0.1767 N.pl3     1 ATP        -0.4600
     23 C8         -0.4598    3.4379    1.0068 C.ar      1 ATP         0.1694
     24 N7         -1.1770    4.2228    0.1845 N.2       1 ATP        -0.2540
     25 C5         -0.7330    3.8149   -1.0455 C.ar      1 ATP        -0.1403
     26 C6         -1.2413    4.4029   -2.3169 C.ar      1 ATP         0.4951
     27 N6         -2.1578    5.3575   -2.2832 N.pl3     1 ATP        -0.8019
     28 N1         -0.6977    3.8860   -3.4216 N.pl3     1 ATP        -0.6941
     29 C2          0.3002    2.8419   -3.3591 C.ar      1 ATP         0.6475
     30 N3          0.7548    2.3183   -2.2631 N.ar      1 ATP        -0.5183
     31 C4          0.2027    2.8430   -1.1309 C.ar      1 ATP         0.3000
     32 HOG2       -3.4264    2.4877   -4.0020 H         1 ATP         0.4939
     33 HOG3       -2.6746   -0.5425   -7.0161 H         1 ATP         0.4939
     34 HOB2        1.5022    1.7103   -7.1997 H         1 ATP         0.5072
     35 HOA2        3.8091   -1.5971   -4.6476 H         1 ATP         0.5058
     36 H5'1        1.2150   -0.0785   -2.0448 H         1 ATP         0.0543
     37 H5'2        2.4641   -1.3458   -2.1540 H         1 ATP         0.0543
     38 H4'         3.8046   -0.1390   -0.4012 H         1 ATP         0.1294
     39 H3'         1.6787   -1.7628    0.2719 H         1 ATP         0.0900
     40 HO3'        2.2231   -1.2979    2.3952 H         1 ATP         0.4260
     41 H2'         0.0002   -0.0084   -0.0014 H         1 ATP         0.0698
     42 HO2'       -0.6132    0.5577    2.1063 H         1 ATP         0.4288
     43 H1'         1.7718    1.9211    1.6015 H         1 ATP         0.1374
     44 H8         -0.5892    3.5248    2.0902 H         1 ATP         0.2460
     45 HN61       -2.5128    5.6880   -1.3974 H         1 ATP         0.4865
     46 HN62       -2.5040    5.7581   -3.1431 H         1 ATP         0.4865
     47 H2          0.6550    2.5166   -4.3490 H         1 ATP         0.1083
     48 H48        -1.0101    4.2527   -4.3160 H         1 ATP         0.4893
@<TRIPOS>BOND
     1    1    2 2
     2    1    3 1
     3    1    4 1
     4    1    8 1
     5    3   32 1
     6    4   33 1
     7    5    6 2
     8    5    7 1
     9    5    8 1
    10    5   12 1
    11    7   34 1
    12    9   10 2
    13    9   11 1
    14    9   12 1
    15    9   13 1
    16   11   35 1
    17   13   14 1
    18   14   15 1
    19   14   36 1
    20   14   37 1
    21   15   16 1
    22   15   17 1
    23   15   38 1
    24   16   21 1
    25   17   18 1
    26   17   19 1
    27   17   39 1
    28   18   40 1
    29   19   20 1
    30   19   21 1
    31   19   41 1
    32   20   42 1
    33   21   22 1
    34   21   43 1
    35   22   23 ar
    36   22   31 ar
    37   23   24 ar
    38   23   44 1
    39   24   25 ar
    40   25   26 ar
    41   25   31 ar
    42   26   27 1
    43   26   28 ar
    44   27   45 1
    45   27   46 1
    46   28   29 ar
    47   28   48 1
    48   29   30 ar
    49   29   47 1
    50   30   31 ar
@<TRIPOS>SUBSTRUCTURE
     1 ATP         1 GROUP 0 A     ****
