@<TRIPOS>MOLECULE
[[[3,4-dihydroxy-5-(6-imino-1~{H}-purin-9-yl)tetrahydrofuran-2-yl]methoxy-oxido-phosphoryl]oxy-hydroxy-phosphoryl] hydrogen phosphate
   45    47     1     0     0
SMALL
USER_CHARGES

@<TRIPOS>ATOM
      1 PG         -5.6677   -1.8790    3.1242 P.3       1 ATP         1.5496
      2 O1G        -6.2244   -2.3918    1.8147 O.co2     1 ATP        -0.8494
      3 O2G        -6.5808   -1.5766    4.2913 O.co2     1 ATP        -0.8494
      4 O3G        -4.5029   -2.9056    3.6296 O.3       1 ATP        -0.7845
      5 PB         -5.1290    0.8965    2.2848 P.3       1 ATP         1.9068
      6 O1B        -5.7785    0.9273    0.9329 O.2       1 ATP        -0.8942
      7 O2B        -6.0135    1.5226    3.4845 O.3       1 ATP        -0.8166
      8 O3B        -4.7350   -0.5745    2.8268 O.3       1 ATP        -0.8194
      9 PA         -3.3346    3.2336    2.1469 P.3       1 ATP         1.5903
     10 O1A        -4.0315    4.0798    3.1901 O.co2     1 ATP        -0.8519
     11 O2A        -3.5035    3.5292    0.6725 O.co2     1 ATP        -0.8519
     12 O3A        -3.7135    1.6660    2.4019 O.3       1 ATP        -0.8093
     13 O5'        -1.7337    3.1724    2.4752 O.3       1 ATP        -0.5649
     14 C5'        -0.8811    2.4285    1.6206 C.3       1 ATP         0.1979
     15 C4'        -0.1994    1.3333    2.4288 C.3       1 ATP         0.1179
     16 O4'        -1.1285    0.2356    2.5840 O.3       1 ATP        -0.3878
     17 C3'         1.0324    0.7610    1.7344 C.3       1 ATP         0.1185
     18 O3'         1.9175    0.2377    2.7247 O.3       1 ATP        -0.5544
     19 C2'         0.4468   -0.3802    0.9263 C.3       1 ATP         0.0542
     20 O2'         1.3993   -1.3703    0.5961 O.3       1 ATP        -0.5831
     21 C1'        -0.6159   -0.9100    1.8769 C.3       1 ATP         0.2222
     22 N9         -1.7127   -1.6108    1.2130 N.pl3     1 ATP        -0.1887
     23 C8         -2.5485   -1.0808    0.2609 C.ar      1 ATP         0.4447
     24 N7         -3.4476   -1.9486   -0.1593 N.2       1 ATP        -0.6159
     25 C5         -3.1762   -3.0816    0.5530 C.ar      1 ATP         0.2195
     26 C6         -3.8510   -4.3579    0.5006 C.ar      1 ATP         0.6144
     27 N6         -4.8468   -4.5293   -0.2961 N.2       1 ATP        -0.8160
     28 N1         -3.2499   -5.2342    1.3937 N.pl3     1 ATP        -0.8611
     29 C2         -2.1646   -4.9275    2.2116 C.ar      1 ATP         0.6141
     30 N3         -1.5382   -3.7840    2.2778 N.2       1 ATP        -0.5913
     31 C4         -2.1054   -2.9018    1.4120 C.ar      1 ATP         0.0067
     32 HOG3       -4.0411   -2.7090    4.4724 H         1 ATP         0.4313
     33 HOB2       -6.2892    2.4624    3.4302 H         1 ATP         0.4716
     34 H5'1       -1.4801    1.9928    0.8147 H         1 ATP         0.0452
     35 H5'2       -0.1369    3.1041    1.1872 H         1 ATP         0.0452
     36 H4'         0.0403    1.7078    3.4343 H         1 ATP         0.0998
     37 H3'         1.5906    1.4859    1.1353 H         1 ATP         0.0544
     38 HO3'        2.6839   -0.1150    2.2479 H         1 ATP         0.3961
     39 H2'        -0.0017    0.0018    0.0005 H         1 ATP         0.0499
     40 HO2'        2.0953   -0.9375    0.0709 H         1 ATP         0.4045
     41 H1'        -0.1998   -1.6319    2.6178 H         1 ATP         0.0912
     42 H8         -2.4515   -0.0599   -0.0829 H         1 ATP         0.1090
     43 HN62       -5.1990   -5.4882   -0.2004 H         1 ATP         0.3694
     44 H2         -1.8555   -5.7783    2.8388 H         1 ATP         0.0371
     45 H45        -3.6312   -6.1750    1.4526 H         1 ATP         0.4283
@<TRIPOS>BOND
     1    1    2 2
     2    1    3 1
     3    1    4 1
     4    1    8 1
     5    4   32 1
     6    5    6 2
     7    5    7 1
     8    5    8 1
     9    5   12 1
    10    7   33 1
    11    9   10 2
    12    9   11 1
    13    9   12 1
    14    9   13 1
    15   13   14 1
    16   14   15 1
    17   14   34 1
    18   14   35 1
    19   15   16 1
    20   15   17 1
    21   15   36 1
    22   16   21 1
    23   17   18 1
    24   17   19 1
    25   17   37 1
    26   18   38 1
    27   19   20 1
    28   19   21 1
    29   19   39 1
    30   20   40 1
    31   21   22 1
    32   21   41 1
    33   22   23 ar
    34   22   31 ar
    35   23   24 ar
    36   23   42 1
    37   24   25 ar
    38   25   26 ar
    39   25   31 ar
    40   26   27 2
    41   26   28 ar
    42   27   43 1
    43   28   29 ar
    44   28   45 1
    45   29   30 ar
    46   29   44 1
    47   30   31 ar
@<TRIPOS>SUBSTRUCTURE
     1 ATP         1 GROUP 0 A     ****
@<TRIPOS>MOLECULE
[[[3,4-dihydroxy-5-(6-imino-1~{H}-purin-9-yl)tetrahydrofuran-2-yl]methoxy-oxido-phosphoryl]oxy-hydroxy-phosphoryl] hydrogen phosphate
   45    47     1     0     0
SMALL
USER_CHARGES

@<TRIPOS>ATOM
      1 PG         -5.6677   -1.8790    3.1242 P.3       1 ATP         1.5496
      2 O1G        -6.2244   -2.3918    1.8147 O.co2     1 ATP        -0.8494
      3 O2G        -6.5808   -1.5766    4.2913 O.co2     1 ATP        -0.8494
      4 O3G        -4.5029   -2.9056    3.6296 O.3       1 ATP        -0.7845
      5 PB         -5.1290    0.8965    2.2848 P.3       1 ATP         1.9068
      6 O1B        -5.7785    0.9273    0.9329 O.2       1 ATP        -0.8942
      7 O2B        -6.0135    1.5226    3.4845 O.3       1 ATP        -0.8166
      8 O3B        -4.7350   -0.5745    2.8268 O.3       1 ATP        -0.8194
      9 PA         -3.3346    3.2336    2.1469 P.3       1 ATP         1.5903
     10 O1A        -4.0315    4.0798    3.1901 O.co2     1 ATP        -0.8519
     11 O2A        -3.5035    3.5292    0.6725 O.co2     1 ATP        -0.8519
     12 O3A        -3.7135    1.6660    2.4019 O.3       1 ATP        -0.8093
     13 O5'        -1.7337    3.1724    2.4752 O.3       1 ATP        -0.5649
     14 C5'        -0.8811    2.4285    1.6206 C.3       1 ATP         0.1979
     15 C4'        -0.1994    1.3333    2.4288 C.3       1 ATP         0.1179
     16 O4'        -1.1285    0.2356    2.5840 O.3       1 ATP        -0.3878
     17 C3'         1.0324    0.7610    1.7344 C.3       1 ATP         0.1185
     18 O3'         1.9175    0.2377    2.7247 O.3       1 ATP        -0.5544
     19 C2'         0.4468   -0.3802    0.9263 C.3       1 ATP         0.0542
     20 O2'         1.3993   -1.3703    0.5961 O.3       1 ATP        -0.5831
     21 C1'        -0.6159   -0.9100    1.8769 C.3       1 ATP         0.2222
     22 N9         -1.7127   -1.6108    1.2130 N.pl3     1 ATP        -0.1887
     23 C8         -2.0868   -2.9137    1.4327 C.ar      1 ATP         0.4447
     24 N7         -3.1125   -3.2756    0.6878 N.2       1 ATP        -0.6159
     25 C5         -3.4079   -2.1580   -0.0391 C.ar      1 ATP         0.2195
     26 C6         -4.4483   -1.9775   -1.0249 C.ar      1 ATP         0.6144
     27 N6         -5.2418   -2.9492   -1.3113 N.2       1 ATP        -0.8160
     28 N1         -4.3937   -0.6823   -1.5211 N.pl3     1 ATP        -0.8611
     29 C2         -3.4770    0.2901   -1.1271 C.ar      1 ATP         0.6141
     30 N3         -2.5289    0.1525   -0.2403 N.2       1 ATP        -0.5913
     31 C4         -2.5564   -1.1096    0.2655 C.ar      1 ATP         0.0067
     32 HOG3       -4.0411   -2.7090    4.4724 H         1 ATP         0.4313
     33 HOB2       -6.2892    2.4624    3.4302 H         1 ATP         0.4716
     34 H5'1       -1.4801    1.9928    0.8147 H         1 ATP         0.0452
     35 H5'2       -0.1369    3.1041    1.1872 H         1 ATP         0.0452
     36 H4'         0.0403    1.7078    3.4343 H         1 ATP         0.0998
     37 H3'         1.5906    1.4859    1.1353 H         1 ATP         0.0544
     38 HO3'        2.6839   -0.1150    2.2479 H         1 ATP         0.3961
     39 H2'        -0.0017    0.0018    0.0005 H         1 ATP         0.0499
     40 HO2'        2.0953   -0.9375    0.0709 H         1 ATP         0.4045
     41 H1'        -0.1998   -1.6319    2.6178 H         1 ATP         0.0912
     42 H8         -1.5740   -3.5449    2.1457 H         1 ATP         0.1090
     43 HN62       -5.9117   -2.6433   -2.0256 H         1 ATP         0.3694
     44 H2         -3.6225    1.2454   -1.6553 H         1 ATP         0.0371
     45 H45        -5.0794   -0.4231   -2.2258 H         1 ATP         0.4283
@<TRIPOS>BOND
     1    1    2 2
     2    1    3 1
     3    1    4 1
     4    1    8 1
     5    4   32 1
     6    5    6 2
     7    5    7 1
     8    5    8 1
     9    5   12 1
    10    7   33 1
    11    9   10 2
    12    9   11 1
    13    9   12 1
    14    9   13 1
    15   13   14 1
    16   14   15 1
    17   14   34 1
    18   14   35 1
    19   15   16 1
    20   15   17 1
    21   15   36 1
    22   16   21 1
    23   17   18 1
    24   17   19 1
    25   17   37 1
    26   18   38 1
    27   19   20 1
    28   19   21 1
    29   19   39 1
    30   20   40 1
    31   21   22 1
    32   21   41 1
    33   22   23 ar
    34   22   31 ar
    35   23   24 ar
    36   23   42 1
    37   24   25 ar
    38   25   26 ar
    39   25   31 ar
    40   26   27 2
    41   26   28 ar
    42   27   43 1
    43   28   29 ar
    44   28   45 1
    45   29   30 ar
    46   29   44 1
    47   30   31 ar
@<TRIPOS>SUBSTRUCTURE
     1 ATP         1 GROUP 0 A     ****
@<TRIPOS>MOLECULE
[[[3,4-dihydroxy-5-(6-imino-1~{H}-purin-9-yl)tetrahydrofuran-2-yl]methoxy-oxido-phosphoryl]oxy-hydroxy-phosphoryl] hydrogen phosphate
   45    47     1     0     0
SMALL
USER_CHARGES

@<TRIPOS>ATOM
      1 PG         -3.5936    1.4945   -2.5414 P.3       1 ATP         1.5496
      2 O1G        -4.3206    0.3884   -3.2734 O.co2     1 ATP        -0.8494
      3 O2G        -2.3986    1.1916   -1.6652 O.co2     1 ATP        -0.8494
      4 O3G        -3.1653    2.6387   -3.6248 O.3       1 ATP        -0.7845
      5 PB         -4.4970    3.7294   -0.8423 P.3       1 ATP         1.9068
      6 O1B        -4.0308    4.9124   -1.6383 O.2       1 ATP        -0.8942
      7 O2B        -5.9243    3.9176   -0.1070 O.3       1 ATP        -0.8166
      8 O3B        -4.6767    2.3606   -1.6830 O.3       1 ATP        -0.8194
      9 PA         -2.9646    4.0417    1.6588 P.3       1 ATP         1.5903
     10 O1A        -4.1352    4.3308    2.5732 O.co2     1 ATP        -0.8519
     11 O2A        -2.0510    5.1559    1.1963 O.co2     1 ATP        -0.8519
     12 O3A        -3.5097    3.2459    0.3413 O.3       1 ATP        -0.8093
     13 O5'        -2.0402    2.8619    2.3130 O.3       1 ATP        -0.5649
     14 C5'        -0.8811    2.4285    1.6206 C.3       1 ATP         0.1979
     15 C4'        -0.1994    1.3333    2.4288 C.3       1 ATP         0.1179
     16 O4'        -1.1285    0.2356    2.5840 O.3       1 ATP        -0.3878
     17 C3'         1.0324    0.7610    1.7344 C.3       1 ATP         0.1185
     18 O3'         1.9175    0.2377    2.7247 O.3       1 ATP        -0.5544
     19 C2'         0.4468   -0.3802    0.9263 C.3       1 ATP         0.0542
     20 O2'         1.3993   -1.3703    0.5961 O.3       1 ATP        -0.5831
     21 C1'        -0.6159   -0.9100    1.8769 C.3       1 ATP         0.2222
     22 N9         -1.7127   -1.6108    1.2130 N.pl3     1 ATP        -0.1887
     23 C8         -2.8662   -1.0361    0.7388 C.ar      1 ATP         0.4447
     24 N7         -3.6774   -1.9166    0.1867 N.2       1 ATP        -0.6159
     25 C5         -3.0159   -3.1045    0.3123 C.ar      1 ATP         0.2195
     26 C6         -3.4377   -4.4169   -0.1199 C.ar      1 ATP         0.6144
     27 N6         -4.5720   -4.5691   -0.7080 N.2       1 ATP        -0.8160
     28 N1         -2.4600   -5.3463    0.2071 N.pl3     1 ATP        -0.8611
     29 C2         -1.2595   -5.0554    0.8515 C.ar      1 ATP         0.6141
     30 N3         -0.8555   -3.8803    1.2516 N.2       1 ATP        -0.5913
     31 C4         -1.7946   -2.9457    0.9448 C.ar      1 ATP         0.0067
     32 HOG3       -2.6813    3.4287   -3.3026 H         1 ATP         0.4313
     33 HOB2       -6.0282    4.6386    0.5501 H         1 ATP         0.4716
     34 H5'1       -1.1769    2.0503    0.6369 H         1 ATP         0.0452
     35 H5'2       -0.2081    3.2815    1.4877 H         1 ATP         0.0452
     36 H4'         0.0403    1.7078    3.4343 H         1 ATP         0.0998
     37 H3'         1.5906    1.4859    1.1353 H         1 ATP         0.0544
     38 HO3'        2.6839   -0.1150    2.2479 H         1 ATP         0.3961
     39 H2'        -0.0017    0.0018    0.0005 H         1 ATP         0.0499
     40 HO2'        2.0953   -0.9375    0.0709 H         1 ATP         0.4045
     41 H1'        -0.1998   -1.6319    2.6178 H         1 ATP         0.0912
     42 H8         -3.0558    0.0252    0.8256 H         1 ATP         0.1090
     43 HN62       -4.7047   -5.5592   -0.9421 H         1 ATP         0.3694
     44 H2         -0.6372   -5.9505    1.0077 H         1 ATP         0.0371
     45 H45        -2.6338   -6.3155   -0.0469 H         1 ATP         0.4283
@<TRIPOS>BOND
     1    1    2 2
     2    1    3 1
     3    1    4 1
     4    1    8 1
     5    4   32 1
     6    5    6 2
     7    5    7 1
     8    5    8 1
     9    5   12 1
    10    7   33 1
    11    9   10 2
    12    9   11 1
    13    9   12 1
    14    9   13 1
    15   13   14 1
    16   14   15 1
    17   14   34 1
    18   14   35 1
    19   15   16 1
    20   15   17 1
    21   15   36 1
    22   16   21 1
    23   17   18 1
    24   17   19 1
    25   17   37 1
    26   18   38 1
    27   19   20 1
    28   19   21 1
    29   19   39 1
    30   20   40 1
    31   21   22 1
    32   21   41 1
    33   22   23 ar
    34   22   31 ar
    35   23   24 ar
    36   23   42 1
    37   24   25 ar
    38   25   26 ar
    39   25   31 ar
    40   26   27 2
    41   26   28 ar
    42   27   43 1
    43   28   29 ar
    44   28   45 1
    45   29   30 ar
    46   29   44 1
    47   30   31 ar
@<TRIPOS>SUBSTRUCTURE
     1 ATP         1 GROUP 0 A     ****
@<TRIPOS>MOLECULE
[[[3,4-dihydroxy-5-(6-imino-1~{H}-purin-9-yl)tetrahydrofuran-2-yl]methoxy-oxido-phosphoryl]oxy-hydroxy-phosphoryl] hydrogen phosphate
   45    47     1     0     0
SMALL
USER_CHARGES

@<TRIPOS>ATOM
      1 PG         -6.6174    0.3748   -0.2073 P.3       1 ATP         1.5496
      2 O1G        -7.9341    0.9990    0.1981 O.co2     1 ATP        -0.8494
      3 O2G        -6.4494   -1.1278   -0.2468 O.co2     1 ATP        -0.8494
      4 O3G        -6.1799    0.9837   -1.6578 O.3       1 ATP        -0.7845
      5 PB         -5.1290    0.8965    2.2848 P.3       1 ATP         1.9068
      6 O1B        -6.2215    1.3999    3.1811 O.2       1 ATP        -0.8942
      7 O2B        -4.7435   -0.6611    2.4826 O.3       1 ATP        -0.8166
      8 O3B        -5.4256    1.0195    0.7006 O.3       1 ATP        -0.8194
      9 PA         -3.3346    3.2336    2.1469 P.3       1 ATP         1.5903
     10 O1A        -4.0315    4.0798    3.1901 O.co2     1 ATP        -0.8519
     11 O2A        -3.5035    3.5292    0.6725 O.co2     1 ATP        -0.8519
     12 O3A        -3.7135    1.6660    2.4019 O.3       1 ATP        -0.8093
     13 O5'        -1.7337    3.1724    2.4752 O.3       1 ATP        -0.5649
     14 C5'        -0.8811    2.4285    1.6206 C.3       1 ATP         0.1979
     15 C4'        -0.1994    1.3333    2.4288 C.3       1 ATP         0.1179
     16 O4'        -1.1285    0.2356    2.5840 O.3       1 ATP        -0.3878
     17 C3'         1.0324    0.7610    1.7344 C.3       1 ATP         0.1185
     18 O3'         1.9175    0.2377    2.7247 O.3       1 ATP        -0.5544
     19 C2'         0.4468   -0.3802    0.9263 C.3       1 ATP         0.0542
     20 O2'         1.3993   -1.3703    0.5961 O.3       1 ATP        -0.5831
     21 C1'        -0.6159   -0.9100    1.8769 C.3       1 ATP         0.2222
     22 N9         -1.7127   -1.6108    1.2130 N.pl3     1 ATP        -0.1887
     23 C8         -2.5485   -1.0808    0.2609 C.ar      1 ATP         0.4447
     24 N7         -3.4476   -1.9486   -0.1593 N.2       1 ATP        -0.6159
     25 C5         -3.1762   -3.0816    0.5530 C.ar      1 ATP         0.2195
     26 C6         -3.8510   -4.3579    0.5006 C.ar      1 ATP         0.6144
     27 N6         -4.8468   -4.5293   -0.2961 N.2       1 ATP        -0.8160
     28 N1         -3.2499   -5.2342    1.3937 N.pl3     1 ATP        -0.8611
     29 C2         -2.1646   -4.9275    2.2116 C.ar      1 ATP         0.6141
     30 N3         -1.5382   -3.7840    2.2778 N.2       1 ATP        -0.5913
     31 C4         -2.1054   -2.9018    1.4120 C.ar      1 ATP         0.0067
     32 HOG3       -5.3402    0.6746   -2.0597 H         1 ATP         0.4313
     33 HOB2       -5.4338   -1.3428    2.3381 H         1 ATP         0.4716
     34 H5'1       -1.4801    1.9928    0.8147 H         1 ATP         0.0452
     35 H5'2       -0.1369    3.1041    1.1872 H         1 ATP         0.0452
     36 H4'         0.0403    1.7078    3.4343 H         1 ATP         0.0998
     37 H3'         1.5906    1.4859    1.1353 H         1 ATP         0.0544
     38 HO3'        2.6839   -0.1150    2.2479 H         1 ATP         0.3961
     39 H2'        -0.0017    0.0018    0.0005 H         1 ATP         0.0499
     40 HO2'        2.0953   -0.9375    0.0709 H         1 ATP         0.4045
     41 H1'        -0.1998   -1.6319    2.6178 H         1 ATP         0.0912
     42 H8         -2.4515   -0.0599   -0.0829 H         1 ATP         0.1090
     43 HN62       -5.1990   -5.4882   -0.2004 H         1 ATP         0.3694
     44 H2         -1.8555   -5.7783    2.8388 H         1 ATP         0.0371
     45 H45        -3.6312   -6.1750    1.4526 H         1 ATP         0.4283
@<TRIPOS>BOND
     1    1    2 2
     2    1    3 1
     3    1    4 1
     4    1    8 1
     5    4   32 1
     6    5    6 2
     7    5    7 1
     8    5    8 1
     9    5   12 1
    10    7   33 1
    11    9   10 2
    12    9   11 1
    13    9   12 1
    14    9   13 1
    15   13   14 1
    16   14   15 1
    17   14   34 1
    18   14   35 1
    19   15   16 1
    20   15   17 1
    21   15   36 1
    22   16   21 1
    23   17   18 1
    24   17   19 1
    25   17   37 1
    26   18   38 1
    27   19   20 1
    28   19   21 1
    29   19   39 1
    30   20   40 1
    31   21   22 1
    32   21   41 1
    33   22   23 ar
    34   22   31 ar
    35   23   24 ar
    36   23   42 1
    37   24   25 ar
    38   25   26 ar
    39   25   31 ar
    40   26   27 2
    41   26   28 ar
    42   27   43 1
    43   28   29 ar
    44   28   45 1
    45   29   30 ar
    46   29   44 1
    47   30   31 ar
@<TRIPOS>SUBSTRUCTURE
     1 ATP         1 GROUP 0 A     ****
@<TRIPOS>MOLECULE
[[[3,4-dihydroxy-5-(6-imino-1~{H}-purin-9-yl)tetrahydrofuran-2-yl]methoxy-oxido-phosphoryl]oxy-hydroxy-phosphoryl] hydrogen phosphate
   45    47     1     0     0
SMALL
USER_CHARGES

@<TRIPOS>ATOM
      1 PG         -5.6677   -1.8790    3.1242 P.3       1 ATP         1.5496
      2 O1G        -6.7975   -1.4737    4.0445 O.co2     1 ATP        -0.8494
      3 O2G        -4.7781   -3.0557    3.4577 O.co2     1 ATP        -0.8494
      4 O3G        -6.2741   -2.0964    1.6238 O.3       1 ATP        -0.7845
      5 PB         -5.1290    0.8965    2.2848 P.3       1 ATP         1.9068
      6 O1B        -5.7785    0.9273    0.9329 O.2       1 ATP        -0.8942
      7 O2B        -6.0135    1.5226    3.4845 O.3       1 ATP        -0.8166
      8 O3B        -4.7350   -0.5745    2.8268 O.3       1 ATP        -0.8194
      9 PA         -3.3346    3.2336    2.1469 P.3       1 ATP         1.5903
     10 O1A        -4.0315    4.0798    3.1901 O.co2     1 ATP        -0.8519
     11 O2A        -3.5035    3.5292    0.6725 O.co2     1 ATP        -0.8519
     12 O3A        -3.7135    1.6660    2.4019 O.3       1 ATP        -0.8093
     13 O5'        -1.7337    3.1724    2.4752 O.3       1 ATP        -0.5649
     14 C5'        -0.8811    2.4285    1.6206 C.3       1 ATP         0.1979
     15 C4'        -0.1994    1.3333    2.4288 C.3       1 ATP         0.1179
     16 O4'        -1.1285    0.2356    2.5840 O.3       1 ATP        -0.3878
     17 C3'         1.0324    0.7610    1.7344 C.3       1 ATP         0.1185
     18 O3'         1.9175    0.2377    2.7247 O.3       1 ATP        -0.5544
     19 C2'         0.4468   -0.3802    0.9263 C.3       1 ATP         0.0542
     20 O2'         1.3993   -1.3703    0.5961 O.3       1 ATP        -0.5831
     21 C1'        -0.6159   -0.9100    1.8769 C.3       1 ATP         0.2222
     22 N9         -1.7127   -1.6108    1.2130 N.pl3     1 ATP        -0.1887
     23 C8         -2.5485   -1.0808    0.2609 C.ar      1 ATP         0.4447
     24 N7         -3.4476   -1.9486   -0.1593 N.2       1 ATP        -0.6159
     25 C5         -3.1762   -3.0816    0.5530 C.ar      1 ATP         0.2195
     26 C6         -3.8510   -4.3579    0.5006 C.ar      1 ATP         0.6144
     27 N6         -4.8468   -4.5293   -0.2961 N.2       1 ATP        -0.8160
     28 N1         -3.2499   -5.2342    1.3937 N.pl3     1 ATP        -0.8611
     29 C2         -2.1646   -4.9275    2.2116 C.ar      1 ATP         0.6141
     30 N3         -1.5382   -3.7840    2.2778 N.2       1 ATP        -0.5913
     31 C4         -2.1054   -2.9018    1.4120 C.ar      1 ATP         0.0067
     32 HOG3       -6.7106   -1.3370    1.1823 H         1 ATP         0.4313
     33 HOB2       -6.8873    1.1254    3.6870 H         1 ATP         0.4716
     34 H5'1       -1.4801    1.9928    0.8147 H         1 ATP         0.0452
     35 H5'2       -0.1369    3.1041    1.1872 H         1 ATP         0.0452
     36 H4'         0.0403    1.7078    3.4343 H         1 ATP         0.0998
     37 H3'         1.5906    1.4859    1.1353 H         1 ATP         0.0544
     38 HO3'        2.6839   -0.1150    2.2479 H         1 ATP         0.3961
     39 H2'        -0.0017    0.0018    0.0005 H         1 ATP         0.0499
     40 HO2'        0.9369   -2.0558    0.0825 H         1 ATP         0.4045
     41 H1'        -0.1998   -1.6319    2.6178 H         1 ATP         0.0912
     42 H8         -2.4515   -0.0599   -0.0829 H         1 ATP         0.1090
     43 HN62       -5.1990   -5.4882   -0.2004 H         1 ATP         0.3694
     44 H2         -1.8555   -5.7783    2.8388 H         1 ATP         0.0371
     45 H45        -3.6312   -6.1750    1.4526 H         1 ATP         0.4283
@<TRIPOS>BOND
     1    1    2 2
     2    1    3 1
     3    1    4 1
     4    1    8 1
     5    4   32 1
     6    5    6 2
     7    5    7 1
     8    5    8 1
     9    5   12 1
    10    7   33 1
    11    9   10 2
    12    9   11 1
    13    9   12 1
    14    9   13 1
    15   13   14 1
    16   14   15 1
    17   14   34 1
    18   14   35 1
    19   15   16 1
    20   15   17 1
    21   15   36 1
    22   16   21 1
    23   17   18 1
    24   17   19 1
    25   17   37 1
    26   18   38 1
    27   19   20 1
    28   19   21 1
    29   19   39 1
    30   20   40 1
    31   21   22 1
    32   21   41 1
    33   22   23 ar
    34   22   31 ar
    35   23   24 ar
    36   23   42 1
    37   24   25 ar
    38   25   26 ar
    39   25   31 ar
    40   26   27 2
    41   26   28 ar
    42   27   43 1
    43   28   29 ar
    44   28   45 1
    45   29   30 ar
    46   29   44 1
    47   30   31 ar
@<TRIPOS>SUBSTRUCTURE
     1 ATP         1 GROUP 0 A     ****
@<TRIPOS>MOLECULE
[[[3,4-dihydroxy-5-(6-imino-1~{H}-purin-9-yl)tetrahydrofuran-2-yl]methoxy-oxido-phosphoryl]oxy-hydroxy-phosphoryl] hydrogen phosphate
   45    47     1     0     0
SMALL
USER_CHARGES

@<TRIPOS>ATOM
      1 PG         -3.5936    1.4945   -2.5414 P.3       1 ATP         1.5496
      2 O1G        -2.5747    0.9051   -1.5917 O.co2     1 ATP        -0.8494
      3 O2G        -3.1588    2.3017   -3.7443 O.co2     1 ATP        -0.8494
      4 O3G        -4.5813    0.2978   -3.0498 O.3       1 ATP        -0.7845
      5 PB         -4.4970    3.7294   -0.8423 P.3       1 ATP         1.9068
      6 O1B        -4.0308    4.9124   -1.6383 O.2       1 ATP        -0.8942
      7 O2B        -5.9243    3.9176   -0.1070 O.3       1 ATP        -0.8166
      8 O3B        -4.6767    2.3606   -1.6830 O.3       1 ATP        -0.8194
      9 PA         -2.9646    4.0417    1.6588 P.3       1 ATP         1.5903
     10 O1A        -4.1352    4.3308    2.5732 O.co2     1 ATP        -0.8519
     11 O2A        -2.0510    5.1559    1.1963 O.co2     1 ATP        -0.8519
     12 O3A        -3.5097    3.2459    0.3413 O.3       1 ATP        -0.8093
     13 O5'        -2.0402    2.8619    2.3130 O.3       1 ATP        -0.5649
     14 C5'        -0.8811    2.4285    1.6206 C.3       1 ATP         0.1979
     15 C4'        -0.1994    1.3333    2.4288 C.3       1 ATP         0.1179
     16 O4'        -1.1285    0.2356    2.5840 O.3       1 ATP        -0.3878
     17 C3'         1.0324    0.7610    1.7344 C.3       1 ATP         0.1185
     18 O3'         1.9175    0.2377    2.7247 O.3       1 ATP        -0.5544
     19 C2'         0.4468   -0.3802    0.9263 C.3       1 ATP         0.0542
     20 O2'         1.3993   -1.3703    0.5961 O.3       1 ATP        -0.5831
     21 C1'        -0.6159   -0.9100    1.8769 C.3       1 ATP         0.2222
     22 N9         -1.7127   -1.6108    1.2130 N.pl3     1 ATP        -0.1887
     23 C8         -1.5982   -2.7455    0.4481 C.ar      1 ATP         0.4447
     24 N7         -2.7593   -3.1533   -0.0249 N.2       1 ATP        -0.6159
     25 C5         -3.6547   -2.2420    0.4573 C.ar      1 ATP         0.2195
     26 C6         -5.0842   -2.1942    0.2543 C.ar      1 ATP         0.6144
     27 N6         -5.6648   -3.0919   -0.4618 N.2       1 ATP        -0.8160
     28 N1         -5.6087   -1.0978    0.9248 N.pl3     1 ATP        -0.8611
     29 C2         -4.8689   -0.1873    1.6760 C.ar      1 ATP         0.6141
     30 N3         -3.5787   -0.2081    1.8745 N.2       1 ATP        -0.5913
     31 C4         -3.0344   -1.2737    1.2284 C.ar      1 ATP         0.0067
     32 HOG3       -5.3019    0.5219   -3.6765 H         1 ATP         0.4313
     33 HOB2       -6.0282    4.6386    0.5501 H         1 ATP         0.4716
     34 H5'1       -1.1769    2.0503    0.6369 H         1 ATP         0.0452
     35 H5'2       -0.2081    3.2815    1.4877 H         1 ATP         0.0452
     36 H4'         0.0403    1.7078    3.4343 H         1 ATP         0.0998
     37 H3'         1.5906    1.4859    1.1353 H         1 ATP         0.0544
     38 HO3'        2.6839   -0.1150    2.2479 H         1 ATP         0.3961
     39 H2'        -0.0017    0.0018    0.0005 H         1 ATP         0.0499
     40 HO2'        2.0953   -0.9375    0.0709 H         1 ATP         0.4045
     41 H1'        -0.1998   -1.6319    2.6178 H         1 ATP         0.0912
     42 H8         -0.6448   -3.2254    0.2735 H         1 ATP         0.1090
     43 HN62       -6.6723   -2.9015   -0.4966 H         1 ATP         0.3694
     44 H2         -5.4961    0.6026    2.1182 H         1 ATP         0.0371
     45 H45        -6.6130   -0.9504    0.8642 H         1 ATP         0.4283
@<TRIPOS>BOND
     1    1    2 2
     2    1    3 1
     3    1    4 1
     4    1    8 1
     5    4   32 1
     6    5    6 2
     7    5    7 1
     8    5    8 1
     9    5   12 1
    10    7   33 1
    11    9   10 2
    12    9   11 1
    13    9   12 1
    14    9   13 1
    15   13   14 1
    16   14   15 1
    17   14   34 1
    18   14   35 1
    19   15   16 1
    20   15   17 1
    21   15   36 1
    22   16   21 1
    23   17   18 1
    24   17   19 1
    25   17   37 1
    26   18   38 1
    27   19   20 1
    28   19   21 1
    29   19   39 1
    30   20   40 1
    31   21   22 1
    32   21   41 1
    33   22   23 ar
    34   22   31 ar
    35   23   24 ar
    36   23   42 1
    37   24   25 ar
    38   25   26 ar
    39   25   31 ar
    40   26   27 2
    41   26   28 ar
    42   27   43 1
    43   28   29 ar
    44   28   45 1
    45   29   30 ar
    46   29   44 1
    47   30   31 ar
@<TRIPOS>SUBSTRUCTURE
     1 ATP         1 GROUP 0 A     ****
@<TRIPOS>MOLECULE
[[[3,4-dihydroxy-5-(6-imino-1~{H}-purin-9-yl)tetrahydrofuran-2-yl]methoxy-oxido-phosphoryl]oxy-hydroxy-phosphoryl] hydrogen phosphate
   45    47     1     0     0
SMALL
USER_CHARGES

@<TRIPOS>ATOM
      1 PG         -6.8417   -0.2043    0.4952 P.3       1 ATP         1.5496
      2 O1G        -7.0765   -0.1379   -0.9975 O.co2     1 ATP        -0.8494
      3 O2G        -7.9612    0.0810    1.4713 O.co2     1 ATP        -0.8494
      4 O3G        -6.1996   -1.6620    0.8544 O.3       1 ATP        -0.7845
      5 PB         -5.3690    2.3333    0.7946 P.3       1 ATP         1.9068
      6 O1B        -5.5347    2.9334   -0.5702 O.2       1 ATP        -0.8942
      7 O2B        -6.3886    2.8927    1.9176 O.3       1 ATP        -0.8166
      8 O3B        -5.5583    0.7297    0.8700 O.3       1 ATP        -0.8194
      9 PA         -3.0798    3.8626    1.8537 P.3       1 ATP         1.5903
     10 O1A        -3.8221    4.5966    2.9492 O.co2     1 ATP        -0.8519
     11 O2A        -2.6992    4.5683    0.5704 O.co2     1 ATP        -0.8519
     12 O3A        -3.9117    2.5115    1.4682 O.3       1 ATP        -0.8093
     13 O5'        -1.7337    3.1724    2.4752 O.3       1 ATP        -0.5649
     14 C5'        -0.8811    2.4285    1.6206 C.3       1 ATP         0.1979
     15 C4'        -0.1994    1.3333    2.4288 C.3       1 ATP         0.1179
     16 O4'        -1.1285    0.2356    2.5840 O.3       1 ATP        -0.3878
     17 C3'         1.0324    0.7610    1.7344 C.3       1 ATP         0.1185
     18 O3'         1.9175    0.2377    2.7247 O.3       1 ATP        -0.5544
     19 C2'         0.4468   -0.3802    0.9263 C.3       1 ATP         0.0542
     20 O2'         1.3993   -1.3703    0.5961 O.3       1 ATP        -0.5831
     21 C1'        -0.6159   -0.9100    1.8769 C.3       1 ATP         0.2222
     22 N9         -1.7127   -1.6108    1.2130 N.pl3     1 ATP        -0.1887
     23 C8         -2.5485   -1.0808    0.2609 C.ar      1 ATP         0.4447
     24 N7         -3.4476   -1.9486   -0.1593 N.2       1 ATP        -0.6159
     25 C5         -3.1762   -3.0816    0.5530 C.ar      1 ATP         0.2195
     26 C6         -3.8510   -4.3579    0.5006 C.ar      1 ATP         0.6144
     27 N6         -4.8468   -4.5293   -0.2961 N.2       1 ATP        -0.8160
     28 N1         -3.2499   -5.2342    1.3937 N.pl3     1 ATP        -0.8611
     29 C2         -2.1646   -4.9275    2.2116 C.ar      1 ATP         0.6141
     30 N3         -1.5382   -3.7840    2.2778 N.2       1 ATP        -0.5913
     31 C4         -2.1054   -2.9018    1.4120 C.ar      1 ATP         0.0067
     32 HOG3       -5.9884   -1.8609    1.7915 H         1 ATP         0.4313
     33 HOB2       -7.3535    2.7819    1.7798 H         1 ATP         0.4716
     34 H5'1       -1.4801    1.9928    0.8147 H         1 ATP         0.0452
     35 H5'2       -0.1369    3.1041    1.1872 H         1 ATP         0.0452
     36 H4'         0.0403    1.7078    3.4343 H         1 ATP         0.0998
     37 H3'         1.5906    1.4859    1.1353 H         1 ATP         0.0544
     38 HO3'        2.6839   -0.1150    2.2479 H         1 ATP         0.3961
     39 H2'        -0.0017    0.0018    0.0005 H         1 ATP         0.0499
     40 HO2'        0.9369   -2.0558    0.0825 H         1 ATP         0.4045
     41 H1'        -0.1998   -1.6319    2.6178 H         1 ATP         0.0912
     42 H8         -2.4515   -0.0599   -0.0829 H         1 ATP         0.1090
     43 HN62       -5.1990   -5.4882   -0.2004 H         1 ATP         0.3694
     44 H2         -1.8555   -5.7783    2.8388 H         1 ATP         0.0371
     45 H45        -3.6312   -6.1750    1.4526 H         1 ATP         0.4283
@<TRIPOS>BOND
     1    1    2 2
     2    1    3 1
     3    1    4 1
     4    1    8 1
     5    4   32 1
     6    5    6 2
     7    5    7 1
     8    5    8 1
     9    5   12 1
    10    7   33 1
    11    9   10 2
    12    9   11 1
    13    9   12 1
    14    9   13 1
    15   13   14 1
    16   14   15 1
    17   14   34 1
    18   14   35 1
    19   15   16 1
    20   15   17 1
    21   15   36 1
    22   16   21 1
    23   17   18 1
    24   17   19 1
    25   17   37 1
    26   18   38 1
    27   19   20 1
    28   19   21 1
    29   19   39 1
    30   20   40 1
    31   21   22 1
    32   21   41 1
    33   22   23 ar
    34   22   31 ar
    35   23   24 ar
    36   23   42 1
    37   24   25 ar
    38   25   26 ar
    39   25   31 ar
    40   26   27 2
    41   26   28 ar
    42   27   43 1
    43   28   29 ar
    44   28   45 1
    45   29   30 ar
    46   29   44 1
    47   30   31 ar
@<TRIPOS>SUBSTRUCTURE
     1 ATP         1 GROUP 0 A     ****
@<TRIPOS>MOLECULE
[[[3,4-dihydroxy-5-(6-imino-1~{H}-purin-9-yl)tetrahydrofuran-2-yl]methoxy-oxido-phosphoryl]oxy-hydroxy-phosphoryl] hydrogen phosphate
   45    47     1     0     0
SMALL
USER_CHARGES

@<TRIPOS>ATOM
      1 PG         -5.6345    2.0184   -2.9580 P.3       1 ATP         1.5496
      2 O1G        -5.1639    2.8179   -4.1526 O.co2     1 ATP        -0.8494
      3 O2G        -7.0799    2.0616   -2.5148 O.co2     1 ATP        -0.8494
      4 O3G        -5.2059    0.4581   -3.1773 O.3       1 ATP        -0.7845
      5 PB         -4.4970    3.7294   -0.8423 P.3       1 ATP         1.9068
      6 O1B        -4.0308    4.9124   -1.6383 O.2       1 ATP        -0.8942
      7 O2B        -5.9243    3.9176   -0.1070 O.3       1 ATP        -0.8166
      8 O3B        -4.6767    2.3606   -1.6830 O.3       1 ATP        -0.8194
      9 PA         -2.9646    4.0417    1.6588 P.3       1 ATP         1.5903
     10 O1A        -4.1352    4.3308    2.5732 O.co2     1 ATP        -0.8519
     11 O2A        -2.0510    5.1559    1.1963 O.co2     1 ATP        -0.8519
     12 O3A        -3.5097    3.2459    0.3413 O.3       1 ATP        -0.8093
     13 O5'        -2.0402    2.8619    2.3130 O.3       1 ATP        -0.5649
     14 C5'        -0.8811    2.4285    1.6206 C.3       1 ATP         0.1979
     15 C4'        -0.1994    1.3333    2.4288 C.3       1 ATP         0.1179
     16 O4'        -1.1285    0.2356    2.5840 O.3       1 ATP        -0.3878
     17 C3'         1.0324    0.7610    1.7344 C.3       1 ATP         0.1185
     18 O3'         1.9175    0.2377    2.7247 O.3       1 ATP        -0.5544
     19 C2'         0.4468   -0.3802    0.9263 C.3       1 ATP         0.0542
     20 O2'         1.3993   -1.3703    0.5961 O.3       1 ATP        -0.5831
     21 C1'        -0.6159   -0.9100    1.8769 C.3       1 ATP         0.2222
     22 N9         -1.7127   -1.6108    1.2130 N.pl3     1 ATP        -0.1887
     23 C8         -2.8662   -1.0361    0.7388 C.ar      1 ATP         0.4447
     24 N7         -3.6774   -1.9166    0.1867 N.2       1 ATP        -0.6159
     25 C5         -3.0159   -3.1045    0.3123 C.ar      1 ATP         0.2195
     26 C6         -3.4377   -4.4169   -0.1199 C.ar      1 ATP         0.6144
     27 N6         -4.5720   -4.5691   -0.7080 N.2       1 ATP        -0.8160
     28 N1         -2.4600   -5.3463    0.2071 N.pl3     1 ATP        -0.8611
     29 C2         -1.2595   -5.0554    0.8515 C.ar      1 ATP         0.6141
     30 N3         -0.8555   -3.8803    1.2516 N.2       1 ATP        -0.5913
     31 C4         -1.7946   -2.9457    0.9448 C.ar      1 ATP         0.0067
     32 HOG3       -5.4423   -0.1929   -2.4826 H         1 ATP         0.4313
     33 HOB2       -6.0282    4.6386    0.5501 H         1 ATP         0.4716
     34 H5'1       -1.1769    2.0503    0.6369 H         1 ATP         0.0452
     35 H5'2       -0.2081    3.2815    1.4877 H         1 ATP         0.0452
     36 H4'         0.0403    1.7078    3.4343 H         1 ATP         0.0998
     37 H3'         1.5906    1.4859    1.1353 H         1 ATP         0.0544
     38 HO3'        2.6839   -0.1150    2.2479 H         1 ATP         0.3961
     39 H2'        -0.0017    0.0018    0.0005 H         1 ATP         0.0499
     40 HO2'        2.0953   -0.9375    0.0709 H         1 ATP         0.4045
     41 H1'        -0.1998   -1.6319    2.6178 H         1 ATP         0.0912
     42 H8         -3.0558    0.0252    0.8256 H         1 ATP         0.1090
     43 HN62       -4.7047   -5.5592   -0.9421 H         1 ATP         0.3694
     44 H2         -0.6372   -5.9505    1.0077 H         1 ATP         0.0371
     45 H45        -2.6338   -6.3155   -0.0469 H         1 ATP         0.4283
@<TRIPOS>BOND
     1    1    2 2
     2    1    3 1
     3    1    4 1
     4    1    8 1
     5    4   32 1
     6    5    6 2
     7    5    7 1
     8    5    8 1
     9    5   12 1
    10    7   33 1
    11    9   10 2
    12    9   11 1
    13    9   12 1
    14    9   13 1
    15   13   14 1
    16   14   15 1
    17   14   34 1
    18   14   35 1
    19   15   16 1
    20   15   17 1
    21   15   36 1
    22   16   21 1
    23   17   18 1
    24   17   19 1
    25   17   37 1
    26   18   38 1
    27   19   20 1
    28   19   21 1
    29   19   39 1
    30   20   40 1
    31   21   22 1
    32   21   41 1
    33   22   23 ar
    34   22   31 ar
    35   23   24 ar
    36   23   42 1
    37   24   25 ar
    38   25   26 ar
    39   25   31 ar
    40   26   27 2
    41   26   28 ar
    42   27   43 1
    43   28   29 ar
    44   28   45 1
    45   29   30 ar
    46   29   44 1
    47   30   31 ar
@<TRIPOS>SUBSTRUCTURE
     1 ATP         1 GROUP 0 A     ****
@<TRIPOS>MOLECULE
[[[3,4-dihydroxy-5-(6-imino-1~{H}-purin-9-yl)tetrahydrofuran-2-yl]methoxy-oxido-phosphoryl]oxy-hydroxy-phosphoryl] hydrogen phosphate
   45    47     1     0     0
SMALL
USER_CHARGES

@<TRIPOS>ATOM
      1 PG          0.6449    7.4262    1.8660 P.3       1 ATP         1.5496
      2 O1G         0.3111    6.9431    0.4721 O.co2     1 ATP        -0.8494
      3 O2G         1.8541    6.8957    2.6033 O.co2     1 ATP        -0.8494
      4 O3G         0.7253    9.0569    1.8439 O.3       1 ATP        -0.7845
      5 PB         -1.4292    5.9257    3.3304 P.3       1 ATP         1.9068
      6 O1B        -0.5920    4.9932    4.1550 O.2       1 ATP        -0.8942
      7 O2B        -2.7481    6.4980    4.0698 O.3       1 ATP        -0.8166
      8 O3B        -0.6721    7.2569    2.8131 O.3       1 ATP        -0.8194
      9 PA         -2.9646    4.0417    1.6588 P.3       1 ATP         1.5903
     10 O1A        -3.0698    3.8297    0.1641 O.co2     1 ATP        -0.8519
     11 O2A        -4.2080    4.1930    2.5078 O.co2     1 ATP        -0.8519
     12 O3A        -1.9921    5.3225    1.9416 O.3       1 ATP        -0.8093
     13 O5'        -2.0402    2.8619    2.3130 O.3       1 ATP        -0.5649
     14 C5'        -0.8811    2.4285    1.6206 C.3       1 ATP         0.1979
     15 C4'        -0.1994    1.3333    2.4288 C.3       1 ATP         0.1179
     16 O4'        -1.1285    0.2356    2.5840 O.3       1 ATP        -0.3878
     17 C3'         1.0324    0.7610    1.7344 C.3       1 ATP         0.1185
     18 O3'         1.9175    0.2377    2.7247 O.3       1 ATP        -0.5544
     19 C2'         0.4468   -0.3802    0.9263 C.3       1 ATP         0.0542
     20 O2'         1.3993   -1.3703    0.5961 O.3       1 ATP        -0.5831
     21 C1'        -0.6159   -0.9100    1.8769 C.3       1 ATP         0.2222
     22 N9         -1.7127   -1.6108    1.2130 N.pl3     1 ATP        -0.1887
     23 C8         -2.8662   -1.0361    0.7388 C.ar      1 ATP         0.4447
     24 N7         -3.6774   -1.9166    0.1867 N.2       1 ATP        -0.6159
     25 C5         -3.0159   -3.1045    0.3123 C.ar      1 ATP         0.2195
     26 C6         -3.4377   -4.4169   -0.1199 C.ar      1 ATP         0.6144
     27 N6         -4.5720   -4.5691   -0.7080 N.2       1 ATP        -0.8160
     28 N1         -2.4600   -5.3463    0.2071 N.pl3     1 ATP        -0.8611
     29 C2         -1.2595   -5.0554    0.8515 C.ar      1 ATP         0.6141
     30 N3         -0.8555   -3.8803    1.2516 N.2       1 ATP        -0.5913
     31 C4         -1.7946   -2.9457    0.9448 C.ar      1 ATP         0.0067
     32 HOG3        0.9348    9.5252    2.6799 H         1 ATP         0.4313
     33 HOB2       -3.4277    5.8648    4.3852 H         1 ATP         0.4716
     34 H5'1       -1.1769    2.0503    0.6369 H         1 ATP         0.0452
     35 H5'2       -0.2081    3.2815    1.4877 H         1 ATP         0.0452
     36 H4'         0.0403    1.7078    3.4343 H         1 ATP         0.0998
     37 H3'         1.5906    1.4859    1.1353 H         1 ATP         0.0544
     38 HO3'        2.6839   -0.1150    2.2479 H         1 ATP         0.3961
     39 H2'        -0.0017    0.0018    0.0005 H         1 ATP         0.0499
     40 HO2'        2.0953   -0.9375    0.0709 H         1 ATP         0.4045
     41 H1'        -0.1998   -1.6319    2.6178 H         1 ATP         0.0912
     42 H8         -3.0558    0.0252    0.8256 H         1 ATP         0.1090
     43 HN62       -4.7047   -5.5592   -0.9421 H         1 ATP         0.3694
     44 H2         -0.6372   -5.9505    1.0077 H         1 ATP         0.0371
     45 H45        -2.6338   -6.3155   -0.0469 H         1 ATP         0.4283
@<TRIPOS>BOND
     1    1    2 2
     2    1    3 1
     3    1    4 1
     4    1    8 1
     5    4   32 1
     6    5    6 2
     7    5    7 1
     8    5    8 1
     9    5   12 1
    10    7   33 1
    11    9   10 2
    12    9   11 1
    13    9   12 1
    14    9   13 1
    15   13   14 1
    16   14   15 1
    17   14   34 1
    18   14   35 1
    19   15   16 1
    20   15   17 1
    21   15   36 1
    22   16   21 1
    23   17   18 1
    24   17   19 1
    25   17   37 1
    26   18   38 1
    27   19   20 1
    28   19   21 1
    29   19   39 1
    30   20   40 1
    31   21   22 1
    32   21   41 1
    33   22   23 ar
    34   22   31 ar
    35   23   24 ar
    36   23   42 1
    37   24   25 ar
    38   25   26 ar
    39   25   31 ar
    40   26   27 2
    41   26   28 ar
    42   27   43 1
    43   28   29 ar
    44   28   45 1
    45   29   30 ar
    46   29   44 1
    47   30   31 ar
@<TRIPOS>SUBSTRUCTURE
     1 ATP         1 GROUP 0 A     ****
@<TRIPOS>MOLECULE
[[[3,4-dihydroxy-5-(6-imino-1~{H}-purin-9-yl)tetrahydrofuran-2-yl]methoxy-oxido-phosphoryl]oxy-hydroxy-phosphoryl] hydrogen phosphate
   45    47     1     0     0
SMALL
USER_CHARGES

@<TRIPOS>ATOM
      1 PG         -3.8830    5.7610   -2.8901 P.3       1 ATP         1.5496
      2 O1G        -5.0742    6.6635   -2.6567 O.co2     1 ATP        -0.8494
      3 O2G        -3.8265    4.8442   -4.0916 O.co2     1 ATP        -0.8494
      4 O3G        -2.5294    6.6741   -2.8706 O.3       1 ATP        -0.7845
      5 PB         -4.4970    3.7294   -0.8423 P.3       1 ATP         1.9068
      6 O1B        -5.8725    4.1479   -0.4145 O.2       1 ATP        -0.8942
      7 O2B        -4.4507    2.5153   -1.9088 O.3       1 ATP        -0.8166
      8 O3B        -3.6104    4.8867   -1.5406 O.3       1 ATP        -0.8194
      9 PA         -2.9646    4.0417    1.6588 P.3       1 ATP         1.5903
     10 O1A        -4.1352    4.3308    2.5732 O.co2     1 ATP        -0.8519
     11 O2A        -2.0510    5.1559    1.1963 O.co2     1 ATP        -0.8519
     12 O3A        -3.5097    3.2459    0.3413 O.3       1 ATP        -0.8093
     13 O5'        -2.0402    2.8619    2.3130 O.3       1 ATP        -0.5649
     14 C5'        -0.8811    2.4285    1.6206 C.3       1 ATP         0.1979
     15 C4'        -0.1994    1.3333    2.4288 C.3       1 ATP         0.1179
     16 O4'        -1.1285    0.2356    2.5840 O.3       1 ATP        -0.3878
     17 C3'         1.0324    0.7610    1.7344 C.3       1 ATP         0.1185
     18 O3'         1.9175    0.2377    2.7247 O.3       1 ATP        -0.5544
     19 C2'         0.4468   -0.3802    0.9263 C.3       1 ATP         0.0542
     20 O2'         1.3993   -1.3703    0.5961 O.3       1 ATP        -0.5831
     21 C1'        -0.6159   -0.9100    1.8769 C.3       1 ATP         0.2222
     22 N9         -1.7127   -1.6108    1.2130 N.pl3     1 ATP        -0.1887
     23 C8         -2.8662   -1.0361    0.7388 C.ar      1 ATP         0.4447
     24 N7         -3.6774   -1.9166    0.1867 N.2       1 ATP        -0.6159
     25 C5         -3.0159   -3.1045    0.3123 C.ar      1 ATP         0.2195
     26 C6         -3.4377   -4.4169   -0.1199 C.ar      1 ATP         0.6144
     27 N6         -4.5720   -4.5691   -0.7080 N.2       1 ATP        -0.8160
     28 N1         -2.4600   -5.3463    0.2071 N.pl3     1 ATP        -0.8611
     29 C2         -1.2595   -5.0554    0.8515 C.ar      1 ATP         0.6141
     30 N3         -0.8555   -3.8803    1.2516 N.2       1 ATP        -0.5913
     31 C4         -1.7946   -2.9457    0.9448 C.ar      1 ATP         0.0067
     32 HOG3       -1.6654    6.2308   -3.0089 H         1 ATP         0.4313
     33 HOB2       -4.8412    1.6504   -1.6605 H         1 ATP         0.4716
     34 H5'1       -1.1769    2.0503    0.6369 H         1 ATP         0.0452
     35 H5'2       -0.2081    3.2815    1.4877 H         1 ATP         0.0452
     36 H4'         0.0403    1.7078    3.4343 H         1 ATP         0.0998
     37 H3'         1.5906    1.4859    1.1353 H         1 ATP         0.0544
     38 HO3'        2.6839   -0.1150    2.2479 H         1 ATP         0.3961
     39 H2'        -0.0017    0.0018    0.0005 H         1 ATP         0.0499
     40 HO2'        2.0953   -0.9375    0.0709 H         1 ATP         0.4045
     41 H1'        -0.1998   -1.6319    2.6178 H         1 ATP         0.0912
     42 H8         -3.0558    0.0252    0.8256 H         1 ATP         0.1090
     43 HN62       -4.7047   -5.5592   -0.9421 H         1 ATP         0.3694
     44 H2         -0.6372   -5.9505    1.0077 H         1 ATP         0.0371
     45 H45        -2.6338   -6.3155   -0.0469 H         1 ATP         0.4283
@<TRIPOS>BOND
     1    1    2 2
     2    1    3 1
     3    1    4 1
     4    1    8 1
     5    4   32 1
     6    5    6 2
     7    5    7 1
     8    5    8 1
     9    5   12 1
    10    7   33 1
    11    9   10 2
    12    9   11 1
    13    9   12 1
    14    9   13 1
    15   13   14 1
    16   14   15 1
    17   14   34 1
    18   14   35 1
    19   15   16 1
    20   15   17 1
    21   15   36 1
    22   16   21 1
    23   17   18 1
    24   17   19 1
    25   17   37 1
    26   18   38 1
    27   19   20 1
    28   19   21 1
    29   19   39 1
    30   20   40 1
    31   21   22 1
    32   21   41 1
    33   22   23 ar
    34   22   31 ar
    35   23   24 ar
    36   23   42 1
    37   24   25 ar
    38   25   26 ar
    39   25   31 ar
    40   26   27 2
    41   26   28 ar
    42   27   43 1
    43   28   29 ar
    44   28   45 1
    45   29   30 ar
    46   29   44 1
    47   30   31 ar
@<TRIPOS>SUBSTRUCTURE
     1 ATP         1 GROUP 0 A     ****
@<TRIPOS>MOLECULE
[[[3,4-dihydroxy-5-(6-imino-1~{H}-purin-9-yl)tetrahydrofuran-2-yl]methoxy-oxido-phosphoryl]oxy-hydroxy-phosphoryl] hydrogen phosphate
   45    47     1     0     0
SMALL
USER_CHARGES

@<TRIPOS>ATOM
      1 PG          0.6449    7.4262    1.8660 P.3       1 ATP         1.5496
      2 O1G         0.3111    6.9431    0.4721 O.co2     1 ATP        -0.8494
      3 O2G         1.8541    6.8957    2.6033 O.co2     1 ATP        -0.8494
      4 O3G         0.7253    9.0569    1.8439 O.3       1 ATP        -0.7845
      5 PB         -1.4292    5.9257    3.3304 P.3       1 ATP         1.9068
      6 O1B        -0.5920    4.9932    4.1550 O.2       1 ATP        -0.8942
      7 O2B        -2.7481    6.4980    4.0698 O.3       1 ATP        -0.8166
      8 O3B        -0.6721    7.2569    2.8131 O.3       1 ATP        -0.8194
      9 PA         -2.9646    4.0417    1.6588 P.3       1 ATP         1.5903
     10 O1A        -3.0698    3.8297    0.1641 O.co2     1 ATP        -0.8519
     11 O2A        -4.2080    4.1930    2.5078 O.co2     1 ATP        -0.8519
     12 O3A        -1.9921    5.3225    1.9416 O.3       1 ATP        -0.8093
     13 O5'        -2.0402    2.8619    2.3130 O.3       1 ATP        -0.5649
     14 C5'        -0.8811    2.4285    1.6206 C.3       1 ATP         0.1979
     15 C4'        -0.1994    1.3333    2.4288 C.3       1 ATP         0.1179
     16 O4'        -1.1285    0.2356    2.5840 O.3       1 ATP        -0.3878
     17 C3'         1.0324    0.7610    1.7344 C.3       1 ATP         0.1185
     18 O3'         1.9175    0.2377    2.7247 O.3       1 ATP        -0.5544
     19 C2'         0.4468   -0.3802    0.9263 C.3       1 ATP         0.0542
     20 O2'         1.3993   -1.3703    0.5961 O.3       1 ATP        -0.5831
     21 C1'        -0.6159   -0.9100    1.8769 C.3       1 ATP         0.2222
     22 N9         -1.7127   -1.6108    1.2130 N.pl3     1 ATP        -0.1887
     23 C8         -1.7690   -2.9583    0.9549 C.ar      1 ATP         0.4447
     24 N7         -2.8827   -3.3076    0.3418 N.2       1 ATP        -0.6159
     25 C5         -3.5683   -2.1351    0.2017 C.ar      1 ATP         0.2195
     26 C6         -4.8617   -1.9185   -0.4044 C.ar      1 ATP         0.6144
     27 N6         -5.5166   -2.9094   -0.8994 N.2       1 ATP        -0.8160
     28 N1         -5.1836   -0.5701   -0.3344 N.pl3     1 ATP        -0.8611
     29 C2         -4.3821    0.4180    0.2330 C.ar      1 ATP         0.6141
     30 N3         -3.2117    0.2488    0.7860 N.2       1 ATP        -0.5913
     31 C4         -2.8672   -1.0657    0.7327 C.ar      1 ATP         0.0067
     32 HOG3        0.9348    9.5252    2.6799 H         1 ATP         0.4313
     33 HOB2       -3.4277    5.8648    4.3852 H         1 ATP         0.4716
     34 H5'1       -1.1769    2.0503    0.6369 H         1 ATP         0.0452
     35 H5'2       -0.2081    3.2815    1.4877 H         1 ATP         0.0452
     36 H4'         0.0403    1.7078    3.4343 H         1 ATP         0.0998
     37 H3'         1.5906    1.4859    1.1353 H         1 ATP         0.0544
     38 HO3'        2.6839   -0.1150    2.2479 H         1 ATP         0.3961
     39 H2'        -0.0017    0.0018    0.0005 H         1 ATP         0.0499
     40 HO2'        2.0953   -0.9375    0.0709 H         1 ATP         0.4045
     41 H1'        -0.1998   -1.6319    2.6178 H         1 ATP         0.0912
     42 H8         -0.9697   -3.6300    1.2371 H         1 ATP         0.1090
     43 HN62       -6.4060   -2.5723   -1.2840 H         1 ATP         0.3694
     44 H2         -4.8409    1.4176    0.1757 H         1 ATP         0.0371
     45 H45        -6.0768   -0.2826   -0.7263 H         1 ATP         0.4283
@<TRIPOS>BOND
     1    1    2 2
     2    1    3 1
     3    1    4 1
     4    1    8 1
     5    4   32 1
     6    5    6 2
     7    5    7 1
     8    5    8 1
     9    5   12 1
    10    7   33 1
    11    9   10 2
    12    9   11 1
    13    9   12 1
    14    9   13 1
    15   13   14 1
    16   14   15 1
    17   14   34 1
    18   14   35 1
    19   15   16 1
    20   15   17 1
    21   15   36 1
    22   16   21 1
    23   17   18 1
    24   17   19 1
    25   17   37 1
    26   18   38 1
    27   19   20 1
    28   19   21 1
    29   19   39 1
    30   20   40 1
    31   21   22 1
    32   21   41 1
    33   22   23 ar
    34   22   31 ar
    35   23   24 ar
    36   23   42 1
    37   24   25 ar
    38   25   26 ar
    39   25   31 ar
    40   26   27 2
    41   26   28 ar
    42   27   43 1
    43   28   29 ar
    44   28   45 1
    45   29   30 ar
    46   29   44 1
    47   30   31 ar
@<TRIPOS>SUBSTRUCTURE
     1 ATP         1 GROUP 0 A     ****
@<TRIPOS>MOLECULE
[[[3,4-dihydroxy-5-(6-imino-1~{H}-purin-9-yl)tetrahydrofuran-2-yl]methoxy-oxido-phosphoryl]oxy-hydroxy-phosphoryl] hydrogen phosphate
   45    47     1     0     0
SMALL
USER_CHARGES

@<TRIPOS>ATOM
      1 PG         -0.0780    7.6100    3.5191 P.3       1 ATP         1.5496
      2 O1G         0.2314    6.2188    4.0256 O.co2     1 ATP        -0.8494
      3 O2G        -0.8772    8.5823    4.3577 O.co2     1 ATP        -0.8494
      4 O3G         1.3236    8.3280    3.0874 O.3       1 ATP        -0.7845
      5 PB         -2.1893    6.8870    1.5910 P.3       1 ATP         1.9068
      6 O1B        -3.3883    7.5471    2.2050 O.2       1 ATP        -0.8942
      7 O2B        -2.1326    6.9347   -0.0239 O.3       1 ATP        -0.8166
      8 O3B        -0.7611    7.4946    2.0426 O.3       1 ATP        -0.8194
      9 PA         -2.9646    4.0417    1.6588 P.3       1 ATP         1.5903
     10 O1A        -3.0698    3.8297    0.1641 O.co2     1 ATP        -0.8519
     11 O2A        -4.2080    4.1930    2.5078 O.co2     1 ATP        -0.8519
     12 O3A        -1.9921    5.3225    1.9416 O.3       1 ATP        -0.8093
     13 O5'        -2.0402    2.8619    2.3130 O.3       1 ATP        -0.5649
     14 C5'        -0.8811    2.4285    1.6206 C.3       1 ATP         0.1979
     15 C4'        -0.1994    1.3333    2.4288 C.3       1 ATP         0.1179
     16 O4'        -1.1285    0.2356    2.5840 O.3       1 ATP        -0.3878
     17 C3'         1.0324    0.7610    1.7344 C.3       1 ATP         0.1185
     18 O3'         1.9175    0.2377    2.7247 O.3       1 ATP        -0.5544
     19 C2'         0.4468   -0.3802    0.9263 C.3       1 ATP         0.0542
     20 O2'         1.3993   -1.3703    0.5961 O.3       1 ATP        -0.5831
     21 C1'        -0.6159   -0.9100    1.8769 C.3       1 ATP         0.2222
     22 N9         -1.7127   -1.6108    1.2130 N.pl3     1 ATP        -0.1887
     23 C8         -2.8662   -1.0361    0.7388 C.ar      1 ATP         0.4447
     24 N7         -3.6774   -1.9166    0.1867 N.2       1 ATP        -0.6159
     25 C5         -3.0159   -3.1045    0.3123 C.ar      1 ATP         0.2195
     26 C6         -3.4377   -4.4169   -0.1199 C.ar      1 ATP         0.6144
     27 N6         -4.5720   -4.5691   -0.7080 N.2       1 ATP        -0.8160
     28 N1         -2.4600   -5.3463    0.2071 N.pl3     1 ATP        -0.8611
     29 C2         -1.2595   -5.0554    0.8515 C.ar      1 ATP         0.6141
     30 N3         -0.8555   -3.8803    1.2516 N.2       1 ATP        -0.5913
     31 C4         -1.7946   -2.9457    0.9448 C.ar      1 ATP         0.0067
     32 HOG3        1.2902    9.2431    2.7357 H         1 ATP         0.4313
     33 HOB2       -2.8586    6.5196   -0.5367 H         1 ATP         0.4716
     34 H5'1       -1.1769    2.0503    0.6369 H         1 ATP         0.0452
     35 H5'2       -0.2081    3.2815    1.4877 H         1 ATP         0.0452
     36 H4'         0.0403    1.7078    3.4343 H         1 ATP         0.0998
     37 H3'         1.5906    1.4859    1.1353 H         1 ATP         0.0544
     38 HO3'        2.6839   -0.1150    2.2479 H         1 ATP         0.3961
     39 H2'        -0.0017    0.0018    0.0005 H         1 ATP         0.0499
     40 HO2'        2.0953   -0.9375    0.0709 H         1 ATP         0.4045
     41 H1'        -0.1998   -1.6319    2.6178 H         1 ATP         0.0912
     42 H8         -3.0558    0.0252    0.8256 H         1 ATP         0.1090
     43 HN62       -4.7047   -5.5592   -0.9421 H         1 ATP         0.3694
     44 H2         -0.6372   -5.9505    1.0077 H         1 ATP         0.0371
     45 H45        -2.6338   -6.3155   -0.0469 H         1 ATP         0.4283
@<TRIPOS>BOND
     1    1    2 2
     2    1    3 1
     3    1    4 1
     4    1    8 1
     5    4   32 1
     6    5    6 2
     7    5    7 1
     8    5    8 1
     9    5   12 1
    10    7   33 1
    11    9   10 2
    12    9   11 1
    13    9   12 1
    14    9   13 1
    15   13   14 1
    16   14   15 1
    17   14   34 1
    18   14   35 1
    19   15   16 1
    20   15   17 1
    21   15   36 1
    22   16   21 1
    23   17   18 1
    24   17   19 1
    25   17   37 1
    26   18   38 1
    27   19   20 1
    28   19   21 1
    29   19   39 1
    30   20   40 1
    31   21   22 1
    32   21   41 1
    33   22   23 ar
    34   22   31 ar
    35   23   24 ar
    36   23   42 1
    37   24   25 ar
    38   25   26 ar
    39   25   31 ar
    40   26   27 2
    41   26   28 ar
    42   27   43 1
    43   28   29 ar
    44   28   45 1
    45   29   30 ar
    46   29   44 1
    47   30   31 ar
@<TRIPOS>SUBSTRUCTURE
     1 ATP         1 GROUP 0 A     ****
@<TRIPOS>MOLECULE
[[[3,4-dihydroxy-5-(6-imino-1~{H}-purin-9-yl)tetrahydrofuran-2-yl]methoxy-oxido-phosphoryl]oxy-hydroxy-phosphoryl] hydrogen phosphate
   45    47     1     0     0
SMALL
USER_CHARGES

@<TRIPOS>ATOM
      1 PG          0.6973    2.7517   -3.7181 P.3       1 ATP         1.5496
      2 O1G         1.1646    1.9817   -2.5030 O.co2     1 ATP        -0.8494
      3 O2G         1.6554    3.6189   -4.5040 O.co2     1 ATP        -0.8494
      4 O3G        -0.0216    1.7084   -4.7480 O.3       1 ATP        -0.7845
      5 PB         -0.7539    4.9000   -2.3121 P.3       1 ATP         1.9068
      6 O1B         0.0710    6.0994   -2.6743 O.2       1 ATP        -0.8942
      7 O2B        -2.3485    5.1587   -2.2484 O.3       1 ATP        -0.8166
      8 O3B        -0.6103    3.6375   -3.3113 O.3       1 ATP        -0.8194
      9 PA         -0.4664    4.8322    0.6228 P.3       1 ATP         1.5903
     10 O1A        -1.9047    5.1495    0.9699 O.co2     1 ATP        -0.8519
     11 O2A         0.6096    5.8893    0.7433 O.co2     1 ATP        -0.8519
     12 O3A        -0.4131    4.2167   -0.8886 O.3       1 ATP        -0.8093
     13 O5'         0.0180    3.5131    1.4595 O.3       1 ATP        -0.5649
     14 C5'        -0.8811    2.4285    1.6206 C.3       1 ATP         0.1979
     15 C4'        -0.1994    1.3333    2.4288 C.3       1 ATP         0.1179
     16 O4'        -1.1285    0.2356    2.5840 O.3       1 ATP        -0.3878
     17 C3'         1.0324    0.7610    1.7344 C.3       1 ATP         0.1185
     18 O3'         1.9175    0.2377    2.7247 O.3       1 ATP        -0.5544
     19 C2'         0.4468   -0.3802    0.9263 C.3       1 ATP         0.0542
     20 O2'         1.3993   -1.3703    0.5961 O.3       1 ATP        -0.5831
     21 C1'        -0.6159   -0.9100    1.8769 C.3       1 ATP         0.2222
     22 N9         -1.7127   -1.6108    1.2130 N.pl3     1 ATP        -0.1887
     23 C8         -2.8662   -1.0361    0.7388 C.ar      1 ATP         0.4447
     24 N7         -3.6774   -1.9166    0.1867 N.2       1 ATP        -0.6159
     25 C5         -3.0159   -3.1045    0.3123 C.ar      1 ATP         0.2195
     26 C6         -3.4377   -4.4169   -0.1199 C.ar      1 ATP         0.6144
     27 N6         -4.5720   -4.5691   -0.7080 N.2       1 ATP        -0.8160
     28 N1         -2.4600   -5.3463    0.2071 N.pl3     1 ATP        -0.8611
     29 C2         -1.2595   -5.0554    0.8515 C.ar      1 ATP         0.6141
     30 N3         -0.8555   -3.8803    1.2516 N.2       1 ATP        -0.5913
     31 C4         -1.7946   -2.9457    0.9448 C.ar      1 ATP         0.0067
     32 HOG3       -0.3810    2.0579   -5.5911 H         1 ATP         0.4313
     33 HOB2       -2.6965    5.8235   -1.6166 H         1 ATP         0.4716
     34 H5'1       -1.7770    2.7851    2.1387 H         1 ATP         0.0452
     35 H5'2       -1.1653    2.0543    0.6320 H         1 ATP         0.0452
     36 H4'         0.0403    1.7078    3.4343 H         1 ATP         0.0998
     37 H3'         1.5906    1.4859    1.1353 H         1 ATP         0.0544
     38 HO3'        2.6839   -0.1150    2.2479 H         1 ATP         0.3961
     39 H2'        -0.0017    0.0018    0.0005 H         1 ATP         0.0499
     40 HO2'        2.0953   -0.9375    0.0709 H         1 ATP         0.4045
     41 H1'        -0.1998   -1.6319    2.6178 H         1 ATP         0.0912
     42 H8         -3.0558    0.0252    0.8256 H         1 ATP         0.1090
     43 HN62       -4.7047   -5.5592   -0.9421 H         1 ATP         0.3694
     44 H2         -0.6372   -5.9505    1.0077 H         1 ATP         0.0371
     45 H45        -2.6338   -6.3155   -0.0469 H         1 ATP         0.4283
@<TRIPOS>BOND
     1    1    2 2
     2    1    3 1
     3    1    4 1
     4    1    8 1
     5    4   32 1
     6    5    6 2
     7    5    7 1
     8    5    8 1
     9    5   12 1
    10    7   33 1
    11    9   10 2
    12    9   11 1
    13    9   12 1
    14    9   13 1
    15   13   14 1
    16   14   15 1
    17   14   34 1
    18   14   35 1
    19   15   16 1
    20   15   17 1
    21   15   36 1
    22   16   21 1
    23   17   18 1
    24   17   19 1
    25   17   37 1
    26   18   38 1
    27   19   20 1
    28   19   21 1
    29   19   39 1
    30   20   40 1
    31   21   22 1
    32   21   41 1
    33   22   23 ar
    34   22   31 ar
    35   23   24 ar
    36   23   42 1
    37   24   25 ar
    38   25   26 ar
    39   25   31 ar
    40   26   27 2
    41   26   28 ar
    42   27   43 1
    43   28   29 ar
    44   28   45 1
    45   29   30 ar
    46   29   44 1
    47   30   31 ar
@<TRIPOS>SUBSTRUCTURE
     1 ATP         1 GROUP 0 A     ****
@<TRIPOS>MOLECULE
[[[3,4-dihydroxy-5-(6-imino-1~{H}-purin-9-yl)tetrahydrofuran-2-yl]methoxy-oxido-phosphoryl]oxy-hydroxy-phosphoryl] hydrogen phosphate
   45    47     1     0     0
SMALL
USER_CHARGES

@<TRIPOS>ATOM
      1 PG         -0.0780    7.6100    3.5191 P.3       1 ATP         1.5496
      2 O1G         0.2314    6.2188    4.0256 O.co2     1 ATP        -0.8494
      3 O2G        -0.8772    8.5823    4.3577 O.co2     1 ATP        -0.8494
      4 O3G         1.3236    8.3280    3.0874 O.3       1 ATP        -0.7845
      5 PB         -2.1893    6.8870    1.5910 P.3       1 ATP         1.9068
      6 O1B        -3.3883    7.5471    2.2050 O.2       1 ATP        -0.8942
      7 O2B        -2.1326    6.9347   -0.0239 O.3       1 ATP        -0.8166
      8 O3B        -0.7611    7.4946    2.0426 O.3       1 ATP        -0.8194
      9 PA         -2.9646    4.0417    1.6588 P.3       1 ATP         1.5903
     10 O1A        -3.0698    3.8297    0.1641 O.co2     1 ATP        -0.8519
     11 O2A        -4.2080    4.1930    2.5078 O.co2     1 ATP        -0.8519
     12 O3A        -1.9921    5.3225    1.9416 O.3       1 ATP        -0.8093
     13 O5'        -2.0402    2.8619    2.3130 O.3       1 ATP        -0.5649
     14 C5'        -0.8811    2.4285    1.6206 C.3       1 ATP         0.1979
     15 C4'        -0.1994    1.3333    2.4288 C.3       1 ATP         0.1179
     16 O4'        -1.1285    0.2356    2.5840 O.3       1 ATP        -0.3878
     17 C3'         1.0324    0.7610    1.7344 C.3       1 ATP         0.1185
     18 O3'         1.9175    0.2377    2.7247 O.3       1 ATP        -0.5544
     19 C2'         0.4468   -0.3802    0.9263 C.3       1 ATP         0.0542
     20 O2'         1.3993   -1.3703    0.5961 O.3       1 ATP        -0.5831
     21 C1'        -0.6159   -0.9100    1.8769 C.3       1 ATP         0.2222
     22 N9         -1.7127   -1.6108    1.2130 N.pl3     1 ATP        -0.1887
     23 C8         -1.7690   -2.9583    0.9549 C.ar      1 ATP         0.4447
     24 N7         -2.8827   -3.3076    0.3418 N.2       1 ATP        -0.6159
     25 C5         -3.5683   -2.1351    0.2017 C.ar      1 ATP         0.2195
     26 C6         -4.8617   -1.9185   -0.4044 C.ar      1 ATP         0.6144
     27 N6         -5.5166   -2.9094   -0.8994 N.2       1 ATP        -0.8160
     28 N1         -5.1836   -0.5701   -0.3344 N.pl3     1 ATP        -0.8611
     29 C2         -4.3821    0.4180    0.2330 C.ar      1 ATP         0.6141
     30 N3         -3.2117    0.2488    0.7860 N.2       1 ATP        -0.5913
     31 C4         -2.8672   -1.0657    0.7327 C.ar      1 ATP         0.0067
     32 HOG3        1.2902    9.2431    2.7357 H         1 ATP         0.4313
     33 HOB2       -2.8586    6.5196   -0.5367 H         1 ATP         0.4716
     34 H5'1       -1.1769    2.0503    0.6369 H         1 ATP         0.0452
     35 H5'2       -0.2081    3.2815    1.4877 H         1 ATP         0.0452
     36 H4'         0.0403    1.7078    3.4343 H         1 ATP         0.0998
     37 H3'         1.5906    1.4859    1.1353 H         1 ATP         0.0544
     38 HO3'        2.6839   -0.1150    2.2479 H         1 ATP         0.3961
     39 H2'        -0.0017    0.0018    0.0005 H         1 ATP         0.0499
     40 HO2'        2.0953   -0.9375    0.0709 H         1 ATP         0.4045
     41 H1'        -0.1998   -1.6319    2.6178 H         1 ATP         0.0912
     42 H8         -0.9697   -3.6300    1.2371 H         1 ATP         0.1090
     43 HN62       -6.4060   -2.5723   -1.2840 H         1 ATP         0.3694
     44 H2         -4.8409    1.4176    0.1757 H         1 ATP         0.0371
     45 H45        -6.0768   -0.2826   -0.7263 H         1 ATP         0.4283
@<TRIPOS>BOND
     1    1    2 2
     2    1    3 1
     3    1    4 1
     4    1    8 1
     5    4   32 1
     6    5    6 2
     7    5    7 1
     8    5    8 1
     9    5   12 1
    10    7   33 1
    11    9   10 2
    12    9   11 1
    13    9   12 1
    14    9   13 1
    15   13   14 1
    16   14   15 1
    17   14   34 1
    18   14   35 1
    19   15   16 1
    20   15   17 1
    21   15   36 1
    22   16   21 1
    23   17   18 1
    24   17   19 1
    25   17   37 1
    26   18   38 1
    27   19   20 1
    28   19   21 1
    29   19   39 1
    30   20   40 1
    31   21   22 1
    32   21   41 1
    33   22   23 ar
    34   22   31 ar
    35   23   24 ar
    36   23   42 1
    37   24   25 ar
    38   25   26 ar
    39   25   31 ar
    40   26   27 2
    41   26   28 ar
    42   27   43 1
    43   28   29 ar
    44   28   45 1
    45   29   30 ar
    46   29   44 1
    47   30   31 ar
@<TRIPOS>SUBSTRUCTURE
     1 ATP         1 GROUP 0 A     ****
@<TRIPOS>MOLECULE
[[[3,4-dihydroxy-5-(6-imino-1~{H}-purin-9-yl)tetrahydrofuran-2-yl]methoxy-oxido-phosphoryl]oxy-hydroxy-phosphoryl] hydrogen phosphate
   45    47     1     0     0
SMALL
USER_CHARGES

@<TRIPOS>ATOM
      1 PG         -7.6584    1.7164    3.5605 P.3       1 ATP         1.5496
      2 O1G        -7.9591    0.4231    4.2849 O.co2     1 ATP        -0.8494
      3 O2G        -8.4155    2.0999    2.3087 O.co2     1 ATP        -0.8494
      4 O3G        -7.7669    2.9462    4.6292 O.3       1 ATP        -0.7845
      5 PB         -5.1290    0.8965    2.2848 P.3       1 ATP         1.9068
      6 O1B        -5.1022   -0.5702    2.5985 O.2       1 ATP        -0.8942
      7 O2B        -5.6547    1.2708    0.8026 O.3       1 ATP        -0.8166
      8 O3B        -6.0575    1.7926    3.2582 O.3       1 ATP        -0.8194
      9 PA         -3.3346    3.2336    2.1469 P.3       1 ATP         1.5903
     10 O1A        -4.0315    4.0798    3.1901 O.co2     1 ATP        -0.8519
     11 O2A        -3.5035    3.5292    0.6725 O.co2     1 ATP        -0.8519
     12 O3A        -3.7135    1.6660    2.4019 O.3       1 ATP        -0.8093
     13 O5'        -1.7337    3.1724    2.4752 O.3       1 ATP        -0.5649
     14 C5'        -0.8811    2.4285    1.6206 C.3       1 ATP         0.1979
     15 C4'        -0.1994    1.3333    2.4288 C.3       1 ATP         0.1179
     16 O4'        -1.1285    0.2356    2.5840 O.3       1 ATP        -0.3878
     17 C3'         1.0324    0.7610    1.7344 C.3       1 ATP         0.1185
     18 O3'         1.9175    0.2377    2.7247 O.3       1 ATP        -0.5544
     19 C2'         0.4468   -0.3802    0.9263 C.3       1 ATP         0.0542
     20 O2'         1.3993   -1.3703    0.5961 O.3       1 ATP        -0.5831
     21 C1'        -0.6159   -0.9100    1.8769 C.3       1 ATP         0.2222
     22 N9         -1.7127   -1.6108    1.2130 N.pl3     1 ATP        -0.1887
     23 C8         -2.5485   -1.0808    0.2609 C.ar      1 ATP         0.4447
     24 N7         -3.4476   -1.9486   -0.1593 N.2       1 ATP        -0.6159
     25 C5         -3.1762   -3.0816    0.5530 C.ar      1 ATP         0.2195
     26 C6         -3.8510   -4.3579    0.5006 C.ar      1 ATP         0.6144
     27 N6         -4.8468   -4.5293   -0.2961 N.2       1 ATP        -0.8160
     28 N1         -3.2499   -5.2342    1.3937 N.pl3     1 ATP        -0.8611
     29 C2         -2.1646   -4.9275    2.2116 C.ar      1 ATP         0.6141
     30 N3         -1.5382   -3.7840    2.2778 N.2       1 ATP        -0.5913
     31 C4         -2.1054   -2.9018    1.4120 C.ar      1 ATP         0.0067
     32 HOG3       -7.5979    3.8582    4.3099 H         1 ATP         0.4313
     33 HOB2       -6.5621    1.0061    0.5400 H         1 ATP         0.4716
     34 H5'1       -1.4801    1.9928    0.8147 H         1 ATP         0.0452
     35 H5'2       -0.1369    3.1041    1.1872 H         1 ATP         0.0452
     36 H4'         0.0403    1.7078    3.4343 H         1 ATP         0.0998
     37 H3'         1.5906    1.4859    1.1353 H         1 ATP         0.0544
     38 HO3'        2.6839   -0.1150    2.2479 H         1 ATP         0.3961
     39 H2'        -0.0017    0.0018    0.0005 H         1 ATP         0.0499
     40 HO2'        2.0953   -0.9375    0.0709 H         1 ATP         0.4045
     41 H1'        -0.1998   -1.6319    2.6178 H         1 ATP         0.0912
     42 H8         -2.4515   -0.0599   -0.0829 H         1 ATP         0.1090
     43 HN62       -5.1990   -5.4882   -0.2004 H         1 ATP         0.3694
     44 H2         -1.8555   -5.7783    2.8388 H         1 ATP         0.0371
     45 H45        -3.6312   -6.1750    1.4526 H         1 ATP         0.4283
@<TRIPOS>BOND
     1    1    2 2
     2    1    3 1
     3    1    4 1
     4    1    8 1
     5    4   32 1
     6    5    6 2
     7    5    7 1
     8    5    8 1
     9    5   12 1
    10    7   33 1
    11    9   10 2
    12    9   11 1
    13    9   12 1
    14    9   13 1
    15   13   14 1
    16   14   15 1
    17   14   34 1
    18   14   35 1
    19   15   16 1
    20   15   17 1
    21   15   36 1
    22   16   21 1
    23   17   18 1
    24   17   19 1
    25   17   37 1
    26   18   38 1
    27   19   20 1
    28   19   21 1
    29   19   39 1
    30   20   40 1
    31   21   22 1
    32   21   41 1
    33   22   23 ar
    34   22   31 ar
    35   23   24 ar
    36   23   42 1
    37   24   25 ar
    38   25   26 ar
    39   25   31 ar
    40   26   27 2
    41   26   28 ar
    42   27   43 1
    43   28   29 ar
    44   28   45 1
    45   29   30 ar
    46   29   44 1
    47   30   31 ar
@<TRIPOS>SUBSTRUCTURE
     1 ATP         1 GROUP 0 A     ****
@<TRIPOS>MOLECULE
[[[3,4-dihydroxy-5-(6-imino-1~{H}-purin-9-yl)tetrahydrofuran-2-yl]methoxy-oxido-phosphoryl]oxy-hydroxy-phosphoryl] hydrogen phosphate
   45    47     1     0     0
SMALL
USER_CHARGES

@<TRIPOS>ATOM
      1 PG          1.4456    7.0060    0.6212 P.3       1 ATP         1.5496
      2 O1G         2.0456    8.3403    0.2372 O.co2     1 ATP        -0.8494
      3 O2G         0.7883    6.1225   -0.4155 O.co2     1 ATP        -0.8494
      4 O3G         2.5827    6.1318    1.4016 O.3       1 ATP        -0.7845
      5 PB         -0.3904    6.1566    2.7672 P.3       1 ATP         1.9068
      6 O1B         0.4699    5.1903    3.5264 O.2       1 ATP        -0.8942
      7 O2B        -1.3604    7.0735    3.6794 O.3       1 ATP        -0.8166
      8 O3B         0.4113    7.2295    1.8623 O.3       1 ATP        -0.8194
      9 PA         -2.5926    4.4186    1.8557 P.3       1 ATP         1.5903
     10 O1A        -3.1163    4.0394    0.4875 O.co2     1 ATP        -0.8519
     11 O2A        -3.5304    4.9259    2.9295 O.co2     1 ATP        -0.8519
     12 O3A        -1.3857    5.5034    1.6753 O.3       1 ATP        -0.8093
     13 O5'        -1.7337    3.1724    2.4752 O.3       1 ATP        -0.5649
     14 C5'        -0.8811    2.4285    1.6206 C.3       1 ATP         0.1979
     15 C4'        -0.1994    1.3333    2.4288 C.3       1 ATP         0.1179
     16 O4'        -1.1285    0.2356    2.5840 O.3       1 ATP        -0.3878
     17 C3'         1.0324    0.7610    1.7344 C.3       1 ATP         0.1185
     18 O3'         1.9175    0.2377    2.7247 O.3       1 ATP        -0.5544
     19 C2'         0.4468   -0.3802    0.9263 C.3       1 ATP         0.0542
     20 O2'         1.3993   -1.3703    0.5961 O.3       1 ATP        -0.5831
     21 C1'        -0.6159   -0.9100    1.8769 C.3       1 ATP         0.2222
     22 N9         -1.7127   -1.6108    1.2130 N.pl3     1 ATP        -0.1887
     23 C8         -2.8662   -1.0361    0.7388 C.ar      1 ATP         0.4447
     24 N7         -3.6774   -1.9166    0.1867 N.2       1 ATP        -0.6159
     25 C5         -3.0159   -3.1045    0.3123 C.ar      1 ATP         0.2195
     26 C6         -3.4377   -4.4169   -0.1199 C.ar      1 ATP         0.6144
     27 N6         -4.5720   -4.5691   -0.7080 N.2       1 ATP        -0.8160
     28 N1         -2.4600   -5.3463    0.2071 N.pl3     1 ATP        -0.8611
     29 C2         -1.2595   -5.0554    0.8515 C.ar      1 ATP         0.6141
     30 N3         -0.8555   -3.8803    1.2516 N.2       1 ATP        -0.5913
     31 C4         -1.7946   -2.9457    0.9448 C.ar      1 ATP         0.0067
     32 HOG3        2.3457    5.2339    1.7176 H         1 ATP         0.4313
     33 HOB2       -2.0278    6.6364    4.2501 H         1 ATP         0.4716
     34 H5'1       -1.4801    1.9928    0.8147 H         1 ATP         0.0452
     35 H5'2       -0.1369    3.1041    1.1872 H         1 ATP         0.0452
     36 H4'         0.0403    1.7078    3.4343 H         1 ATP         0.0998
     37 H3'         1.5906    1.4859    1.1353 H         1 ATP         0.0544
     38 HO3'        2.6839   -0.1150    2.2479 H         1 ATP         0.3961
     39 H2'        -0.0017    0.0018    0.0005 H         1 ATP         0.0499
     40 HO2'        2.0953   -0.9375    0.0709 H         1 ATP         0.4045
     41 H1'        -0.1998   -1.6319    2.6178 H         1 ATP         0.0912
     42 H8         -3.0558    0.0252    0.8256 H         1 ATP         0.1090
     43 HN62       -4.7047   -5.5592   -0.9421 H         1 ATP         0.3694
     44 H2         -0.6372   -5.9505    1.0077 H         1 ATP         0.0371
     45 H45        -2.6338   -6.3155   -0.0469 H         1 ATP         0.4283
@<TRIPOS>BOND
     1    1    2 2
     2    1    3 1
     3    1    4 1
     4    1    8 1
     5    4   32 1
     6    5    6 2
     7    5    7 1
     8    5    8 1
     9    5   12 1
    10    7   33 1
    11    9   10 2
    12    9   11 1
    13    9   12 1
    14    9   13 1
    15   13   14 1
    16   14   15 1
    17   14   34 1
    18   14   35 1
    19   15   16 1
    20   15   17 1
    21   15   36 1
    22   16   21 1
    23   17   18 1
    24   17   19 1
    25   17   37 1
    26   18   38 1
    27   19   20 1
    28   19   21 1
    29   19   39 1
    30   20   40 1
    31   21   22 1
    32   21   41 1
    33   22   23 ar
    34   22   31 ar
    35   23   24 ar
    36   23   42 1
    37   24   25 ar
    38   25   26 ar
    39   25   31 ar
    40   26   27 2
    41   26   28 ar
    42   27   43 1
    43   28   29 ar
    44   28   45 1
    45   29   30 ar
    46   29   44 1
    47   30   31 ar
@<TRIPOS>SUBSTRUCTURE
     1 ATP         1 GROUP 0 A     ****
@<TRIPOS>MOLECULE
[[[3,4-dihydroxy-5-(6-imino-1~{H}-purin-9-yl)tetrahydrofuran-2-yl]methoxy-oxido-phosphoryl]oxy-hydroxy-phosphoryl] hydrogen phosphate
   45    47     1     0     0
SMALL
USER_CHARGES

@<TRIPOS>ATOM
      1 PG         -7.1514    4.9652   -0.4892 P.3       1 ATP         1.5496
      2 O1G        -7.9471    4.0059   -1.3461 O.co2     1 ATP        -0.8494
      3 O2G        -6.8103    6.3520   -0.9872 O.co2     1 ATP        -0.8494
      4 O3G        -7.8917    5.1022    0.9597 O.3       1 ATP        -0.7845
      5 PB         -4.4970    3.7294   -0.8423 P.3       1 ATP         1.9068
      6 O1B        -4.7838    2.7138   -1.9084 O.2       1 ATP        -0.8942
      7 O2B        -3.8306    5.1053   -1.3681 O.3       1 ATP        -0.8166
      8 O3B        -5.7835    4.2249    0.0016 O.3       1 ATP        -0.8194
      9 PA         -2.9646    4.0417    1.6588 P.3       1 ATP         1.5903
     10 O1A        -4.1352    4.3308    2.5732 O.co2     1 ATP        -0.8519
     11 O2A        -2.0510    5.1559    1.1963 O.co2     1 ATP        -0.8519
     12 O3A        -3.5097    3.2459    0.3413 O.3       1 ATP        -0.8093
     13 O5'        -2.0402    2.8619    2.3130 O.3       1 ATP        -0.5649
     14 C5'        -0.8811    2.4285    1.6206 C.3       1 ATP         0.1979
     15 C4'        -0.1994    1.3333    2.4288 C.3       1 ATP         0.1179
     16 O4'        -1.1285    0.2356    2.5840 O.3       1 ATP        -0.3878
     17 C3'         1.0324    0.7610    1.7344 C.3       1 ATP         0.1185
     18 O3'         1.9175    0.2377    2.7247 O.3       1 ATP        -0.5544
     19 C2'         0.4468   -0.3802    0.9263 C.3       1 ATP         0.0542
     20 O2'         1.3993   -1.3703    0.5961 O.3       1 ATP        -0.5831
     21 C1'        -0.6159   -0.9100    1.8769 C.3       1 ATP         0.2222
     22 N9         -1.7127   -1.6108    1.2130 N.pl3     1 ATP        -0.1887
     23 C8         -2.8662   -1.0361    0.7388 C.ar      1 ATP         0.4447
     24 N7         -3.6774   -1.9166    0.1867 N.2       1 ATP        -0.6159
     25 C5         -3.0159   -3.1045    0.3123 C.ar      1 ATP         0.2195
     26 C6         -3.4377   -4.4169   -0.1199 C.ar      1 ATP         0.6144
     27 N6         -4.5720   -4.5691   -0.7080 N.2       1 ATP        -0.8160
     28 N1         -2.4600   -5.3463    0.2071 N.pl3     1 ATP        -0.8611
     29 C2         -1.2595   -5.0554    0.8515 C.ar      1 ATP         0.6141
     30 N3         -0.8555   -3.8803    1.2516 N.2       1 ATP        -0.5913
     31 C4         -1.7946   -2.9457    0.9448 C.ar      1 ATP         0.0067
     32 HOG3       -7.4937    5.6942    1.6330 H         1 ATP         0.4313
     33 HOB2       -4.3201    5.6508   -2.0201 H         1 ATP         0.4716
     34 H5'1       -1.1769    2.0503    0.6369 H         1 ATP         0.0452
     35 H5'2       -0.2081    3.2815    1.4877 H         1 ATP         0.0452
     36 H4'         0.0403    1.7078    3.4343 H         1 ATP         0.0998
     37 H3'         1.5906    1.4859    1.1353 H         1 ATP         0.0544
     38 HO3'        2.6839   -0.1150    2.2479 H         1 ATP         0.3961
     39 H2'        -0.0017    0.0018    0.0005 H         1 ATP         0.0499
     40 HO2'        2.0953   -0.9375    0.0709 H         1 ATP         0.4045
     41 H1'        -0.1998   -1.6319    2.6178 H         1 ATP         0.0912
     42 H8         -3.0558    0.0252    0.8256 H         1 ATP         0.1090
     43 HN62       -4.7047   -5.5592   -0.9421 H         1 ATP         0.3694
     44 H2         -0.6372   -5.9505    1.0077 H         1 ATP         0.0371
     45 H45        -2.6338   -6.3155   -0.0469 H         1 ATP         0.4283
@<TRIPOS>BOND
     1    1    2 2
     2    1    3 1
     3    1    4 1
     4    1    8 1
     5    4   32 1
     6    5    6 2
     7    5    7 1
     8    5    8 1
     9    5   12 1
    10    7   33 1
    11    9   10 2
    12    9   11 1
    13    9   12 1
    14    9   13 1
    15   13   14 1
    16   14   15 1
    17   14   34 1
    18   14   35 1
    19   15   16 1
    20   15   17 1
    21   15   36 1
    22   16   21 1
    23   17   18 1
    24   17   19 1
    25   17   37 1
    26   18   38 1
    27   19   20 1
    28   19   21 1
    29   19   39 1
    30   20   40 1
    31   21   22 1
    32   21   41 1
    33   22   23 ar
    34   22   31 ar
    35   23   24 ar
    36   23   42 1
    37   24   25 ar
    38   25   26 ar
    39   25   31 ar
    40   26   27 2
    41   26   28 ar
    42   27   43 1
    43   28   29 ar
    44   28   45 1
    45   29   30 ar
    46   29   44 1
    47   30   31 ar
@<TRIPOS>SUBSTRUCTURE
     1 ATP         1 GROUP 0 A     ****
@<TRIPOS>MOLECULE
[[[3,4-dihydroxy-5-(6-imino-1~{H}-purin-9-yl)tetrahydrofuran-2-yl]methoxy-oxido-phosphoryl]oxy-hydroxy-phosphoryl] hydrogen phosphate
   45    47     1     0     0
SMALL
USER_CHARGES

@<TRIPOS>ATOM
      1 PG         -6.0906    3.0173   -1.9820 P.3       1 ATP         1.5496
      2 O1G        -7.2589    3.9287   -1.6786 O.co2     1 ATP        -0.8494
      3 O2G        -6.3140    1.6132   -2.4976 O.co2     1 ATP        -0.8494
      4 O3G        -5.0818    3.7914   -3.0064 O.3       1 ATP        -0.7845
      5 PB         -5.3690    2.3333    0.7946 P.3       1 ATP         1.9068
      6 O1B        -6.5162    2.9318    1.5536 O.2       1 ATP        -0.8942
      7 O2B        -5.4815    0.7435    0.5237 O.3       1 ATP        -0.8166
      8 O3B        -5.1159    2.9554   -0.6757 O.3       1 ATP        -0.8194
      9 PA         -3.0798    3.8626    1.8537 P.3       1 ATP         1.5903
     10 O1A        -3.8221    4.5966    2.9492 O.co2     1 ATP        -0.8519
     11 O2A        -2.6992    4.5683    0.5704 O.co2     1 ATP        -0.8519
     12 O3A        -3.9117    2.5115    1.4682 O.3       1 ATP        -0.8093
     13 O5'        -1.7337    3.1724    2.4752 O.3       1 ATP        -0.5649
     14 C5'        -0.8811    2.4285    1.6206 C.3       1 ATP         0.1979
     15 C4'        -0.1994    1.3333    2.4288 C.3       1 ATP         0.1179
     16 O4'        -1.1285    0.2356    2.5840 O.3       1 ATP        -0.3878
     17 C3'         1.0324    0.7610    1.7344 C.3       1 ATP         0.1185
     18 O3'         1.9175    0.2377    2.7247 O.3       1 ATP        -0.5544
     19 C2'         0.4468   -0.3802    0.9263 C.3       1 ATP         0.0542
     20 O2'         1.3993   -1.3703    0.5961 O.3       1 ATP        -0.5831
     21 C1'        -0.6159   -0.9100    1.8769 C.3       1 ATP         0.2222
     22 N9         -1.7127   -1.6108    1.2130 N.pl3     1 ATP        -0.1887
     23 C8         -2.5485   -1.0808    0.2609 C.ar      1 ATP         0.4447
     24 N7         -3.4476   -1.9486   -0.1593 N.2       1 ATP        -0.6159
     25 C5         -3.1762   -3.0816    0.5530 C.ar      1 ATP         0.2195
     26 C6         -3.8510   -4.3579    0.5006 C.ar      1 ATP         0.6144
     27 N6         -4.8468   -4.5293   -0.2961 N.2       1 ATP        -0.8160
     28 N1         -3.2499   -5.2342    1.3937 N.pl3     1 ATP        -0.8611
     29 C2         -2.1646   -4.9275    2.2116 C.ar      1 ATP         0.6141
     30 N3         -1.5382   -3.7840    2.2778 N.2       1 ATP        -0.5913
     31 C4         -2.1054   -2.9018    1.4120 C.ar      1 ATP         0.0067
     32 HOG3       -4.2691    3.3276   -3.3005 H         1 ATP         0.4313
     33 HOB2       -6.2445    0.4024    0.0101 H         1 ATP         0.4716
     34 H5'1       -1.4801    1.9928    0.8147 H         1 ATP         0.0452
     35 H5'2       -0.1369    3.1041    1.1872 H         1 ATP         0.0452
     36 H4'         0.0403    1.7078    3.4343 H         1 ATP         0.0998
     37 H3'         1.5906    1.4859    1.1353 H         1 ATP         0.0544
     38 HO3'        2.6839   -0.1150    2.2479 H         1 ATP         0.3961
     39 H2'        -0.0017    0.0018    0.0005 H         1 ATP         0.0499
     40 HO2'        0.9369   -2.0558    0.0825 H         1 ATP         0.4045
     41 H1'        -0.1998   -1.6319    2.6178 H         1 ATP         0.0912
     42 H8         -2.4515   -0.0599   -0.0829 H         1 ATP         0.1090
     43 HN62       -5.1990   -5.4882   -0.2004 H         1 ATP         0.3694
     44 H2         -1.8555   -5.7783    2.8388 H         1 ATP         0.0371
     45 H45        -3.6312   -6.1750    1.4526 H         1 ATP         0.4283
@<TRIPOS>BOND
     1    1    2 2
     2    1    3 1
     3    1    4 1
     4    1    8 1
     5    4   32 1
     6    5    6 2
     7    5    7 1
     8    5    8 1
     9    5   12 1
    10    7   33 1
    11    9   10 2
    12    9   11 1
    13    9   12 1
    14    9   13 1
    15   13   14 1
    16   14   15 1
    17   14   34 1
    18   14   35 1
    19   15   16 1
    20   15   17 1
    21   15   36 1
    22   16   21 1
    23   17   18 1
    24   17   19 1
    25   17   37 1
    26   18   38 1
    27   19   20 1
    28   19   21 1
    29   19   39 1
    30   20   40 1
    31   21   22 1
    32   21   41 1
    33   22   23 ar
    34   22   31 ar
    35   23   24 ar
    36   23   42 1
    37   24   25 ar
    38   25   26 ar
    39   25   31 ar
    40   26   27 2
    41   26   28 ar
    42   27   43 1
    43   28   29 ar
    44   28   45 1
    45   29   30 ar
    46   29   44 1
    47   30   31 ar
@<TRIPOS>SUBSTRUCTURE
     1 ATP         1 GROUP 0 A     ****
@<TRIPOS>MOLECULE
[[[3,4-dihydroxy-5-(6-imino-1~{H}-purin-9-yl)tetrahydrofuran-2-yl]methoxy-oxido-phosphoryl]oxy-hydroxy-phosphoryl] hydrogen phosphate
   45    47     1     0     0
SMALL
USER_CHARGES

@<TRIPOS>ATOM
      1 PG          2.6669    1.2957   -2.5298 P.3       1 ATP         1.5496
      2 O1G         2.7409    0.0062   -3.3169 O.co2     1 ATP        -0.8494
      3 O2G         2.7856    1.2936   -1.0221 O.co2     1 ATP        -0.8494
      4 O3G         3.7699    2.3364   -3.1353 O.3       1 ATP        -0.7845
      5 PB          0.7981    3.5771   -2.5569 P.3       1 ATP         1.9068
      6 O1B         1.7088    4.6997   -2.9579 O.2       1 ATP        -0.8942
      7 O2B        -0.6915    3.6468   -3.1812 O.3       1 ATP        -0.8166
      8 O3B         1.3117    2.0972   -2.9555 O.3       1 ATP        -0.8194
      9 PA         -0.0887    4.4443    0.1194 P.3       1 ATP         1.5903
     10 O1A        -1.5453    4.6749   -0.2200 O.co2     1 ATP        -0.8519
     11 O2A         0.8624    5.6106    0.2776 O.co2     1 ATP        -0.8519
     12 O3A         0.5479    3.4080   -0.9700 O.3       1 ATP        -0.8093
     13 O5'         0.0180    3.5131    1.4595 O.3       1 ATP        -0.5649
     14 C5'        -0.8811    2.4285    1.6206 C.3       1 ATP         0.1979
     15 C4'        -0.1994    1.3333    2.4288 C.3       1 ATP         0.1179
     16 O4'        -1.1285    0.2356    2.5840 O.3       1 ATP        -0.3878
     17 C3'         1.0324    0.7610    1.7344 C.3       1 ATP         0.1185
     18 O3'         1.9175    0.2377    2.7247 O.3       1 ATP        -0.5544
     19 C2'         0.4468   -0.3802    0.9263 C.3       1 ATP         0.0542
     20 O2'         1.3993   -1.3703    0.5961 O.3       1 ATP        -0.5831
     21 C1'        -0.6159   -0.9100    1.8769 C.3       1 ATP         0.2222
     22 N9         -1.7127   -1.6108    1.2130 N.pl3     1 ATP        -0.1887
     23 C8         -2.8662   -1.0361    0.7388 C.ar      1 ATP         0.4447
     24 N7         -3.6774   -1.9166    0.1867 N.2       1 ATP        -0.6159
     25 C5         -3.0159   -3.1045    0.3123 C.ar      1 ATP         0.2195
     26 C6         -3.4377   -4.4169   -0.1199 C.ar      1 ATP         0.6144
     27 N6         -4.5720   -4.5691   -0.7080 N.2       1 ATP        -0.8160
     28 N1         -2.4600   -5.3463    0.2071 N.pl3     1 ATP        -0.8611
     29 C2         -1.2595   -5.0554    0.8515 C.ar      1 ATP         0.6141
     30 N3         -0.8555   -3.8803    1.2516 N.2       1 ATP        -0.5913
     31 C4         -1.7946   -2.9457    0.9448 C.ar      1 ATP         0.0067
     32 HOG3        3.8456    3.2254   -2.7278 H         1 ATP         0.4313
     33 HOB2       -1.2539    4.4252   -2.9811 H         1 ATP         0.4716
     34 H5'1       -1.7770    2.7851    2.1387 H         1 ATP         0.0452
     35 H5'2       -1.1653    2.0543    0.6320 H         1 ATP         0.0452
     36 H4'         0.0403    1.7078    3.4343 H         1 ATP         0.0998
     37 H3'         1.5906    1.4859    1.1353 H         1 ATP         0.0544
     38 HO3'        2.6839   -0.1150    2.2479 H         1 ATP         0.3961
     39 H2'        -0.0017    0.0018    0.0005 H         1 ATP         0.0499
     40 HO2'        2.0953   -0.9375    0.0709 H         1 ATP         0.4045
     41 H1'        -0.1998   -1.6319    2.6178 H         1 ATP         0.0912
     42 H8         -3.0558    0.0252    0.8256 H         1 ATP         0.1090
     43 HN62       -4.7047   -5.5592   -0.9421 H         1 ATP         0.3694
     44 H2         -0.6372   -5.9505    1.0077 H         1 ATP         0.0371
     45 H45        -2.6338   -6.3155   -0.0469 H         1 ATP         0.4283
@<TRIPOS>BOND
     1    1    2 2
     2    1    3 1
     3    1    4 1
     4    1    8 1
     5    4   32 1
     6    5    6 2
     7    5    7 1
     8    5    8 1
     9    5   12 1
    10    7   33 1
    11    9   10 2
    12    9   11 1
    13    9   12 1
    14    9   13 1
    15   13   14 1
    16   14   15 1
    17   14   34 1
    18   14   35 1
    19   15   16 1
    20   15   17 1
    21   15   36 1
    22   16   21 1
    23   17   18 1
    24   17   19 1
    25   17   37 1
    26   18   38 1
    27   19   20 1
    28   19   21 1
    29   19   39 1
    30   20   40 1
    31   21   22 1
    32   21   41 1
    33   22   23 ar
    34   22   31 ar
    35   23   24 ar
    36   23   42 1
    37   24   25 ar
    38   25   26 ar
    39   25   31 ar
    40   26   27 2
    41   26   28 ar
    42   27   43 1
    43   28   29 ar
    44   28   45 1
    45   29   30 ar
    46   29   44 1
    47   30   31 ar
@<TRIPOS>SUBSTRUCTURE
     1 ATP         1 GROUP 0 A     ****
@<TRIPOS>MOLECULE
[[[3,4-dihydroxy-5-(6-imino-1~{H}-purin-9-yl)tetrahydrofuran-2-yl]methoxy-oxido-phosphoryl]oxy-hydroxy-phosphoryl] hydrogen phosphate
   45    47     1     0     0
SMALL
USER_CHARGES

@<TRIPOS>ATOM
      1 PG         -4.1670    8.7014    2.8136 P.3       1 ATP         1.5496
      2 O1G        -4.8236    9.1873    1.5406 O.co2     1 ATP        -0.8494
      3 O2G        -3.2050    9.5839    3.5773 O.co2     1 ATP        -0.8494
      4 O3G        -5.3336    8.1974    3.8388 O.3       1 ATP        -0.7845
      5 PB         -2.1893    6.8870    1.5910 P.3       1 ATP         1.9068
      6 O1B        -2.3484    7.2145    0.1358 O.2       1 ATP        -0.8942
      7 O2B        -0.9435    7.6108    2.3242 O.3       1 ATP        -0.8166
      8 O3B        -3.4542    7.2632    2.5244 O.3       1 ATP        -0.8194
      9 PA         -2.9646    4.0417    1.6588 P.3       1 ATP         1.5903
     10 O1A        -3.0698    3.8297    0.1641 O.co2     1 ATP        -0.8519
     11 O2A        -4.2080    4.1930    2.5078 O.co2     1 ATP        -0.8519
     12 O3A        -1.9921    5.3225    1.9416 O.3       1 ATP        -0.8093
     13 O5'        -2.0402    2.8619    2.3130 O.3       1 ATP        -0.5649
     14 C5'        -0.8811    2.4285    1.6206 C.3       1 ATP         0.1979
     15 C4'        -0.1994    1.3333    2.4288 C.3       1 ATP         0.1179
     16 O4'        -1.1285    0.2356    2.5840 O.3       1 ATP        -0.3878
     17 C3'         1.0324    0.7610    1.7344 C.3       1 ATP         0.1185
     18 O3'         1.9175    0.2377    2.7247 O.3       1 ATP        -0.5544
     19 C2'         0.4468   -0.3802    0.9263 C.3       1 ATP         0.0542
     20 O2'         1.3993   -1.3703    0.5961 O.3       1 ATP        -0.5831
     21 C1'        -0.6159   -0.9100    1.8769 C.3       1 ATP         0.2222
     22 N9         -1.7127   -1.6108    1.2130 N.pl3     1 ATP        -0.1887
     23 C8         -2.8662   -1.0361    0.7388 C.ar      1 ATP         0.4447
     24 N7         -3.6774   -1.9166    0.1867 N.2       1 ATP        -0.6159
     25 C5         -3.0159   -3.1045    0.3123 C.ar      1 ATP         0.2195
     26 C6         -3.4377   -4.4169   -0.1199 C.ar      1 ATP         0.6144
     27 N6         -4.5720   -4.5691   -0.7080 N.2       1 ATP        -0.8160
     28 N1         -2.4600   -5.3463    0.2071 N.pl3     1 ATP        -0.8611
     29 C2         -1.2595   -5.0554    0.8515 C.ar      1 ATP         0.6141
     30 N3         -0.8555   -3.8803    1.2516 N.2       1 ATP        -0.5913
     31 C4         -1.7946   -2.9457    0.9448 C.ar      1 ATP         0.0067
     32 HOG3       -5.0657    7.8502    4.7162 H         1 ATP         0.4313
     33 HOB2       -0.9110    8.5909    2.3478 H         1 ATP         0.4716
     34 H5'1       -1.1769    2.0503    0.6369 H         1 ATP         0.0452
     35 H5'2       -0.2081    3.2815    1.4877 H         1 ATP         0.0452
     36 H4'         0.0403    1.7078    3.4343 H         1 ATP         0.0998
     37 H3'         1.5906    1.4859    1.1353 H         1 ATP         0.0544
     38 HO3'        2.6839   -0.1150    2.2479 H         1 ATP         0.3961
     39 H2'        -0.0017    0.0018    0.0005 H         1 ATP         0.0499
     40 HO2'        2.0953   -0.9375    0.0709 H         1 ATP         0.4045
     41 H1'        -0.1998   -1.6319    2.6178 H         1 ATP         0.0912
     42 H8         -3.0558    0.0252    0.8256 H         1 ATP         0.1090
     43 HN62       -4.7047   -5.5592   -0.9421 H         1 ATP         0.3694
     44 H2         -0.6372   -5.9505    1.0077 H         1 ATP         0.0371
     45 H45        -2.6338   -6.3155   -0.0469 H         1 ATP         0.4283
@<TRIPOS>BOND
     1    1    2 2
     2    1    3 1
     3    1    4 1
     4    1    8 1
     5    4   32 1
     6    5    6 2
     7    5    7 1
     8    5    8 1
     9    5   12 1
    10    7   33 1
    11    9   10 2
    12    9   11 1
    13    9   12 1
    14    9   13 1
    15   13   14 1
    16   14   15 1
    17   14   34 1
    18   14   35 1
    19   15   16 1
    20   15   17 1
    21   15   36 1
    22   16   21 1
    23   17   18 1
    24   17   19 1
    25   17   37 1
    26   18   38 1
    27   19   20 1
    28   19   21 1
    29   19   39 1
    30   20   40 1
    31   21   22 1
    32   21   41 1
    33   22   23 ar
    34   22   31 ar
    35   23   24 ar
    36   23   42 1
    37   24   25 ar
    38   25   26 ar
    39   25   31 ar
    40   26   27 2
    41   26   28 ar
    42   27   43 1
    43   28   29 ar
    44   28   45 1
    45   29   30 ar
    46   29   44 1
    47   30   31 ar
@<TRIPOS>SUBSTRUCTURE
     1 ATP         1 GROUP 0 A     ****
@<TRIPOS>MOLECULE
[[[3,4-dihydroxy-5-(6-imino-1~{H}-purin-9-yl)tetrahydrofuran-2-yl]methoxy-oxido-phosphoryl]oxy-hydroxy-phosphoryl] hydrogen phosphate
   45    47     1     0     0
SMALL
USER_CHARGES

@<TRIPOS>ATOM
      1 PG         -1.0618    2.3254   -3.6065 P.3       1 ATP         1.5496
      2 O1G        -1.2109    2.3665   -5.1111 O.co2     1 ATP        -0.8494
      3 O2G        -2.2541    2.5419   -2.7015 O.co2     1 ATP        -0.8494
      4 O3G        -0.3476    0.9159   -3.1948 O.3       1 ATP        -0.7845
      5 PB          0.8212    3.5954   -1.7253 P.3       1 ATP         1.9068
      6 O1B         1.4841    2.3955   -1.1161 O.2       1 ATP        -0.8942
      7 O2B         1.7949    4.8604   -1.9808 O.3       1 ATP        -0.8166
      8 O3B         0.1324    3.3451   -3.1660 O.3       1 ATP        -0.8194
      9 PA         -0.4664    4.8322    0.6228 P.3       1 ATP         1.5903
     10 O1A        -1.9047    5.1495    0.9699 O.co2     1 ATP        -0.8519
     11 O2A         0.6096    5.8893    0.7433 O.co2     1 ATP        -0.8519
     12 O3A        -0.4131    4.2167   -0.8886 O.3       1 ATP        -0.8093
     13 O5'         0.0180    3.5131    1.4595 O.3       1 ATP        -0.5649
     14 C5'        -0.8811    2.4285    1.6206 C.3       1 ATP         0.1979
     15 C4'        -0.1994    1.3333    2.4288 C.3       1 ATP         0.1179
     16 O4'        -1.1285    0.2356    2.5840 O.3       1 ATP        -0.3878
     17 C3'         1.0324    0.7610    1.7344 C.3       1 ATP         0.1185
     18 O3'         1.9175    0.2377    2.7247 O.3       1 ATP        -0.5544
     19 C2'         0.4468   -0.3802    0.9263 C.3       1 ATP         0.0542
     20 O2'         1.3993   -1.3703    0.5961 O.3       1 ATP        -0.5831
     21 C1'        -0.6159   -0.9100    1.8769 C.3       1 ATP         0.2222
     22 N9         -1.7127   -1.6108    1.2130 N.pl3     1 ATP        -0.1887
     23 C8         -2.8662   -1.0361    0.7388 C.ar      1 ATP         0.4447
     24 N7         -3.6774   -1.9166    0.1867 N.2       1 ATP        -0.6159
     25 C5         -3.0159   -3.1045    0.3123 C.ar      1 ATP         0.2195
     26 C6         -3.4377   -4.4169   -0.1199 C.ar      1 ATP         0.6144
     27 N6         -4.5720   -4.5691   -0.7080 N.2       1 ATP        -0.8160
     28 N1         -2.4600   -5.3463    0.2071 N.pl3     1 ATP        -0.8611
     29 C2         -1.2595   -5.0554    0.8515 C.ar      1 ATP         0.6141
     30 N3         -0.8555   -3.8803    1.2516 N.2       1 ATP        -0.5913
     31 C4         -1.7946   -2.9457    0.9448 C.ar      1 ATP         0.0067
     32 HOG3       -0.1801    0.7376   -2.2449 H         1 ATP         0.4313
     33 HOB2        2.2541    5.2679   -1.2157 H         1 ATP         0.4716
     34 H5'1       -1.7770    2.7851    2.1387 H         1 ATP         0.0452
     35 H5'2       -1.1653    2.0543    0.6320 H         1 ATP         0.0452
     36 H4'         0.0403    1.7078    3.4343 H         1 ATP         0.0998
     37 H3'         1.5906    1.4859    1.1353 H         1 ATP         0.0544
     38 HO3'        2.6839   -0.1150    2.2479 H         1 ATP         0.3961
     39 H2'        -0.0017    0.0018    0.0005 H         1 ATP         0.0499
     40 HO2'        2.0953   -0.9375    0.0709 H         1 ATP         0.4045
     41 H1'        -0.1998   -1.6319    2.6178 H         1 ATP         0.0912
     42 H8         -3.0558    0.0252    0.8256 H         1 ATP         0.1090
     43 HN62       -4.7047   -5.5592   -0.9421 H         1 ATP         0.3694
     44 H2         -0.6372   -5.9505    1.0077 H         1 ATP         0.0371
     45 H45        -2.6338   -6.3155   -0.0469 H         1 ATP         0.4283
@<TRIPOS>BOND
     1    1    2 2
     2    1    3 1
     3    1    4 1
     4    1    8 1
     5    4   32 1
     6    5    6 2
     7    5    7 1
     8    5    8 1
     9    5   12 1
    10    7   33 1
    11    9   10 2
    12    9   11 1
    13    9   12 1
    14    9   13 1
    15   13   14 1
    16   14   15 1
    17   14   34 1
    18   14   35 1
    19   15   16 1
    20   15   17 1
    21   15   36 1
    22   16   21 1
    23   17   18 1
    24   17   19 1
    25   17   37 1
    26   18   38 1
    27   19   20 1
    28   19   21 1
    29   19   39 1
    30   20   40 1
    31   21   22 1
    32   21   41 1
    33   22   23 ar
    34   22   31 ar
    35   23   24 ar
    36   23   42 1
    37   24   25 ar
    38   25   26 ar
    39   25   31 ar
    40   26   27 2
    41   26   28 ar
    42   27   43 1
    43   28   29 ar
    44   28   45 1
    45   29   30 ar
    46   29   44 1
    47   30   31 ar
@<TRIPOS>SUBSTRUCTURE
     1 ATP         1 GROUP 0 A     ****
@<TRIPOS>MOLECULE
[[[3,4-dihydroxy-5-(6-imino-1~{H}-purin-9-yl)tetrahydrofuran-2-yl]methoxy-oxido-phosphoryl]oxy-hydroxy-phosphoryl] hydrogen phosphate
   45    47     1     0     0
SMALL
USER_CHARGES

@<TRIPOS>ATOM
      1 PG          0.0423    8.4617    3.6487 P.3       1 ATP         1.5496
      2 O1G         1.2613    7.9117    4.3554 O.co2     1 ATP        -0.8494
      3 O2G        -1.0159    9.2297    4.4087 O.co2     1 ATP        -0.8494
      4 O3G         0.5409    9.3738    2.3895 O.3       1 ATP        -0.7845
      5 PB         -1.4292    5.9257    3.3304 P.3       1 ATP         1.9068
      6 O1B        -0.5920    4.9932    4.1550 O.2       1 ATP        -0.8942
      7 O2B        -2.7481    6.4980    4.0698 O.3       1 ATP        -0.8166
      8 O3B        -0.6721    7.2569    2.8131 O.3       1 ATP        -0.8194
      9 PA         -2.9646    4.0417    1.6588 P.3       1 ATP         1.5903
     10 O1A        -3.0698    3.8297    0.1641 O.co2     1 ATP        -0.8519
     11 O2A        -4.2080    4.1930    2.5078 O.co2     1 ATP        -0.8519
     12 O3A        -1.9921    5.3225    1.9416 O.3       1 ATP        -0.8093
     13 O5'        -2.0402    2.8619    2.3130 O.3       1 ATP        -0.5649
     14 C5'        -0.8811    2.4285    1.6206 C.3       1 ATP         0.1979
     15 C4'        -0.1994    1.3333    2.4288 C.3       1 ATP         0.1179
     16 O4'        -1.1285    0.2356    2.5840 O.3       1 ATP        -0.3878
     17 C3'         1.0324    0.7610    1.7344 C.3       1 ATP         0.1185
     18 O3'         1.9175    0.2377    2.7247 O.3       1 ATP        -0.5544
     19 C2'         0.4468   -0.3802    0.9263 C.3       1 ATP         0.0542
     20 O2'         1.3993   -1.3703    0.5961 O.3       1 ATP        -0.5831
     21 C1'        -0.6159   -0.9100    1.8769 C.3       1 ATP         0.2222
     22 N9         -1.7127   -1.6108    1.2130 N.pl3     1 ATP        -0.1887
     23 C8         -2.8662   -1.0361    0.7388 C.ar      1 ATP         0.4447
     24 N7         -3.6774   -1.9166    0.1867 N.2       1 ATP        -0.6159
     25 C5         -3.0159   -3.1045    0.3123 C.ar      1 ATP         0.2195
     26 C6         -3.4377   -4.4169   -0.1199 C.ar      1 ATP         0.6144
     27 N6         -4.5720   -4.5691   -0.7080 N.2       1 ATP        -0.8160
     28 N1         -2.4600   -5.3463    0.2071 N.pl3     1 ATP        -0.8611
     29 C2         -1.2595   -5.0554    0.8515 C.ar      1 ATP         0.6141
     30 N3         -0.8555   -3.8803    1.2516 N.2       1 ATP        -0.5913
     31 C4         -1.7946   -2.9457    0.9448 C.ar      1 ATP         0.0067
     32 HOG3       -0.1380    9.8040    1.8271 H         1 ATP         0.4313
     33 HOB2       -2.6415    7.0201    4.8934 H         1 ATP         0.4716
     34 H5'1       -1.1769    2.0503    0.6369 H         1 ATP         0.0452
     35 H5'2       -0.2081    3.2815    1.4877 H         1 ATP         0.0452
     36 H4'         0.0403    1.7078    3.4343 H         1 ATP         0.0998
     37 H3'         1.5906    1.4859    1.1353 H         1 ATP         0.0544
     38 HO3'        2.1521    0.9800    3.3017 H         1 ATP         0.3961
     39 H2'        -0.0017    0.0018    0.0005 H         1 ATP         0.0499
     40 HO2'        0.9369   -2.0558    0.0825 H         1 ATP         0.4045
     41 H1'        -0.1998   -1.6319    2.6178 H         1 ATP         0.0912
     42 H8         -3.0558    0.0252    0.8256 H         1 ATP         0.1090
     43 HN62       -4.7047   -5.5592   -0.9421 H         1 ATP         0.3694
     44 H2         -0.6372   -5.9505    1.0077 H         1 ATP         0.0371
     45 H45        -2.6338   -6.3155   -0.0469 H         1 ATP         0.4283
@<TRIPOS>BOND
     1    1    2 2
     2    1    3 1
     3    1    4 1
     4    1    8 1
     5    4   32 1
     6    5    6 2
     7    5    7 1
     8    5    8 1
     9    5   12 1
    10    7   33 1
    11    9   10 2
    12    9   11 1
    13    9   12 1
    14    9   13 1
    15   13   14 1
    16   14   15 1
    17   14   34 1
    18   14   35 1
    19   15   16 1
    20   15   17 1
    21   15   36 1
    22   16   21 1
    23   17   18 1
    24   17   19 1
    25   17   37 1
    26   18   38 1
    27   19   20 1
    28   19   21 1
    29   19   39 1
    30   20   40 1
    31   21   22 1
    32   21   41 1
    33   22   23 ar
    34   22   31 ar
    35   23   24 ar
    36   23   42 1
    37   24   25 ar
    38   25   26 ar
    39   25   31 ar
    40   26   27 2
    41   26   28 ar
    42   27   43 1
    43   28   29 ar
    44   28   45 1
    45   29   30 ar
    46   29   44 1
    47   30   31 ar
@<TRIPOS>SUBSTRUCTURE
     1 ATP         1 GROUP 0 A     ****
@<TRIPOS>MOLECULE
[[[3,4-dihydroxy-5-(6-imino-1~{H}-purin-9-yl)tetrahydrofuran-2-yl]methoxy-oxido-phosphoryl]oxy-hydroxy-phosphoryl] hydrogen phosphate
   45    47     1     0     0
SMALL
USER_CHARGES

@<TRIPOS>ATOM
      1 PG         -4.1670    8.7014    2.8136 P.3       1 ATP         1.5496
      2 O1G        -4.8236    9.1873    1.5406 O.co2     1 ATP        -0.8494
      3 O2G        -3.2050    9.5839    3.5773 O.co2     1 ATP        -0.8494
      4 O3G        -5.3336    8.1974    3.8388 O.3       1 ATP        -0.7845
      5 PB         -2.1893    6.8870    1.5910 P.3       1 ATP         1.9068
      6 O1B        -2.3484    7.2145    0.1358 O.2       1 ATP        -0.8942
      7 O2B        -0.9435    7.6108    2.3242 O.3       1 ATP        -0.8166
      8 O3B        -3.4542    7.2632    2.5244 O.3       1 ATP        -0.8194
      9 PA         -2.9646    4.0417    1.6588 P.3       1 ATP         1.5903
     10 O1A        -3.0698    3.8297    0.1641 O.co2     1 ATP        -0.8519
     11 O2A        -4.2080    4.1930    2.5078 O.co2     1 ATP        -0.8519
     12 O3A        -1.9921    5.3225    1.9416 O.3       1 ATP        -0.8093
     13 O5'        -2.0402    2.8619    2.3130 O.3       1 ATP        -0.5649
     14 C5'        -0.8811    2.4285    1.6206 C.3       1 ATP         0.1979
     15 C4'        -0.1994    1.3333    2.4288 C.3       1 ATP         0.1179
     16 O4'        -1.1285    0.2356    2.5840 O.3       1 ATP        -0.3878
     17 C3'         1.0324    0.7610    1.7344 C.3       1 ATP         0.1185
     18 O3'         1.9175    0.2377    2.7247 O.3       1 ATP        -0.5544
     19 C2'         0.4468   -0.3802    0.9263 C.3       1 ATP         0.0542
     20 O2'         1.3993   -1.3703    0.5961 O.3       1 ATP        -0.5831
     21 C1'        -0.6159   -0.9100    1.8769 C.3       1 ATP         0.2222
     22 N9         -1.7127   -1.6108    1.2130 N.pl3     1 ATP        -0.1887
     23 C8         -1.7690   -2.9583    0.9549 C.ar      1 ATP         0.4447
     24 N7         -2.8827   -3.3076    0.3418 N.2       1 ATP        -0.6159
     25 C5         -3.5683   -2.1351    0.2017 C.ar      1 ATP         0.2195
     26 C6         -4.8617   -1.9185   -0.4044 C.ar      1 ATP         0.6144
     27 N6         -5.5166   -2.9094   -0.8994 N.2       1 ATP        -0.8160
     28 N1         -5.1836   -0.5701   -0.3344 N.pl3     1 ATP        -0.8611
     29 C2         -4.3821    0.4180    0.2330 C.ar      1 ATP         0.6141
     30 N3         -3.2117    0.2488    0.7860 N.2       1 ATP        -0.5913
     31 C4         -2.8672   -1.0657    0.7327 C.ar      1 ATP         0.0067
     32 HOG3       -5.0657    7.8502    4.7162 H         1 ATP         0.4313
     33 HOB2       -0.9110    8.5909    2.3478 H         1 ATP         0.4716
     34 H5'1       -1.1769    2.0503    0.6369 H         1 ATP         0.0452
     35 H5'2       -0.2081    3.2815    1.4877 H         1 ATP         0.0452
     36 H4'         0.0403    1.7078    3.4343 H         1 ATP         0.0998
     37 H3'         1.5906    1.4859    1.1353 H         1 ATP         0.0544
     38 HO3'        2.6839   -0.1150    2.2479 H         1 ATP         0.3961
     39 H2'        -0.0017    0.0018    0.0005 H         1 ATP         0.0499
     40 HO2'        2.0953   -0.9375    0.0709 H         1 ATP         0.4045
     41 H1'        -0.1998   -1.6319    2.6178 H         1 ATP         0.0912
     42 H8         -0.9697   -3.6300    1.2371 H         1 ATP         0.1090
     43 HN62       -6.4060   -2.5723   -1.2840 H         1 ATP         0.3694
     44 H2         -4.8409    1.4176    0.1757 H         1 ATP         0.0371
     45 H45        -6.0768   -0.2826   -0.7263 H         1 ATP         0.4283
@<TRIPOS>BOND
     1    1    2 2
     2    1    3 1
     3    1    4 1
     4    1    8 1
     5    4   32 1
     6    5    6 2
     7    5    7 1
     8    5    8 1
     9    5   12 1
    10    7   33 1
    11    9   10 2
    12    9   11 1
    13    9   12 1
    14    9   13 1
    15   13   14 1
    16   14   15 1
    17   14   34 1
    18   14   35 1
    19   15   16 1
    20   15   17 1
    21   15   36 1
    22   16   21 1
    23   17   18 1
    24   17   19 1
    25   17   37 1
    26   18   38 1
    27   19   20 1
    28   19   21 1
    29   19   39 1
    30   20   40 1
    31   21   22 1
    32   21   41 1
    33   22   23 ar
    34   22   31 ar
    35   23   24 ar
    36   23   42 1
    37   24   25 ar
    38   25   26 ar
    39   25   31 ar
    40   26   27 2
    41   26   28 ar
    42   27   43 1
    43   28   29 ar
    44   28   45 1
    45   29   30 ar
    46   29   44 1
    47   30   31 ar
@<TRIPOS>SUBSTRUCTURE
     1 ATP         1 GROUP 0 A     ****
@<TRIPOS>MOLECULE
[[[3,4-dihydroxy-5-(6-imino-1~{H}-purin-9-yl)tetrahydrofuran-2-yl]methoxy-oxido-phosphoryl]oxy-hydroxy-phosphoryl] hydrogen phosphate
   45    47     1     0     0
SMALL
USER_CHARGES

@<TRIPOS>ATOM
      1 PG          2.7546    5.3867   -3.8201 P.3       1 ATP         1.5496
      2 O1G         1.8013    6.1245   -4.7336 O.co2     1 ATP        -0.8494
      3 O2G         3.6970    4.3368   -4.3651 O.co2     1 ATP        -0.8494
      4 O3G         3.6288    6.4855   -2.9867 O.3       1 ATP        -0.7845
      5 PB          0.7981    3.5771   -2.5569 P.3       1 ATP         1.9068
      6 O1B        -0.4243    3.8392   -3.3859 O.2       1 ATP        -0.8942
      7 O2B         1.6309    2.2524   -2.9636 O.3       1 ATP        -0.8166
      8 O3B         1.9100    4.7502   -2.5784 O.3       1 ATP        -0.8194
      9 PA         -0.0887    4.4443    0.1194 P.3       1 ATP         1.5903
     10 O1A        -1.5453    4.6749   -0.2200 O.co2     1 ATP        -0.8519
     11 O2A         0.8624    5.6106    0.2776 O.co2     1 ATP        -0.8519
     12 O3A         0.5479    3.4080   -0.9700 O.3       1 ATP        -0.8093
     13 O5'         0.0180    3.5131    1.4595 O.3       1 ATP        -0.5649
     14 C5'        -0.8811    2.4285    1.6206 C.3       1 ATP         0.1979
     15 C4'        -0.1994    1.3333    2.4288 C.3       1 ATP         0.1179
     16 O4'        -1.1285    0.2356    2.5840 O.3       1 ATP        -0.3878
     17 C3'         1.0324    0.7610    1.7344 C.3       1 ATP         0.1185
     18 O3'         1.9175    0.2377    2.7247 O.3       1 ATP        -0.5544
     19 C2'         0.4468   -0.3802    0.9263 C.3       1 ATP         0.0542
     20 O2'         1.3993   -1.3703    0.5961 O.3       1 ATP        -0.5831
     21 C1'        -0.6159   -0.9100    1.8769 C.3       1 ATP         0.2222
     22 N9         -1.7127   -1.6108    1.2130 N.pl3     1 ATP        -0.1887
     23 C8         -2.8662   -1.0361    0.7388 C.ar      1 ATP         0.4447
     24 N7         -3.6774   -1.9166    0.1867 N.2       1 ATP        -0.6159
     25 C5         -3.0159   -3.1045    0.3123 C.ar      1 ATP         0.2195
     26 C6         -3.4377   -4.4169   -0.1199 C.ar      1 ATP         0.6144
     27 N6         -4.5720   -4.5691   -0.7080 N.2       1 ATP        -0.8160
     28 N1         -2.4600   -5.3463    0.2071 N.pl3     1 ATP        -0.8611
     29 C2         -1.2595   -5.0554    0.8515 C.ar      1 ATP         0.6141
     30 N3         -0.8555   -3.8803    1.2516 N.2       1 ATP        -0.5913
     31 C4         -1.7946   -2.9457    0.9448 C.ar      1 ATP         0.0067
     32 HOG3        4.2975    6.1615   -2.3463 H         1 ATP         0.4313
     33 HOB2        1.1847    1.3798   -2.9211 H         1 ATP         0.4716
     34 H5'1       -1.7770    2.7851    2.1387 H         1 ATP         0.0452
     35 H5'2       -1.1653    2.0543    0.6320 H         1 ATP         0.0452
     36 H4'         0.0403    1.7078    3.4343 H         1 ATP         0.0998
     37 H3'         1.5906    1.4859    1.1353 H         1 ATP         0.0544
     38 HO3'        2.6839   -0.1150    2.2479 H         1 ATP         0.3961
     39 H2'        -0.0017    0.0018    0.0005 H         1 ATP         0.0499
     40 HO2'        2.0953   -0.9375    0.0709 H         1 ATP         0.4045
     41 H1'        -0.1998   -1.6319    2.6178 H         1 ATP         0.0912
     42 H8         -3.0558    0.0252    0.8256 H         1 ATP         0.1090
     43 HN62       -4.7047   -5.5592   -0.9421 H         1 ATP         0.3694
     44 H2         -0.6372   -5.9505    1.0077 H         1 ATP         0.0371
     45 H45        -2.6338   -6.3155   -0.0469 H         1 ATP         0.4283
@<TRIPOS>BOND
     1    1    2 2
     2    1    3 1
     3    1    4 1
     4    1    8 1
     5    4   32 1
     6    5    6 2
     7    5    7 1
     8    5    8 1
     9    5   12 1
    10    7   33 1
    11    9   10 2
    12    9   11 1
    13    9   12 1
    14    9   13 1
    15   13   14 1
    16   14   15 1
    17   14   34 1
    18   14   35 1
    19   15   16 1
    20   15   17 1
    21   15   36 1
    22   16   21 1
    23   17   18 1
    24   17   19 1
    25   17   37 1
    26   18   38 1
    27   19   20 1
    28   19   21 1
    29   19   39 1
    30   20   40 1
    31   21   22 1
    32   21   41 1
    33   22   23 ar
    34   22   31 ar
    35   23   24 ar
    36   23   42 1
    37   24   25 ar
    38   25   26 ar
    39   25   31 ar
    40   26   27 2
    41   26   28 ar
    42   27   43 1
    43   28   29 ar
    44   28   45 1
    45   29   30 ar
    46   29   44 1
    47   30   31 ar
@<TRIPOS>SUBSTRUCTURE
     1 ATP         1 GROUP 0 A     ****
@<TRIPOS>MOLECULE
[[[3,4-dihydroxy-5-(6-imino-1~{H}-purin-9-yl)tetrahydrofuran-2-yl]methoxy-oxido-phosphoryl]oxy-hydroxy-phosphoryl] hydrogen phosphate
   45    47     1     0     0
SMALL
USER_CHARGES

@<TRIPOS>ATOM
      1 PG         -3.5936    1.4945   -2.5414 P.3       1 ATP         1.5496
      2 O1G        -2.5747    0.9051   -1.5917 O.co2     1 ATP        -0.8494
      3 O2G        -3.1588    2.3017   -3.7443 O.co2     1 ATP        -0.8494
      4 O3G        -4.5813    0.2978   -3.0498 O.3       1 ATP        -0.7845
      5 PB         -4.4970    3.7294   -0.8423 P.3       1 ATP         1.9068
      6 O1B        -4.0308    4.9124   -1.6383 O.2       1 ATP        -0.8942
      7 O2B        -5.9243    3.9176   -0.1070 O.3       1 ATP        -0.8166
      8 O3B        -4.6767    2.3606   -1.6830 O.3       1 ATP        -0.8194
      9 PA         -2.9646    4.0417    1.6588 P.3       1 ATP         1.5903
     10 O1A        -4.1352    4.3308    2.5732 O.co2     1 ATP        -0.8519
     11 O2A        -2.0510    5.1559    1.1963 O.co2     1 ATP        -0.8519
     12 O3A        -3.5097    3.2459    0.3413 O.3       1 ATP        -0.8093
     13 O5'        -2.0402    2.8619    2.3130 O.3       1 ATP        -0.5649
     14 C5'        -0.8811    2.4285    1.6206 C.3       1 ATP         0.1979
     15 C4'        -0.1994    1.3333    2.4288 C.3       1 ATP         0.1179
     16 O4'        -1.1285    0.2356    2.5840 O.3       1 ATP        -0.3878
     17 C3'         1.0324    0.7610    1.7344 C.3       1 ATP         0.1185
     18 O3'         1.9175    0.2377    2.7247 O.3       1 ATP        -0.5544
     19 C2'         0.4468   -0.3802    0.9263 C.3       1 ATP         0.0542
     20 O2'         1.3993   -1.3703    0.5961 O.3       1 ATP        -0.5831
     21 C1'        -0.6159   -0.9100    1.8769 C.3       1 ATP         0.2222
     22 N9         -1.7127   -1.6108    1.2130 N.pl3     1 ATP        -0.1887
     23 C8         -3.0370   -1.2489    1.2455 C.ar      1 ATP         0.4447
     24 N7         -3.8008   -2.0709    0.5534 N.2       1 ATP        -0.6159
     25 C5         -2.9295   -2.9976    0.0567 C.ar      1 ATP         0.2195
     26 C6         -3.2152   -4.1411   -0.7786 C.ar      1 ATP         0.6144
     27 N6         -4.4238   -4.3865   -1.1456 N.2       1 ATP        -0.8160
     28 N1         -2.0349   -4.8186   -1.0521 N.pl3     1 ATP        -0.8611
     29 C2         -0.7728   -4.4501   -0.5916 C.ar      1 ATP         0.6141
     30 N3         -0.4885   -3.4234    0.1630 N.2       1 ATP        -0.5913
     31 C4         -1.6274   -2.7377    0.4492 C.ar      1 ATP         0.0067
     32 HOG3       -5.3019    0.5219   -3.6765 H         1 ATP         0.4313
     33 HOB2       -6.7186    4.1015   -0.6525 H         1 ATP         0.4716
     34 H5'1       -1.1769    2.0503    0.6369 H         1 ATP         0.0452
     35 H5'2       -0.2081    3.2815    1.4877 H         1 ATP         0.0452
     36 H4'         0.0403    1.7078    3.4343 H         1 ATP         0.0998
     37 H3'         1.5906    1.4859    1.1353 H         1 ATP         0.0544
     38 HO3'        2.6839   -0.1150    2.2479 H         1 ATP         0.3961
     39 H2'        -0.0017    0.0018    0.0005 H         1 ATP         0.0499
     40 HO2'        2.0953   -0.9375    0.0709 H         1 ATP         0.4045
     41 H1'        -0.1998   -1.6319    2.6178 H         1 ATP         0.0912
     42 H8         -3.3806   -0.3795    1.7893 H         1 ATP         0.1090
     43 HN62       -4.4384   -5.2300   -1.7295 H         1 ATP         0.3694
     44 H2          0.0180   -5.1355   -0.9348 H         1 ATP         0.0371
     45 H45        -2.0977   -5.6477   -1.6374 H         1 ATP         0.4283
@<TRIPOS>BOND
     1    1    2 2
     2    1    3 1
     3    1    4 1
     4    1    8 1
     5    4   32 1
     6    5    6 2
     7    5    7 1
     8    5    8 1
     9    5   12 1
    10    7   33 1
    11    9   10 2
    12    9   11 1
    13    9   12 1
    14    9   13 1
    15   13   14 1
    16   14   15 1
    17   14   34 1
    18   14   35 1
    19   15   16 1
    20   15   17 1
    21   15   36 1
    22   16   21 1
    23   17   18 1
    24   17   19 1
    25   17   37 1
    26   18   38 1
    27   19   20 1
    28   19   21 1
    29   19   39 1
    30   20   40 1
    31   21   22 1
    32   21   41 1
    33   22   23 ar
    34   22   31 ar
    35   23   24 ar
    36   23   42 1
    37   24   25 ar
    38   25   26 ar
    39   25   31 ar
    40   26   27 2
    41   26   28 ar
    42   27   43 1
    43   28   29 ar
    44   28   45 1
    45   29   30 ar
    46   29   44 1
    47   30   31 ar
@<TRIPOS>SUBSTRUCTURE
     1 ATP         1 GROUP 0 A     ****
@<TRIPOS>MOLECULE
[[[3,4-dihydroxy-5-(6-imino-1~{H}-purin-9-yl)tetrahydrofuran-2-yl]methoxy-oxido-phosphoryl]oxy-hydroxy-phosphoryl] hydrogen phosphate
   45    47     1     0     0
SMALL
USER_CHARGES

@<TRIPOS>ATOM
      1 PG         -0.9379    2.2434   -3.5726 P.3       1 ATP         1.5496
      2 O1G        -1.7682    1.2930   -4.4062 O.co2     1 ATP        -0.8494
      3 O2G        -0.0240    1.7266   -2.4840 O.co2     1 ATP        -0.8494
      4 O3G        -0.0638    3.1868   -4.5787 O.3       1 ATP        -0.7845
      5 PB         -1.5637    4.7287   -2.1133 P.3       1 ATP         1.9068
      6 O1B        -0.6947    5.7190   -2.8307 O.2       1 ATP        -0.8942
      7 O2B        -3.0108    5.2889   -1.6598 O.3       1 ATP        -0.8166
      8 O3B        -1.9155    3.3893   -2.9470 O.3       1 ATP        -0.8194
      9 PA         -0.4664    4.8322    0.6228 P.3       1 ATP         1.5903
     10 O1A        -1.6757    5.4417    1.2980 O.co2     1 ATP        -0.8519
     11 O2A         0.7544    5.6725    0.3175 O.co2     1 ATP        -0.8519
     12 O3A        -0.9456    4.1040   -0.7578 O.3       1 ATP        -0.8093
     13 O5'         0.0180    3.5131    1.4595 O.3       1 ATP        -0.5649
     14 C5'        -0.8811    2.4285    1.6206 C.3       1 ATP         0.1979
     15 C4'        -0.1994    1.3333    2.4288 C.3       1 ATP         0.1179
     16 O4'        -1.1285    0.2356    2.5840 O.3       1 ATP        -0.3878
     17 C3'         1.0324    0.7610    1.7344 C.3       1 ATP         0.1185
     18 O3'         1.9175    0.2377    2.7247 O.3       1 ATP        -0.5544
     19 C2'         0.4468   -0.3802    0.9263 C.3       1 ATP         0.0542
     20 O2'         1.3993   -1.3703    0.5961 O.3       1 ATP        -0.5831
     21 C1'        -0.6159   -0.9100    1.8769 C.3       1 ATP         0.2222
     22 N9         -1.7127   -1.6108    1.2130 N.pl3     1 ATP        -0.1887
     23 C8         -2.0868   -2.9137    1.4327 C.ar      1 ATP         0.4447
     24 N7         -3.1125   -3.2756    0.6878 N.2       1 ATP        -0.6159
     25 C5         -3.4079   -2.1580   -0.0391 C.ar      1 ATP         0.2195
     26 C6         -4.4483   -1.9775   -1.0249 C.ar      1 ATP         0.6144
     27 N6         -5.2418   -2.9492   -1.3113 N.2       1 ATP        -0.8160
     28 N1         -4.3937   -0.6823   -1.5211 N.pl3     1 ATP        -0.8611
     29 C2         -3.4770    0.2901   -1.1271 C.ar      1 ATP         0.6141
     30 N3         -2.5289    0.1525   -0.2403 N.2       1 ATP        -0.5913
     31 C4         -2.5564   -1.1096    0.2655 C.ar      1 ATP         0.0067
     32 HOG3        0.5310    3.8614   -4.1869 H         1 ATP         0.4313
     33 HOB2       -3.0528    6.0538   -1.0472 H         1 ATP         0.4716
     34 H5'1       -1.7770    2.7851    2.1387 H         1 ATP         0.0452
     35 H5'2       -1.1653    2.0543    0.6320 H         1 ATP         0.0452
     36 H4'         0.0403    1.7078    3.4343 H         1 ATP         0.0998
     37 H3'         1.5906    1.4859    1.1353 H         1 ATP         0.0544
     38 HO3'        2.6839   -0.1150    2.2479 H         1 ATP         0.3961
     39 H2'        -0.0017    0.0018    0.0005 H         1 ATP         0.0499
     40 HO2'        2.0953   -0.9375    0.0709 H         1 ATP         0.4045
     41 H1'        -0.1998   -1.6319    2.6178 H         1 ATP         0.0912
     42 H8         -1.5740   -3.5449    2.1457 H         1 ATP         0.1090
     43 HN62       -5.9117   -2.6433   -2.0256 H         1 ATP         0.3694
     44 H2         -3.6225    1.2454   -1.6553 H         1 ATP         0.0371
     45 H45        -5.0794   -0.4231   -2.2258 H         1 ATP         0.4283
@<TRIPOS>BOND
     1    1    2 2
     2    1    3 1
     3    1    4 1
     4    1    8 1
     5    4   32 1
     6    5    6 2
     7    5    7 1
     8    5    8 1
     9    5   12 1
    10    7   33 1
    11    9   10 2
    12    9   11 1
    13    9   12 1
    14    9   13 1
    15   13   14 1
    16   14   15 1
    17   14   34 1
    18   14   35 1
    19   15   16 1
    20   15   17 1
    21   15   36 1
    22   16   21 1
    23   17   18 1
    24   17   19 1
    25   17   37 1
    26   18   38 1
    27   19   20 1
    28   19   21 1
    29   19   39 1
    30   20   40 1
    31   21   22 1
    32   21   41 1
    33   22   23 ar
    34   22   31 ar
    35   23   24 ar
    36   23   42 1
    37   24   25 ar
    38   25   26 ar
    39   25   31 ar
    40   26   27 2
    41   26   28 ar
    42   27   43 1
    43   28   29 ar
    44   28   45 1
    45   29   30 ar
    46   29   44 1
    47   30   31 ar
@<TRIPOS>SUBSTRUCTURE
     1 ATP         1 GROUP 0 A     ****
@<TRIPOS>MOLECULE
[[[3,4-dihydroxy-5-(6-imino-1~{H}-purin-9-yl)tetrahydrofuran-2-yl]methoxy-oxido-phosphoryl]oxy-hydroxy-phosphoryl] hydrogen phosphate
   45    47     1     0     0
SMALL
USER_CHARGES

@<TRIPOS>ATOM
      1 PG          1.6476    1.4495   -4.4142 P.3       1 ATP         1.5496
      2 O1G         2.8613    2.1440   -4.9907 O.co2     1 ATP        -0.8494
      3 O2G         0.3666    1.3355   -5.2100 O.co2     1 ATP        -0.8494
      4 O3G         2.0889   -0.0447   -3.9253 O.3       1 ATP        -0.7845
      5 PB          0.7981    3.5771   -2.5569 P.3       1 ATP         1.9068
      6 O1B         1.7088    4.6997   -2.9579 O.2       1 ATP        -0.8942
      7 O2B        -0.6915    3.6468   -3.1812 O.3       1 ATP        -0.8166
      8 O3B         1.3117    2.0972   -2.9555 O.3       1 ATP        -0.8194
      9 PA         -0.0887    4.4443    0.1194 P.3       1 ATP         1.5903
     10 O1A        -1.5453    4.6749   -0.2200 O.co2     1 ATP        -0.8519
     11 O2A         0.8624    5.6106    0.2776 O.co2     1 ATP        -0.8519
     12 O3A         0.5479    3.4080   -0.9700 O.3       1 ATP        -0.8093
     13 O5'         0.0180    3.5131    1.4595 O.3       1 ATP        -0.5649
     14 C5'        -0.8811    2.4285    1.6206 C.3       1 ATP         0.1979
     15 C4'        -0.1994    1.3333    2.4288 C.3       1 ATP         0.1179
     16 O4'        -1.1285    0.2356    2.5840 O.3       1 ATP        -0.3878
     17 C3'         1.0324    0.7610    1.7344 C.3       1 ATP         0.1185
     18 O3'         1.9175    0.2377    2.7247 O.3       1 ATP        -0.5544
     19 C2'         0.4468   -0.3802    0.9263 C.3       1 ATP         0.0542
     20 O2'         1.3993   -1.3703    0.5961 O.3       1 ATP        -0.5831
     21 C1'        -0.6159   -0.9100    1.8769 C.3       1 ATP         0.2222
     22 N9         -1.7127   -1.6108    1.2130 N.pl3     1 ATP        -0.1887
     23 C8         -2.8662   -1.0361    0.7388 C.ar      1 ATP         0.4447
     24 N7         -3.6774   -1.9166    0.1867 N.2       1 ATP        -0.6159
     25 C5         -3.0159   -3.1045    0.3123 C.ar      1 ATP         0.2195
     26 C6         -3.4377   -4.4169   -0.1199 C.ar      1 ATP         0.6144
     27 N6         -4.5720   -4.5691   -0.7080 N.2       1 ATP        -0.8160
     28 N1         -2.4600   -5.3463    0.2071 N.pl3     1 ATP        -0.8611
     29 C2         -1.2595   -5.0554    0.8515 C.ar      1 ATP         0.6141
     30 N3         -0.8555   -3.8803    1.2516 N.2       1 ATP        -0.5913
     31 C4         -1.7946   -2.9457    0.9448 C.ar      1 ATP         0.0067
     32 HOG3        1.4070   -0.6253   -3.5253 H         1 ATP         0.4313
     33 HOB2       -0.7984    3.6360   -4.1562 H         1 ATP         0.4716
     34 H5'1       -1.7770    2.7851    2.1387 H         1 ATP         0.0452
     35 H5'2       -1.1653    2.0543    0.6320 H         1 ATP         0.0452
     36 H4'         0.0403    1.7078    3.4343 H         1 ATP         0.0998
     37 H3'         1.5906    1.4859    1.1353 H         1 ATP         0.0544
     38 HO3'        2.1521    0.9800    3.3017 H         1 ATP         0.3961
     39 H2'        -0.0017    0.0018    0.0005 H         1 ATP         0.0499
     40 HO2'        0.9369   -2.0558    0.0825 H         1 ATP         0.4045
     41 H1'        -0.1998   -1.6319    2.6178 H         1 ATP         0.0912
     42 H8         -3.0558    0.0252    0.8256 H         1 ATP         0.1090
     43 HN62       -4.7047   -5.5592   -0.9421 H         1 ATP         0.3694
     44 H2         -0.6372   -5.9505    1.0077 H         1 ATP         0.0371
     45 H45        -2.6338   -6.3155   -0.0469 H         1 ATP         0.4283
@<TRIPOS>BOND
     1    1    2 2
     2    1    3 1
     3    1    4 1
     4    1    8 1
     5    4   32 1
     6    5    6 2
     7    5    7 1
     8    5    8 1
     9    5   12 1
    10    7   33 1
    11    9   10 2
    12    9   11 1
    13    9   12 1
    14    9   13 1
    15   13   14 1
    16   14   15 1
    17   14   34 1
    18   14   35 1
    19   15   16 1
    20   15   17 1
    21   15   36 1
    22   16   21 1
    23   17   18 1
    24   17   19 1
    25   17   37 1
    26   18   38 1
    27   19   20 1
    28   19   21 1
    29   19   39 1
    30   20   40 1
    31   21   22 1
    32   21   41 1
    33   22   23 ar
    34   22   31 ar
    35   23   24 ar
    36   23   42 1
    37   24   25 ar
    38   25   26 ar
    39   25   31 ar
    40   26   27 2
    41   26   28 ar
    42   27   43 1
    43   28   29 ar
    44   28   45 1
    45   29   30 ar
    46   29   44 1
    47   30   31 ar
@<TRIPOS>SUBSTRUCTURE
     1 ATP         1 GROUP 0 A     ****
@<TRIPOS>MOLECULE
[[[3,4-dihydroxy-5-(6-imino-1~{H}-purin-9-yl)tetrahydrofuran-2-yl]methoxy-oxido-phosphoryl]oxy-hydroxy-phosphoryl] hydrogen phosphate
   45    47     1     0     0
SMALL
USER_CHARGES

@<TRIPOS>ATOM
      1 PG         -6.6174    0.3748   -0.2073 P.3       1 ATP         1.5496
      2 O1G        -6.6580   -1.1189    0.0269 O.co2     1 ATP        -0.8494
      3 O2G        -6.5312    0.9397   -1.6076 O.co2     1 ATP        -0.8494
      4 O3G        -7.8970    1.0526    0.5473 O.3       1 ATP        -0.7845
      5 PB         -5.1290    0.8965    2.2848 P.3       1 ATP         1.9068
      6 O1B        -6.2215    1.3999    3.1811 O.2       1 ATP        -0.8942
      7 O2B        -4.7435   -0.6611    2.4826 O.3       1 ATP        -0.8166
      8 O3B        -5.4256    1.0195    0.7006 O.3       1 ATP        -0.8194
      9 PA         -3.3346    3.2336    2.1469 P.3       1 ATP         1.5903
     10 O1A        -4.0315    4.0798    3.1901 O.co2     1 ATP        -0.8519
     11 O2A        -3.5035    3.5292    0.6725 O.co2     1 ATP        -0.8519
     12 O3A        -3.7135    1.6660    2.4019 O.3       1 ATP        -0.8093
     13 O5'        -1.7337    3.1724    2.4752 O.3       1 ATP        -0.5649
     14 C5'        -0.8811    2.4285    1.6206 C.3       1 ATP         0.1979
     15 C4'        -0.1994    1.3333    2.4288 C.3       1 ATP         0.1179
     16 O4'        -1.1285    0.2356    2.5840 O.3       1 ATP        -0.3878
     17 C3'         1.0324    0.7610    1.7344 C.3       1 ATP         0.1185
     18 O3'         1.9175    0.2377    2.7247 O.3       1 ATP        -0.5544
     19 C2'         0.4468   -0.3802    0.9263 C.3       1 ATP         0.0542
     20 O2'         1.3993   -1.3703    0.5961 O.3       1 ATP        -0.5831
     21 C1'        -0.6159   -0.9100    1.8769 C.3       1 ATP         0.2222
     22 N9         -1.7127   -1.6108    1.2130 N.pl3     1 ATP        -0.1887
     23 C8         -2.5485   -1.0808    0.2609 C.ar      1 ATP         0.4447
     24 N7         -3.4476   -1.9486   -0.1593 N.2       1 ATP        -0.6159
     25 C5         -3.1762   -3.0816    0.5530 C.ar      1 ATP         0.2195
     26 C6         -3.8510   -4.3579    0.5006 C.ar      1 ATP         0.6144
     27 N6         -4.8468   -4.5293   -0.2961 N.2       1 ATP        -0.8160
     28 N1         -3.2499   -5.2342    1.3937 N.pl3     1 ATP        -0.8611
     29 C2         -2.1646   -4.9275    2.2116 C.ar      1 ATP         0.6141
     30 N3         -1.5382   -3.7840    2.2778 N.2       1 ATP        -0.5913
     31 C4         -2.1054   -2.9018    1.4120 C.ar      1 ATP         0.0067
     32 HOG3       -7.9779    0.9429    1.5187 H         1 ATP         0.4313
     33 HOB2       -5.4338   -1.3428    2.3381 H         1 ATP         0.4716
     34 H5'1       -1.4801    1.9928    0.8147 H         1 ATP         0.0452
     35 H5'2       -0.1369    3.1041    1.1872 H         1 ATP         0.0452
     36 H4'         0.0403    1.7078    3.4343 H         1 ATP         0.0998
     37 H3'         1.5906    1.4859    1.1353 H         1 ATP         0.0544
     38 HO3'        2.1521    0.9800    3.3017 H         1 ATP         0.3961
     39 H2'        -0.0017    0.0018    0.0005 H         1 ATP         0.0499
     40 HO2'        0.9369   -2.0558    0.0825 H         1 ATP         0.4045
     41 H1'        -0.1998   -1.6319    2.6178 H         1 ATP         0.0912
     42 H8         -2.4515   -0.0599   -0.0829 H         1 ATP         0.1090
     43 HN62       -5.1990   -5.4882   -0.2004 H         1 ATP         0.3694
     44 H2         -1.8555   -5.7783    2.8388 H         1 ATP         0.0371
     45 H45        -3.6312   -6.1750    1.4526 H         1 ATP         0.4283
@<TRIPOS>BOND
     1    1    2 2
     2    1    3 1
     3    1    4 1
     4    1    8 1
     5    4   32 1
     6    5    6 2
     7    5    7 1
     8    5    8 1
     9    5   12 1
    10    7   33 1
    11    9   10 2
    12    9   11 1
    13    9   12 1
    14    9   13 1
    15   13   14 1
    16   14   15 1
    17   14   34 1
    18   14   35 1
    19   15   16 1
    20   15   17 1
    21   15   36 1
    22   16   21 1
    23   17   18 1
    24   17   19 1
    25   17   37 1
    26   18   38 1
    27   19   20 1
    28   19   21 1
    29   19   39 1
    30   20   40 1
    31   21   22 1
    32   21   41 1
    33   22   23 ar
    34   22   31 ar
    35   23   24 ar
    36   23   42 1
    37   24   25 ar
    38   25   26 ar
    39   25   31 ar
    40   26   27 2
    41   26   28 ar
    42   27   43 1
    43   28   29 ar
    44   28   45 1
    45   29   30 ar
    46   29   44 1
    47   30   31 ar
@<TRIPOS>SUBSTRUCTURE
     1 ATP         1 GROUP 0 A     ****
@<TRIPOS>MOLECULE
[[[3,4-dihydroxy-5-(6-imino-1~{H}-purin-9-yl)tetrahydrofuran-2-yl]methoxy-oxido-phosphoryl]oxy-hydroxy-phosphoryl] hydrogen phosphate
   45    47     1     0     0
SMALL
USER_CHARGES

@<TRIPOS>ATOM
      1 PG         -2.8843    7.9970   -1.0515 P.3       1 ATP         1.5496
      2 O1G        -1.7311    8.9666   -1.1837 O.co2     1 ATP        -0.8494
      3 O2G        -4.2764    8.4860   -0.7192 O.co2     1 ATP        -0.8494
      4 O3G        -2.9621    7.0958   -2.4109 O.3       1 ATP        -0.7845
      5 PB         -2.1893    6.8870    1.5910 P.3       1 ATP         1.9068
      6 O1B        -1.0702    7.7950    2.0075 O.2       1 ATP        -0.8942
      7 O2B        -3.6346    7.2480    2.2190 O.3       1 ATP        -0.8166
      8 O3B        -2.4684    6.8218    0.0002 O.3       1 ATP        -0.8194
      9 PA         -2.9646    4.0417    1.6588 P.3       1 ATP         1.5903
     10 O1A        -3.0698    3.8297    0.1641 O.co2     1 ATP        -0.8519
     11 O2A        -4.2080    4.1930    2.5078 O.co2     1 ATP        -0.8519
     12 O3A        -1.9921    5.3225    1.9416 O.3       1 ATP        -0.8093
     13 O5'        -2.0402    2.8619    2.3130 O.3       1 ATP        -0.5649
     14 C5'        -0.8811    2.4285    1.6206 C.3       1 ATP         0.1979
     15 C4'        -0.1994    1.3333    2.4288 C.3       1 ATP         0.1179
     16 O4'        -1.1285    0.2356    2.5840 O.3       1 ATP        -0.3878
     17 C3'         1.0324    0.7610    1.7344 C.3       1 ATP         0.1185
     18 O3'         1.9175    0.2377    2.7247 O.3       1 ATP        -0.5544
     19 C2'         0.4468   -0.3802    0.9263 C.3       1 ATP         0.0542
     20 O2'         1.3993   -1.3703    0.5961 O.3       1 ATP        -0.5831
     21 C1'        -0.6159   -0.9100    1.8769 C.3       1 ATP         0.2222
     22 N9         -1.7127   -1.6108    1.2130 N.pl3     1 ATP        -0.1887
     23 C8         -2.8662   -1.0361    0.7388 C.ar      1 ATP         0.4447
     24 N7         -3.6774   -1.9166    0.1867 N.2       1 ATP        -0.6159
     25 C5         -3.0159   -3.1045    0.3123 C.ar      1 ATP         0.2195
     26 C6         -3.4377   -4.4169   -0.1199 C.ar      1 ATP         0.6144
     27 N6         -4.5720   -4.5691   -0.7080 N.2       1 ATP        -0.8160
     28 N1         -2.4600   -5.3463    0.2071 N.pl3     1 ATP        -0.8611
     29 C2         -1.2595   -5.0554    0.8515 C.ar      1 ATP         0.6141
     30 N3         -0.8555   -3.8803    1.2516 N.2       1 ATP        -0.5913
     31 C4         -1.7946   -2.9457    0.9448 C.ar      1 ATP         0.0067
     32 HOG3       -3.6643    6.4143   -2.4795 H         1 ATP         0.4313
     33 HOB2       -4.0270    8.1274    2.0319 H         1 ATP         0.4716
     34 H5'1       -1.1769    2.0503    0.6369 H         1 ATP         0.0452
     35 H5'2       -0.2081    3.2815    1.4877 H         1 ATP         0.0452
     36 H4'         0.0403    1.7078    3.4343 H         1 ATP         0.0998
     37 H3'         1.5906    1.4859    1.1353 H         1 ATP         0.0544
     38 HO3'        2.6839   -0.1150    2.2479 H         1 ATP         0.3961
     39 H2'        -0.0017    0.0018    0.0005 H         1 ATP         0.0499
     40 HO2'        2.0953   -0.9375    0.0709 H         1 ATP         0.4045
     41 H1'        -0.1998   -1.6319    2.6178 H         1 ATP         0.0912
     42 H8         -3.0558    0.0252    0.8256 H         1 ATP         0.1090
     43 HN62       -4.7047   -5.5592   -0.9421 H         1 ATP         0.3694
     44 H2         -0.6372   -5.9505    1.0077 H         1 ATP         0.0371
     45 H45        -2.6338   -6.3155   -0.0469 H         1 ATP         0.4283
@<TRIPOS>BOND
     1    1    2 2
     2    1    3 1
     3    1    4 1
     4    1    8 1
     5    4   32 1
     6    5    6 2
     7    5    7 1
     8    5    8 1
     9    5   12 1
    10    7   33 1
    11    9   10 2
    12    9   11 1
    13    9   12 1
    14    9   13 1
    15   13   14 1
    16   14   15 1
    17   14   34 1
    18   14   35 1
    19   15   16 1
    20   15   17 1
    21   15   36 1
    22   16   21 1
    23   17   18 1
    24   17   19 1
    25   17   37 1
    26   18   38 1
    27   19   20 1
    28   19   21 1
    29   19   39 1
    30   20   40 1
    31   21   22 1
    32   21   41 1
    33   22   23 ar
    34   22   31 ar
    35   23   24 ar
    36   23   42 1
    37   24   25 ar
    38   25   26 ar
    39   25   31 ar
    40   26   27 2
    41   26   28 ar
    42   27   43 1
    43   28   29 ar
    44   28   45 1
    45   29   30 ar
    46   29   44 1
    47   30   31 ar
@<TRIPOS>SUBSTRUCTURE
     1 ATP         1 GROUP 0 A     ****
@<TRIPOS>MOLECULE
[[[3,4-dihydroxy-5-(6-imino-1~{H}-purin-9-yl)tetrahydrofuran-2-yl]methoxy-oxido-phosphoryl]oxy-hydroxy-phosphoryl] hydrogen phosphate
   45    47     1     0     0
SMALL
USER_CHARGES

@<TRIPOS>ATOM
      1 PG          1.7258    4.7371    4.2520 P.3       1 ATP         1.5496
      2 O1G         1.2886    5.1093    5.6513 O.co2     1 ATP        -0.8494
      3 O2G         2.9221    5.4025    3.6089 O.co2     1 ATP        -0.8494
      4 O3G         1.9358    3.1191    4.1878 O.3       1 ATP        -0.7845
      5 PB         -0.3904    6.1566    2.7672 P.3       1 ATP         1.9068
      6 O1B        -1.0492    6.9369    3.8660 O.2       1 ATP        -0.8942
      7 O2B         0.6721    6.9891    1.8775 O.3       1 ATP        -0.8166
      8 O3B         0.4458    4.8598    3.2486 O.3       1 ATP        -0.8194
      9 PA         -2.5926    4.4186    1.8557 P.3       1 ATP         1.5903
     10 O1A        -3.1163    4.0394    0.4875 O.co2     1 ATP        -0.8519
     11 O2A        -3.5304    4.9259    2.9295 O.co2     1 ATP        -0.8519
     12 O3A        -1.3857    5.5034    1.6753 O.3       1 ATP        -0.8093
     13 O5'        -1.7337    3.1724    2.4752 O.3       1 ATP        -0.5649
     14 C5'        -0.8811    2.4285    1.6206 C.3       1 ATP         0.1979
     15 C4'        -0.1994    1.3333    2.4288 C.3       1 ATP         0.1179
     16 O4'        -1.1285    0.2356    2.5840 O.3       1 ATP        -0.3878
     17 C3'         1.0324    0.7610    1.7344 C.3       1 ATP         0.1185
     18 O3'         1.9175    0.2377    2.7247 O.3       1 ATP        -0.5544
     19 C2'         0.4468   -0.3802    0.9263 C.3       1 ATP         0.0542
     20 O2'         1.3993   -1.3703    0.5961 O.3       1 ATP        -0.5831
     21 C1'        -0.6159   -0.9100    1.8769 C.3       1 ATP         0.2222
     22 N9         -1.7127   -1.6108    1.2130 N.pl3     1 ATP        -0.1887
     23 C8         -2.8662   -1.0361    0.7388 C.ar      1 ATP         0.4447
     24 N7         -3.6774   -1.9166    0.1867 N.2       1 ATP        -0.6159
     25 C5         -3.0159   -3.1045    0.3123 C.ar      1 ATP         0.2195
     26 C6         -3.4377   -4.4169   -0.1199 C.ar      1 ATP         0.6144
     27 N6         -4.5720   -4.5691   -0.7080 N.2       1 ATP        -0.8160
     28 N1         -2.4600   -5.3463    0.2071 N.pl3     1 ATP        -0.8611
     29 C2         -1.2595   -5.0554    0.8515 C.ar      1 ATP         0.6141
     30 N3         -0.8555   -3.8803    1.2516 N.2       1 ATP        -0.5913
     31 C4         -1.7946   -2.9457    0.9448 C.ar      1 ATP         0.0067
     32 HOG3        2.2217    2.7188    3.3391 H         1 ATP         0.4313
     33 HOB2        1.4525    7.3866    2.3192 H         1 ATP         0.4716
     34 H5'1       -1.4801    1.9928    0.8147 H         1 ATP         0.0452
     35 H5'2       -0.1369    3.1041    1.1872 H         1 ATP         0.0452
     36 H4'         0.0403    1.7078    3.4343 H         1 ATP         0.0998
     37 H3'         1.5906    1.4859    1.1353 H         1 ATP         0.0544
     38 HO3'        2.6839   -0.1150    2.2479 H         1 ATP         0.3961
     39 H2'        -0.0017    0.0018    0.0005 H         1 ATP         0.0499
     40 HO2'        2.0953   -0.9375    0.0709 H         1 ATP         0.4045
     41 H1'        -0.1998   -1.6319    2.6178 H         1 ATP         0.0912
     42 H8         -3.0558    0.0252    0.8256 H         1 ATP         0.1090
     43 HN62       -4.7047   -5.5592   -0.9421 H         1 ATP         0.3694
     44 H2         -0.6372   -5.9505    1.0077 H         1 ATP         0.0371
     45 H45        -2.6338   -6.3155   -0.0469 H         1 ATP         0.4283
@<TRIPOS>BOND
     1    1    2 2
     2    1    3 1
     3    1    4 1
     4    1    8 1
     5    4   32 1
     6    5    6 2
     7    5    7 1
     8    5    8 1
     9    5   12 1
    10    7   33 1
    11    9   10 2
    12    9   11 1
    13    9   12 1
    14    9   13 1
    15   13   14 1
    16   14   15 1
    17   14   34 1
    18   14   35 1
    19   15   16 1
    20   15   17 1
    21   15   36 1
    22   16   21 1
    23   17   18 1
    24   17   19 1
    25   17   37 1
    26   18   38 1
    27   19   20 1
    28   19   21 1
    29   19   39 1
    30   20   40 1
    31   21   22 1
    32   21   41 1
    33   22   23 ar
    34   22   31 ar
    35   23   24 ar
    36   23   42 1
    37   24   25 ar
    38   25   26 ar
    39   25   31 ar
    40   26   27 2
    41   26   28 ar
    42   27   43 1
    43   28   29 ar
    44   28   45 1
    45   29   30 ar
    46   29   44 1
    47   30   31 ar
@<TRIPOS>SUBSTRUCTURE
     1 ATP         1 GROUP 0 A     ****
@<TRIPOS>MOLECULE
[[[3,4-dihydroxy-5-(6-imino-1~{H}-purin-9-yl)tetrahydrofuran-2-yl]methoxy-oxido-phosphoryl]oxy-hydroxy-phosphoryl] hydrogen phosphate
   45    47     1     0     0
SMALL
USER_CHARGES

@<TRIPOS>ATOM
      1 PG         -4.3962    5.4990    3.5618 P.3       1 ATP         1.5496
      2 O1G        -3.6550    4.1993    3.7834 O.co2     1 ATP        -0.8494
      3 O2G        -5.6801    5.5348    2.7633 O.co2     1 ATP        -0.8494
      4 O3G        -4.6694    6.1938    5.0140 O.3       1 ATP        -0.7845
      5 PB         -2.6041    6.6540    1.5242 P.3       1 ATP         1.9068
      6 O1B        -3.5045    6.6888    0.3249 O.2       1 ATP        -0.8942
      7 O2B        -1.6037    7.9159    1.6669 O.3       1 ATP        -0.8166
      8 O3B        -3.3598    6.6008    2.9521 O.3       1 ATP        -0.8194
      9 PA         -0.4664    4.8322    0.6228 P.3       1 ATP         1.5903
     10 O1A         0.6558    5.8467    0.5865 O.co2     1 ATP        -0.8519
     11 O2A        -1.1276    4.3642   -0.6553 O.co2     1 ATP        -0.8519
     12 O3A        -1.6298    5.3702    1.6343 O.3       1 ATP        -0.8093
     13 O5'         0.0180    3.5131    1.4595 O.3       1 ATP        -0.5649
     14 C5'        -0.8811    2.4285    1.6206 C.3       1 ATP         0.1979
     15 C4'        -0.1994    1.3333    2.4288 C.3       1 ATP         0.1179
     16 O4'        -1.1285    0.2356    2.5840 O.3       1 ATP        -0.3878
     17 C3'         1.0324    0.7610    1.7344 C.3       1 ATP         0.1185
     18 O3'         1.9175    0.2377    2.7247 O.3       1 ATP        -0.5544
     19 C2'         0.4468   -0.3802    0.9263 C.3       1 ATP         0.0542
     20 O2'         1.3993   -1.3703    0.5961 O.3       1 ATP        -0.5831
     21 C1'        -0.6159   -0.9100    1.8769 C.3       1 ATP         0.2222
     22 N9         -1.7127   -1.6108    1.2130 N.pl3     1 ATP        -0.1887
     23 C8         -2.8662   -1.0361    0.7388 C.ar      1 ATP         0.4447
     24 N7         -3.6774   -1.9166    0.1867 N.2       1 ATP        -0.6159
     25 C5         -3.0159   -3.1045    0.3123 C.ar      1 ATP         0.2195
     26 C6         -3.4377   -4.4169   -0.1199 C.ar      1 ATP         0.6144
     27 N6         -4.5720   -4.5691   -0.7080 N.2       1 ATP        -0.8160
     28 N1         -2.4600   -5.3463    0.2071 N.pl3     1 ATP        -0.8611
     29 C2         -1.2595   -5.0554    0.8515 C.ar      1 ATP         0.6141
     30 N3         -0.8555   -3.8803    1.2516 N.2       1 ATP        -0.5913
     31 C4         -1.7946   -2.9457    0.9448 C.ar      1 ATP         0.0067
     32 HOG3       -5.1451    7.0513    5.0390 H         1 ATP         0.4313
     33 HOB2       -0.9562    8.0915    0.9512 H         1 ATP         0.4716
     34 H5'1       -1.7770    2.7851    2.1387 H         1 ATP         0.0452
     35 H5'2       -1.1653    2.0543    0.6320 H         1 ATP         0.0452
     36 H4'         0.0403    1.7078    3.4343 H         1 ATP         0.0998
     37 H3'         1.5906    1.4859    1.1353 H         1 ATP         0.0544
     38 HO3'        2.6839   -0.1150    2.2479 H         1 ATP         0.3961
     39 H2'        -0.0017    0.0018    0.0005 H         1 ATP         0.0499
     40 HO2'        2.0953   -0.9375    0.0709 H         1 ATP         0.4045
     41 H1'        -0.1998   -1.6319    2.6178 H         1 ATP         0.0912
     42 H8         -3.0558    0.0252    0.8256 H         1 ATP         0.1090
     43 HN62       -4.7047   -5.5592   -0.9421 H         1 ATP         0.3694
     44 H2         -0.6372   -5.9505    1.0077 H         1 ATP         0.0371
     45 H45        -2.6338   -6.3155   -0.0469 H         1 ATP         0.4283
@<TRIPOS>BOND
     1    1    2 2
     2    1    3 1
     3    1    4 1
     4    1    8 1
     5    4   32 1
     6    5    6 2
     7    5    7 1
     8    5    8 1
     9    5   12 1
    10    7   33 1
    11    9   10 2
    12    9   11 1
    13    9   12 1
    14    9   13 1
    15   13   14 1
    16   14   15 1
    17   14   34 1
    18   14   35 1
    19   15   16 1
    20   15   17 1
    21   15   36 1
    22   16   21 1
    23   17   18 1
    24   17   19 1
    25   17   37 1
    26   18   38 1
    27   19   20 1
    28   19   21 1
    29   19   39 1
    30   20   40 1
    31   21   22 1
    32   21   41 1
    33   22   23 ar
    34   22   31 ar
    35   23   24 ar
    36   23   42 1
    37   24   25 ar
    38   25   26 ar
    39   25   31 ar
    40   26   27 2
    41   26   28 ar
    42   27   43 1
    43   28   29 ar
    44   28   45 1
    45   29   30 ar
    46   29   44 1
    47   30   31 ar
@<TRIPOS>SUBSTRUCTURE
     1 ATP         1 GROUP 0 A     ****
@<TRIPOS>MOLECULE
[[[3,4-dihydroxy-5-(6-imino-1~{H}-purin-9-yl)tetrahydrofuran-2-yl]methoxy-oxido-phosphoryl]oxy-hydroxy-phosphoryl] hydrogen phosphate
   45    47     1     0     0
SMALL
USER_CHARGES

@<TRIPOS>ATOM
      1 PG          0.5862    6.0198    5.6265 P.3       1 ATP         1.5496
      2 O1G         1.9972    6.4178    5.9985 O.co2     1 ATP        -0.8494
      3 O2G         0.1628    4.5678    5.6268 O.co2     1 ATP        -0.8494
      4 O3G        -0.4536    6.8632    6.5611 O.3       1 ATP        -0.7845
      5 PB         -1.1858    6.7202    3.3754 P.3       1 ATP         1.9068
      6 O1B        -2.3191    7.3943    4.0906 O.2       1 ATP        -0.8942
      7 O2B        -0.7884    7.3741    1.9513 O.3       1 ATP        -0.8166
      8 O3B         0.2137    6.6820    4.1833 O.3       1 ATP        -0.8194
      9 PA         -2.5400    4.4094    2.1394 P.3       1 ATP         1.5903
     10 O1A        -2.3768    4.8333    0.6960 O.co2     1 ATP        -0.8519
     11 O2A        -3.8714    4.5574    2.8431 O.co2     1 ATP        -0.8519
     12 O3A        -1.3993    5.1547    3.0391 O.3       1 ATP        -0.8093
     13 O5'        -2.0402    2.8619    2.3130 O.3       1 ATP        -0.5649
     14 C5'        -0.8811    2.4285    1.6206 C.3       1 ATP         0.1979
     15 C4'        -0.1994    1.3333    2.4288 C.3       1 ATP         0.1179
     16 O4'        -1.1285    0.2356    2.5840 O.3       1 ATP        -0.3878
     17 C3'         1.0324    0.7610    1.7344 C.3       1 ATP         0.1185
     18 O3'         1.9175    0.2377    2.7247 O.3       1 ATP        -0.5544
     19 C2'         0.4468   -0.3802    0.9263 C.3       1 ATP         0.0542
     20 O2'         1.3993   -1.3703    0.5961 O.3       1 ATP        -0.5831
     21 C1'        -0.6159   -0.9100    1.8769 C.3       1 ATP         0.2222
     22 N9         -1.7127   -1.6108    1.2130 N.pl3     1 ATP        -0.1887
     23 C8         -2.8662   -1.0361    0.7388 C.ar      1 ATP         0.4447
     24 N7         -3.6774   -1.9166    0.1867 N.2       1 ATP        -0.6159
     25 C5         -3.0159   -3.1045    0.3123 C.ar      1 ATP         0.2195
     26 C6         -3.4377   -4.4169   -0.1199 C.ar      1 ATP         0.6144
     27 N6         -4.5720   -4.5691   -0.7080 N.2       1 ATP        -0.8160
     28 N1         -2.4600   -5.3463    0.2071 N.pl3     1 ATP        -0.8611
     29 C2         -1.2595   -5.0554    0.8515 C.ar      1 ATP         0.6141
     30 N3         -0.8555   -3.8803    1.2516 N.2       1 ATP        -0.5913
     31 C4         -1.7946   -2.9457    0.9448 C.ar      1 ATP         0.0067
     32 HOG3       -1.4157    6.7157    6.4392 H         1 ATP         0.4313
     33 HOB2       -1.4637    7.4102    1.2407 H         1 ATP         0.4716
     34 H5'1       -1.1769    2.0503    0.6369 H         1 ATP         0.0452
     35 H5'2       -0.2081    3.2815    1.4877 H         1 ATP         0.0452
     36 H4'         0.0403    1.7078    3.4343 H         1 ATP         0.0998
     37 H3'         1.5906    1.4859    1.1353 H         1 ATP         0.0544
     38 HO3'        2.6839   -0.1150    2.2479 H         1 ATP         0.3961
     39 H2'        -0.0017    0.0018    0.0005 H         1 ATP         0.0499
     40 HO2'        2.0953   -0.9375    0.0709 H         1 ATP         0.4045
     41 H1'        -0.1998   -1.6319    2.6178 H         1 ATP         0.0912
     42 H8         -3.0558    0.0252    0.8256 H         1 ATP         0.1090
     43 HN62       -4.7047   -5.5592   -0.9421 H         1 ATP         0.3694
     44 H2         -0.6372   -5.9505    1.0077 H         1 ATP         0.0371
     45 H45        -2.6338   -6.3155   -0.0469 H         1 ATP         0.4283
@<TRIPOS>BOND
     1    1    2 2
     2    1    3 1
     3    1    4 1
     4    1    8 1
     5    4   32 1
     6    5    6 2
     7    5    7 1
     8    5    8 1
     9    5   12 1
    10    7   33 1
    11    9   10 2
    12    9   11 1
    13    9   12 1
    14    9   13 1
    15   13   14 1
    16   14   15 1
    17   14   34 1
    18   14   35 1
    19   15   16 1
    20   15   17 1
    21   15   36 1
    22   16   21 1
    23   17   18 1
    24   17   19 1
    25   17   37 1
    26   18   38 1
    27   19   20 1
    28   19   21 1
    29   19   39 1
    30   20   40 1
    31   21   22 1
    32   21   41 1
    33   22   23 ar
    34   22   31 ar
    35   23   24 ar
    36   23   42 1
    37   24   25 ar
    38   25   26 ar
    39   25   31 ar
    40   26   27 2
    41   26   28 ar
    42   27   43 1
    43   28   29 ar
    44   28   45 1
    45   29   30 ar
    46   29   44 1
    47   30   31 ar
@<TRIPOS>SUBSTRUCTURE
     1 ATP         1 GROUP 0 A     ****
@<TRIPOS>MOLECULE
[[[3,4-dihydroxy-5-(6-imino-1~{H}-purin-9-yl)tetrahydrofuran-2-yl]methoxy-oxido-phosphoryl]oxy-hydroxy-phosphoryl] hydrogen phosphate
   45    47     1     0     0
SMALL
USER_CHARGES

@<TRIPOS>ATOM
      1 PG         -0.4349    6.8398   -1.0901 P.3       1 ATP         1.5496
      2 O1G         0.3794    6.0703   -0.0741 O.co2     1 ATP        -0.8494
      3 O2G        -0.7883    8.2927   -0.8631 O.co2     1 ATP        -0.8494
      4 O3G         0.2915    6.7045   -2.5462 O.3       1 ATP        -0.7845
      5 PB         -3.0713    5.6677   -0.4792 P.3       1 ATP         1.9068
      6 O1B        -3.8087    6.8610    0.0526 O.2       1 ATP        -0.8942
      7 O2B        -3.9567    4.6624   -1.3842 O.3       1 ATP        -0.8166
      8 O3B        -1.7980    6.0055   -1.4158 O.3       1 ATP        -0.8194
      9 PA         -3.0798    3.8626    1.8537 P.3       1 ATP         1.5903
     10 O1A        -3.9734    2.7896    1.2704 O.co2     1 ATP        -0.8519
     11 O2A        -3.6164    4.8487    2.8682 O.co2     1 ATP        -0.8519
     12 O3A        -2.4006    4.7043    0.6305 O.3       1 ATP        -0.8093
     13 O5'        -1.7337    3.1724    2.4752 O.3       1 ATP        -0.5649
     14 C5'        -0.8811    2.4285    1.6206 C.3       1 ATP         0.1979
     15 C4'        -0.1994    1.3333    2.4288 C.3       1 ATP         0.1179
     16 O4'        -1.1285    0.2356    2.5840 O.3       1 ATP        -0.3878
     17 C3'         1.0324    0.7610    1.7344 C.3       1 ATP         0.1185
     18 O3'         1.9175    0.2377    2.7247 O.3       1 ATP        -0.5544
     19 C2'         0.4468   -0.3802    0.9263 C.3       1 ATP         0.0542
     20 O2'         1.3993   -1.3703    0.5961 O.3       1 ATP        -0.5831
     21 C1'        -0.6159   -0.9100    1.8769 C.3       1 ATP         0.2222
     22 N9         -1.7127   -1.6108    1.2130 N.pl3     1 ATP        -0.1887
     23 C8         -2.8662   -1.0361    0.7388 C.ar      1 ATP         0.4447
     24 N7         -3.6774   -1.9166    0.1867 N.2       1 ATP        -0.6159
     25 C5         -3.0159   -3.1045    0.3123 C.ar      1 ATP         0.2195
     26 C6         -3.4377   -4.4169   -0.1199 C.ar      1 ATP         0.6144
     27 N6         -4.5720   -4.5691   -0.7080 N.2       1 ATP        -0.8160
     28 N1         -2.4600   -5.3463    0.2071 N.pl3     1 ATP        -0.8611
     29 C2         -1.2595   -5.0554    0.8515 C.ar      1 ATP         0.6141
     30 N3         -0.8555   -3.8803    1.2516 N.2       1 ATP        -0.5913
     31 C4         -1.7946   -2.9457    0.9448 C.ar      1 ATP         0.0067
     32 HOG3       -0.1191    7.1526   -3.3161 H         1 ATP         0.4313
     33 HOB2       -4.7441    4.2341   -0.9858 H         1 ATP         0.4716
     34 H5'1       -1.4801    1.9928    0.8147 H         1 ATP         0.0452
     35 H5'2       -0.1369    3.1041    1.1872 H         1 ATP         0.0452
     36 H4'         0.0403    1.7078    3.4343 H         1 ATP         0.0998
     37 H3'         1.5906    1.4859    1.1353 H         1 ATP         0.0544
     38 HO3'        2.6839   -0.1150    2.2479 H         1 ATP         0.3961
     39 H2'        -0.0017    0.0018    0.0005 H         1 ATP         0.0499
     40 HO2'        2.0953   -0.9375    0.0709 H         1 ATP         0.4045
     41 H1'        -0.1998   -1.6319    2.6178 H         1 ATP         0.0912
     42 H8         -3.0558    0.0252    0.8256 H         1 ATP         0.1090
     43 HN62       -4.7047   -5.5592   -0.9421 H         1 ATP         0.3694
     44 H2         -0.6372   -5.9505    1.0077 H         1 ATP         0.0371
     45 H45        -2.6338   -6.3155   -0.0469 H         1 ATP         0.4283
@<TRIPOS>BOND
     1    1    2 2
     2    1    3 1
     3    1    4 1
     4    1    8 1
     5    4   32 1
     6    5    6 2
     7    5    7 1
     8    5    8 1
     9    5   12 1
    10    7   33 1
    11    9   10 2
    12    9   11 1
    13    9   12 1
    14    9   13 1
    15   13   14 1
    16   14   15 1
    17   14   34 1
    18   14   35 1
    19   15   16 1
    20   15   17 1
    21   15   36 1
    22   16   21 1
    23   17   18 1
    24   17   19 1
    25   17   37 1
    26   18   38 1
    27   19   20 1
    28   19   21 1
    29   19   39 1
    30   20   40 1
    31   21   22 1
    32   21   41 1
    33   22   23 ar
    34   22   31 ar
    35   23   24 ar
    36   23   42 1
    37   24   25 ar
    38   25   26 ar
    39   25   31 ar
    40   26   27 2
    41   26   28 ar
    42   27   43 1
    43   28   29 ar
    44   28   45 1
    45   29   30 ar
    46   29   44 1
    47   30   31 ar
@<TRIPOS>SUBSTRUCTURE
     1 ATP         1 GROUP 0 A     ****
@<TRIPOS>MOLECULE
[[[3,4-dihydroxy-5-(6-imino-1~{H}-purin-9-yl)tetrahydrofuran-2-yl]methoxy-oxido-phosphoryl]oxy-hydroxy-phosphoryl] hydrogen phosphate
   45    47     1     0     0
SMALL
USER_CHARGES

@<TRIPOS>ATOM
      1 PG          0.6973    2.7517   -3.7181 P.3       1 ATP         1.5496
      2 O1G         1.1646    1.9817   -2.5030 O.co2     1 ATP        -0.8494
      3 O2G         1.6554    3.6189   -4.5040 O.co2     1 ATP        -0.8494
      4 O3G        -0.0216    1.7084   -4.7480 O.3       1 ATP        -0.7845
      5 PB         -0.7539    4.9000   -2.3121 P.3       1 ATP         1.9068
      6 O1B         0.0710    6.0994   -2.6743 O.2       1 ATP        -0.8942
      7 O2B        -2.3485    5.1587   -2.2484 O.3       1 ATP        -0.8166
      8 O3B        -0.6103    3.6375   -3.3113 O.3       1 ATP        -0.8194
      9 PA         -0.4664    4.8322    0.6228 P.3       1 ATP         1.5903
     10 O1A        -1.9047    5.1495    0.9699 O.co2     1 ATP        -0.8519
     11 O2A         0.6096    5.8893    0.7433 O.co2     1 ATP        -0.8519
     12 O3A        -0.4131    4.2167   -0.8886 O.3       1 ATP        -0.8093
     13 O5'         0.0180    3.5131    1.4595 O.3       1 ATP        -0.5649
     14 C5'        -0.8811    2.4285    1.6206 C.3       1 ATP         0.1979
     15 C4'        -0.1994    1.3333    2.4288 C.3       1 ATP         0.1179
     16 O4'        -1.1285    0.2356    2.5840 O.3       1 ATP        -0.3878
     17 C3'         1.0324    0.7610    1.7344 C.3       1 ATP         0.1185
     18 O3'         1.9175    0.2377    2.7247 O.3       1 ATP        -0.5544
     19 C2'         0.4468   -0.3802    0.9263 C.3       1 ATP         0.0542
     20 O2'         1.3993   -1.3703    0.5961 O.3       1 ATP        -0.5831
     21 C1'        -0.6159   -0.9100    1.8769 C.3       1 ATP         0.2222
     22 N9         -1.7127   -1.6108    1.2130 N.pl3     1 ATP        -0.1887
     23 C8         -1.7690   -2.9583    0.9549 C.ar      1 ATP         0.4447
     24 N7         -2.8827   -3.3076    0.3418 N.2       1 ATP        -0.6159
     25 C5         -3.5683   -2.1351    0.2017 C.ar      1 ATP         0.2195
     26 C6         -4.8617   -1.9185   -0.4044 C.ar      1 ATP         0.6144
     27 N6         -5.5166   -2.9094   -0.8994 N.2       1 ATP        -0.8160
     28 N1         -5.1836   -0.5701   -0.3344 N.pl3     1 ATP        -0.8611
     29 C2         -4.3821    0.4180    0.2330 C.ar      1 ATP         0.6141
     30 N3         -3.2117    0.2488    0.7860 N.2       1 ATP        -0.5913
     31 C4         -2.8672   -1.0657    0.7327 C.ar      1 ATP         0.0067
     32 HOG3       -0.3810    2.0579   -5.5911 H         1 ATP         0.4313
     33 HOB2       -2.6965    5.8235   -1.6166 H         1 ATP         0.4716
     34 H5'1       -1.7770    2.7851    2.1387 H         1 ATP         0.0452
     35 H5'2       -1.1653    2.0543    0.6320 H         1 ATP         0.0452
     36 H4'         0.0403    1.7078    3.4343 H         1 ATP         0.0998
     37 H3'         1.5906    1.4859    1.1353 H         1 ATP         0.0544
     38 HO3'        2.6839   -0.1150    2.2479 H         1 ATP         0.3961
     39 H2'        -0.0017    0.0018    0.0005 H         1 ATP         0.0499
     40 HO2'        2.0953   -0.9375    0.0709 H         1 ATP         0.4045
     41 H1'        -0.1998   -1.6319    2.6178 H         1 ATP         0.0912
     42 H8         -0.9697   -3.6300    1.2371 H         1 ATP         0.1090
     43 HN62       -6.4060   -2.5723   -1.2840 H         1 ATP         0.3694
     44 H2         -4.8409    1.4176    0.1757 H         1 ATP         0.0371
     45 H45        -6.0768   -0.2826   -0.7263 H         1 ATP         0.4283
@<TRIPOS>BOND
     1    1    2 2
     2    1    3 1
     3    1    4 1
     4    1    8 1
     5    4   32 1
     6    5    6 2
     7    5    7 1
     8    5    8 1
     9    5   12 1
    10    7   33 1
    11    9   10 2
    12    9   11 1
    13    9   12 1
    14    9   13 1
    15   13   14 1
    16   14   15 1
    17   14   34 1
    18   14   35 1
    19   15   16 1
    20   15   17 1
    21   15   36 1
    22   16   21 1
    23   17   18 1
    24   17   19 1
    25   17   37 1
    26   18   38 1
    27   19   20 1
    28   19   21 1
    29   19   39 1
    30   20   40 1
    31   21   22 1
    32   21   41 1
    33   22   23 ar
    34   22   31 ar
    35   23   24 ar
    36   23   42 1
    37   24   25 ar
    38   25   26 ar
    39   25   31 ar
    40   26   27 2
    41   26   28 ar
    42   27   43 1
    43   28   29 ar
    44   28   45 1
    45   29   30 ar
    46   29   44 1
    47   30   31 ar
@<TRIPOS>SUBSTRUCTURE
     1 ATP         1 GROUP 0 A     ****
@<TRIPOS>MOLECULE
[[[3,4-dihydroxy-5-(6-imino-1~{H}-purin-9-yl)tetrahydrofuran-2-yl]methoxy-oxido-phosphoryl]oxy-hydroxy-phosphoryl] hydrogen phosphate
   45    47     1     0     0
SMALL
USER_CHARGES

@<TRIPOS>ATOM
      1 PG         -2.8843    7.9970   -1.0515 P.3       1 ATP         1.5496
      2 O1G        -1.7311    8.9666   -1.1837 O.co2     1 ATP        -0.8494
      3 O2G        -4.2764    8.4860   -0.7192 O.co2     1 ATP        -0.8494
      4 O3G        -2.9621    7.0958   -2.4109 O.3       1 ATP        -0.7845
      5 PB         -2.1893    6.8870    1.5910 P.3       1 ATP         1.9068
      6 O1B        -1.0702    7.7950    2.0075 O.2       1 ATP        -0.8942
      7 O2B        -3.6346    7.2480    2.2190 O.3       1 ATP        -0.8166
      8 O3B        -2.4684    6.8218    0.0002 O.3       1 ATP        -0.8194
      9 PA         -2.9646    4.0417    1.6588 P.3       1 ATP         1.5903
     10 O1A        -3.0698    3.8297    0.1641 O.co2     1 ATP        -0.8519
     11 O2A        -4.2080    4.1930    2.5078 O.co2     1 ATP        -0.8519
     12 O3A        -1.9921    5.3225    1.9416 O.3       1 ATP        -0.8093
     13 O5'        -2.0402    2.8619    2.3130 O.3       1 ATP        -0.5649
     14 C5'        -0.8811    2.4285    1.6206 C.3       1 ATP         0.1979
     15 C4'        -0.1994    1.3333    2.4288 C.3       1 ATP         0.1179
     16 O4'        -1.1285    0.2356    2.5840 O.3       1 ATP        -0.3878
     17 C3'         1.0324    0.7610    1.7344 C.3       1 ATP         0.1185
     18 O3'         1.9175    0.2377    2.7247 O.3       1 ATP        -0.5544
     19 C2'         0.4468   -0.3802    0.9263 C.3       1 ATP         0.0542
     20 O2'         1.3993   -1.3703    0.5961 O.3       1 ATP        -0.5831
     21 C1'        -0.6159   -0.9100    1.8769 C.3       1 ATP         0.2222
     22 N9         -1.7127   -1.6108    1.2130 N.pl3     1 ATP        -0.1887
     23 C8         -1.7690   -2.9583    0.9549 C.ar      1 ATP         0.4447
     24 N7         -2.8827   -3.3076    0.3418 N.2       1 ATP        -0.6159
     25 C5         -3.5683   -2.1351    0.2017 C.ar      1 ATP         0.2195
     26 C6         -4.8617   -1.9185   -0.4044 C.ar      1 ATP         0.6144
     27 N6         -5.5166   -2.9094   -0.8994 N.2       1 ATP        -0.8160
     28 N1         -5.1836   -0.5701   -0.3344 N.pl3     1 ATP        -0.8611
     29 C2         -4.3821    0.4180    0.2330 C.ar      1 ATP         0.6141
     30 N3         -3.2117    0.2488    0.7860 N.2       1 ATP        -0.5913
     31 C4         -2.8672   -1.0657    0.7327 C.ar      1 ATP         0.0067
     32 HOG3       -3.6643    6.4143   -2.4795 H         1 ATP         0.4313
     33 HOB2       -4.0270    8.1274    2.0319 H         1 ATP         0.4716
     34 H5'1       -1.1769    2.0503    0.6369 H         1 ATP         0.0452
     35 H5'2       -0.2081    3.2815    1.4877 H         1 ATP         0.0452
     36 H4'         0.0403    1.7078    3.4343 H         1 ATP         0.0998
     37 H3'         1.5906    1.4859    1.1353 H         1 ATP         0.0544
     38 HO3'        2.6839   -0.1150    2.2479 H         1 ATP         0.3961
     39 H2'        -0.0017    0.0018    0.0005 H         1 ATP         0.0499
     40 HO2'        2.0953   -0.9375    0.0709 H         1 ATP         0.4045
     41 H1'        -0.1998   -1.6319    2.6178 H         1 ATP         0.0912
     42 H8         -0.9697   -3.6300    1.2371 H         1 ATP         0.1090
     43 HN62       -6.4060   -2.5723   -1.2840 H         1 ATP         0.3694
     44 H2         -4.8409    1.4176    0.1757 H         1 ATP         0.0371
     45 H45        -6.0768   -0.2826   -0.7263 H         1 ATP         0.4283
@<TRIPOS>BOND
     1    1    2 2
     2    1    3 1
     3    1    4 1
     4    1    8 1
     5    4   32 1
     6    5    6 2
     7    5    7 1
     8    5    8 1
     9    5   12 1
    10    7   33 1
    11    9   10 2
    12    9   11 1
    13    9   12 1
    14    9   13 1
    15   13   14 1
    16   14   15 1
    17   14   34 1
    18   14   35 1
    19   15   16 1
    20   15   17 1
    21   15   36 1
    22   16   21 1
    23   17   18 1
    24   17   19 1
    25   17   37 1
    26   18   38 1
    27   19   20 1
    28   19   21 1
    29   19   39 1
    30   20   40 1
    31   21   22 1
    32   21   41 1
    33   22   23 ar
    34   22   31 ar
    35   23   24 ar
    36   23   42 1
    37   24   25 ar
    38   25   26 ar
    39   25   31 ar
    40   26   27 2
    41   26   28 ar
    42   27   43 1
    43   28   29 ar
    44   28   45 1
    45   29   30 ar
    46   29   44 1
    47   30   31 ar
@<TRIPOS>SUBSTRUCTURE
     1 ATP         1 GROUP 0 A     ****
@<TRIPOS>MOLECULE
[[[3,4-dihydroxy-5-(6-imino-1~{H}-purin-9-yl)tetrahydrofuran-2-yl]methoxy-oxido-phosphoryl]oxy-hydroxy-phosphoryl] hydrogen phosphate
   45    47     1     0     0
SMALL
USER_CHARGES

@<TRIPOS>ATOM
      1 PG         -1.0618    2.3254   -3.6065 P.3       1 ATP         1.5496
      2 O1G        -1.2109    2.3665   -5.1111 O.co2     1 ATP        -0.8494
      3 O2G        -2.2541    2.5419   -2.7015 O.co2     1 ATP        -0.8494
      4 O3G        -0.3476    0.9159   -3.1948 O.3       1 ATP        -0.7845
      5 PB          0.8212    3.5954   -1.7253 P.3       1 ATP         1.9068
      6 O1B         1.4841    2.3955   -1.1161 O.2       1 ATP        -0.8942
      7 O2B         1.7949    4.8604   -1.9808 O.3       1 ATP        -0.8166
      8 O3B         0.1324    3.3451   -3.1660 O.3       1 ATP        -0.8194
      9 PA         -0.4664    4.8322    0.6228 P.3       1 ATP         1.5903
     10 O1A        -1.9047    5.1495    0.9699 O.co2     1 ATP        -0.8519
     11 O2A         0.6096    5.8893    0.7433 O.co2     1 ATP        -0.8519
     12 O3A        -0.4131    4.2167   -0.8886 O.3       1 ATP        -0.8093
     13 O5'         0.0180    3.5131    1.4595 O.3       1 ATP        -0.5649
     14 C5'        -0.8811    2.4285    1.6206 C.3       1 ATP         0.1979
     15 C4'        -0.1994    1.3333    2.4288 C.3       1 ATP         0.1179
     16 O4'        -1.1285    0.2356    2.5840 O.3       1 ATP        -0.3878
     17 C3'         1.0324    0.7610    1.7344 C.3       1 ATP         0.1185
     18 O3'         1.9175    0.2377    2.7247 O.3       1 ATP        -0.5544
     19 C2'         0.4468   -0.3802    0.9263 C.3       1 ATP         0.0542
     20 O2'         1.3993   -1.3703    0.5961 O.3       1 ATP        -0.5831
     21 C1'        -0.6159   -0.9100    1.8769 C.3       1 ATP         0.2222
     22 N9         -1.7127   -1.6108    1.2130 N.pl3     1 ATP        -0.1887
     23 C8         -1.7690   -2.9583    0.9549 C.ar      1 ATP         0.4447
     24 N7         -2.8827   -3.3076    0.3418 N.2       1 ATP        -0.6159
     25 C5         -3.5683   -2.1351    0.2017 C.ar      1 ATP         0.2195
     26 C6         -4.8617   -1.9185   -0.4044 C.ar      1 ATP         0.6144
     27 N6         -5.5166   -2.9094   -0.8994 N.2       1 ATP        -0.8160
     28 N1         -5.1836   -0.5701   -0.3344 N.pl3     1 ATP        -0.8611
     29 C2         -4.3821    0.4180    0.2330 C.ar      1 ATP         0.6141
     30 N3         -3.2117    0.2488    0.7860 N.2       1 ATP        -0.5913
     31 C4         -2.8672   -1.0657    0.7327 C.ar      1 ATP         0.0067
     32 HOG3       -0.1801    0.7376   -2.2449 H         1 ATP         0.4313
     33 HOB2        2.2541    5.2679   -1.2157 H         1 ATP         0.4716
     34 H5'1       -1.7770    2.7851    2.1387 H         1 ATP         0.0452
     35 H5'2       -1.1653    2.0543    0.6320 H         1 ATP         0.0452
     36 H4'         0.0403    1.7078    3.4343 H         1 ATP         0.0998
     37 H3'         1.5906    1.4859    1.1353 H         1 ATP         0.0544
     38 HO3'        2.6839   -0.1150    2.2479 H         1 ATP         0.3961
     39 H2'        -0.0017    0.0018    0.0005 H         1 ATP         0.0499
     40 HO2'        2.0953   -0.9375    0.0709 H         1 ATP         0.4045
     41 H1'        -0.1998   -1.6319    2.6178 H         1 ATP         0.0912
     42 H8         -0.9697   -3.6300    1.2371 H         1 ATP         0.1090
     43 HN62       -6.4060   -2.5723   -1.2840 H         1 ATP         0.3694
     44 H2         -4.8409    1.4176    0.1757 H         1 ATP         0.0371
     45 H45        -6.0768   -0.2826   -0.7263 H         1 ATP         0.4283
@<TRIPOS>BOND
     1    1    2 2
     2    1    3 1
     3    1    4 1
     4    1    8 1
     5    4   32 1
     6    5    6 2
     7    5    7 1
     8    5    8 1
     9    5   12 1
    10    7   33 1
    11    9   10 2
    12    9   11 1
    13    9   12 1
    14    9   13 1
    15   13   14 1
    16   14   15 1
    17   14   34 1
    18   14   35 1
    19   15   16 1
    20   15   17 1
    21   15   36 1
    22   16   21 1
    23   17   18 1
    24   17   19 1
    25   17   37 1
    26   18   38 1
    27   19   20 1
    28   19   21 1
    29   19   39 1
    30   20   40 1
    31   21   22 1
    32   21   41 1
    33   22   23 ar
    34   22   31 ar
    35   23   24 ar
    36   23   42 1
    37   24   25 ar
    38   25   26 ar
    39   25   31 ar
    40   26   27 2
    41   26   28 ar
    42   27   43 1
    43   28   29 ar
    44   28   45 1
    45   29   30 ar
    46   29   44 1
    47   30   31 ar
@<TRIPOS>SUBSTRUCTURE
     1 ATP         1 GROUP 0 A     ****
@<TRIPOS>MOLECULE
[[[3,4-dihydroxy-5-(6-imino-1~{H}-purin-9-yl)tetrahydrofuran-2-yl]methoxy-oxido-phosphoryl]oxy-hydroxy-phosphoryl] hydrogen phosphate
   45    47     1     0     0
SMALL
USER_CHARGES

@<TRIPOS>ATOM
      1 PG         -1.0618    2.3254   -3.6065 P.3       1 ATP         1.5496
      2 O1G        -2.3496    2.7647   -2.9459 O.co2     1 ATP        -0.8494
      3 O2G        -0.5680    0.9018   -3.4760 O.co2     1 ATP        -0.8494
      4 O3G        -1.1377    2.7043   -5.1929 O.3       1 ATP        -0.7845
      5 PB          0.8212    3.5954   -1.7253 P.3       1 ATP         1.9068
      6 O1B         1.4841    2.3955   -1.1161 O.2       1 ATP        -0.8942
      7 O2B         1.7949    4.8604   -1.9808 O.3       1 ATP        -0.8166
      8 O3B         0.1324    3.3451   -3.1660 O.3       1 ATP        -0.8194
      9 PA         -0.4664    4.8322    0.6228 P.3       1 ATP         1.5903
     10 O1A        -1.9047    5.1495    0.9699 O.co2     1 ATP        -0.8519
     11 O2A         0.6096    5.8893    0.7433 O.co2     1 ATP        -0.8519
     12 O3A        -0.4131    4.2167   -0.8886 O.3       1 ATP        -0.8093
     13 O5'         0.0180    3.5131    1.4595 O.3       1 ATP        -0.5649
     14 C5'        -0.8811    2.4285    1.6206 C.3       1 ATP         0.1979
     15 C4'        -0.1994    1.3333    2.4288 C.3       1 ATP         0.1179
     16 O4'        -1.1285    0.2356    2.5840 O.3       1 ATP        -0.3878
     17 C3'         1.0324    0.7610    1.7344 C.3       1 ATP         0.1185
     18 O3'         1.9175    0.2377    2.7247 O.3       1 ATP        -0.5544
     19 C2'         0.4468   -0.3802    0.9263 C.3       1 ATP         0.0542
     20 O2'         1.3993   -1.3703    0.5961 O.3       1 ATP        -0.5831
     21 C1'        -0.6159   -0.9100    1.8769 C.3       1 ATP         0.2222
     22 N9         -1.7127   -1.6108    1.2130 N.pl3     1 ATP        -0.1887
     23 C8         -2.8662   -1.0361    0.7388 C.ar      1 ATP         0.4447
     24 N7         -3.6774   -1.9166    0.1867 N.2       1 ATP        -0.6159
     25 C5         -3.0159   -3.1045    0.3123 C.ar      1 ATP         0.2195
     26 C6         -3.4377   -4.4169   -0.1199 C.ar      1 ATP         0.6144
     27 N6         -4.5720   -4.5691   -0.7080 N.2       1 ATP        -0.8160
     28 N1         -2.4600   -5.3463    0.2071 N.pl3     1 ATP        -0.8611
     29 C2         -1.2595   -5.0554    0.8515 C.ar      1 ATP         0.6141
     30 N3         -0.8555   -3.8803    1.2516 N.2       1 ATP        -0.5913
     31 C4         -1.7946   -2.9457    0.9448 C.ar      1 ATP         0.0067
     32 HOG3       -0.3714    2.4814   -5.7632 H         1 ATP         0.4313
     33 HOB2        2.5683    4.7517   -2.5744 H         1 ATP         0.4716
     34 H5'1       -1.7770    2.7851    2.1387 H         1 ATP         0.0452
     35 H5'2       -1.1653    2.0543    0.6320 H         1 ATP         0.0452
     36 H4'         0.0403    1.7078    3.4343 H         1 ATP         0.0998
     37 H3'         1.5906    1.4859    1.1353 H         1 ATP         0.0544
     38 HO3'        2.1521    0.9800    3.3017 H         1 ATP         0.3961
     39 H2'        -0.0017    0.0018    0.0005 H         1 ATP         0.0499
     40 HO2'        0.9369   -2.0558    0.0825 H         1 ATP         0.4045
     41 H1'        -0.1998   -1.6319    2.6178 H         1 ATP         0.0912
     42 H8         -3.0558    0.0252    0.8256 H         1 ATP         0.1090
     43 HN62       -4.7047   -5.5592   -0.9421 H         1 ATP         0.3694
     44 H2         -0.6372   -5.9505    1.0077 H         1 ATP         0.0371
     45 H45        -2.6338   -6.3155   -0.0469 H         1 ATP         0.4283
@<TRIPOS>BOND
     1    1    2 2
     2    1    3 1
     3    1    4 1
     4    1    8 1
     5    4   32 1
     6    5    6 2
     7    5    7 1
     8    5    8 1
     9    5   12 1
    10    7   33 1
    11    9   10 2
    12    9   11 1
    13    9   12 1
    14    9   13 1
    15   13   14 1
    16   14   15 1
    17   14   34 1
    18   14   35 1
    19   15   16 1
    20   15   17 1
    21   15   36 1
    22   16   21 1
    23   17   18 1
    24   17   19 1
    25   17   37 1
    26   18   38 1
    27   19   20 1
    28   19   21 1
    29   19   39 1
    30   20   40 1
    31   21   22 1
    32   21   41 1
    33   22   23 ar
    34   22   31 ar
    35   23   24 ar
    36   23   42 1
    37   24   25 ar
    38   25   26 ar
    39   25   31 ar
    40   26   27 2
    41   26   28 ar
    42   27   43 1
    43   28   29 ar
    44   28   45 1
    45   29   30 ar
    46   29   44 1
    47   30   31 ar
@<TRIPOS>SUBSTRUCTURE
     1 ATP         1 GROUP 0 A     ****
@<TRIPOS>MOLECULE
[[[3,4-dihydroxy-5-(6-imino-1~{H}-purin-9-yl)tetrahydrofuran-2-yl]methoxy-oxido-phosphoryl]oxy-hydroxy-phosphoryl] hydrogen phosphate
   45    47     1     0     0
SMALL
USER_CHARGES

@<TRIPOS>ATOM
      1 PG         -0.1915    8.2578    4.1839 P.3       1 ATP         1.5496
      2 O1G         0.7077    7.5907    5.2009 O.co2     1 ATP        -0.8494
      3 O2G        -1.4203    9.0251    4.6182 O.co2     1 ATP        -0.8494
      4 O3G         0.7222    9.2312    3.2438 O.3       1 ATP        -0.7845
      5 PB         -1.5436    5.8374    3.1783 P.3       1 ATP         1.9068
      6 O1B        -1.0541    4.8019    4.1469 O.2       1 ATP        -0.8942
      7 O2B        -3.0168    6.4257    3.4903 O.3       1 ATP        -0.8166
      8 O3B        -0.6210    7.1591    3.0576 O.3       1 ATP        -0.8194
      9 PA         -0.4664    4.8322    0.6228 P.3       1 ATP         1.5903
     10 O1A         0.6558    5.8467    0.5865 O.co2     1 ATP        -0.8519
     11 O2A        -1.1276    4.3642   -0.6553 O.co2     1 ATP        -0.8519
     12 O3A        -1.6298    5.3702    1.6343 O.3       1 ATP        -0.8093
     13 O5'         0.0180    3.5131    1.4595 O.3       1 ATP        -0.5649
     14 C5'        -0.8811    2.4285    1.6206 C.3       1 ATP         0.1979
     15 C4'        -0.1994    1.3333    2.4288 C.3       1 ATP         0.1179
     16 O4'        -1.1285    0.2356    2.5840 O.3       1 ATP        -0.3878
     17 C3'         1.0324    0.7610    1.7344 C.3       1 ATP         0.1185
     18 O3'         1.9175    0.2377    2.7247 O.3       1 ATP        -0.5544
     19 C2'         0.4468   -0.3802    0.9263 C.3       1 ATP         0.0542
     20 O2'         1.3993   -1.3703    0.5961 O.3       1 ATP        -0.5831
     21 C1'        -0.6159   -0.9100    1.8769 C.3       1 ATP         0.2222
     22 N9         -1.7127   -1.6108    1.2130 N.pl3     1 ATP        -0.1887
     23 C8         -2.8662   -1.0361    0.7388 C.ar      1 ATP         0.4447
     24 N7         -3.6774   -1.9166    0.1867 N.2       1 ATP        -0.6159
     25 C5         -3.0159   -3.1045    0.3123 C.ar      1 ATP         0.2195
     26 C6         -3.4377   -4.4169   -0.1199 C.ar      1 ATP         0.6144
     27 N6         -4.5720   -4.5691   -0.7080 N.2       1 ATP        -0.8160
     28 N1         -2.4600   -5.3463    0.2071 N.pl3     1 ATP        -0.8611
     29 C2         -1.2595   -5.0554    0.8515 C.ar      1 ATP         0.6141
     30 N3         -0.8555   -3.8803    1.2516 N.2       1 ATP        -0.5913
     31 C4         -1.7946   -2.9457    0.9448 C.ar      1 ATP         0.0067
     32 HOG3        0.2809    9.7385    2.5297 H         1 ATP         0.4313
     33 HOB2       -3.1753    6.8791    4.3456 H         1 ATP         0.4716
     34 H5'1       -1.7770    2.7851    2.1387 H         1 ATP         0.0452
     35 H5'2       -1.1653    2.0543    0.6320 H         1 ATP         0.0452
     36 H4'         0.0403    1.7078    3.4343 H         1 ATP         0.0998
     37 H3'         1.5906    1.4859    1.1353 H         1 ATP         0.0544
     38 HO3'        2.6839   -0.1150    2.2479 H         1 ATP         0.3961
     39 H2'        -0.0017    0.0018    0.0005 H         1 ATP         0.0499
     40 HO2'        2.0953   -0.9375    0.0709 H         1 ATP         0.4045
     41 H1'        -0.1998   -1.6319    2.6178 H         1 ATP         0.0912
     42 H8         -3.0558    0.0252    0.8256 H         1 ATP         0.1090
     43 HN62       -4.7047   -5.5592   -0.9421 H         1 ATP         0.3694
     44 H2         -0.6372   -5.9505    1.0077 H         1 ATP         0.0371
     45 H45        -2.6338   -6.3155   -0.0469 H         1 ATP         0.4283
@<TRIPOS>BOND
     1    1    2 2
     2    1    3 1
     3    1    4 1
     4    1    8 1
     5    4   32 1
     6    5    6 2
     7    5    7 1
     8    5    8 1
     9    5   12 1
    10    7   33 1
    11    9   10 2
    12    9   11 1
    13    9   12 1
    14    9   13 1
    15   13   14 1
    16   14   15 1
    17   14   34 1
    18   14   35 1
    19   15   16 1
    20   15   17 1
    21   15   36 1
    22   16   21 1
    23   17   18 1
    24   17   19 1
    25   17   37 1
    26   18   38 1
    27   19   20 1
    28   19   21 1
    29   19   39 1
    30   20   40 1
    31   21   22 1
    32   21   41 1
    33   22   23 ar
    34   22   31 ar
    35   23   24 ar
    36   23   42 1
    37   24   25 ar
    38   25   26 ar
    39   25   31 ar
    40   26   27 2
    41   26   28 ar
    42   27   43 1
    43   28   29 ar
    44   28   45 1
    45   29   30 ar
    46   29   44 1
    47   30   31 ar
@<TRIPOS>SUBSTRUCTURE
     1 ATP         1 GROUP 0 A     ****
@<TRIPOS>MOLECULE
[[[3,4-dihydroxy-5-(6-imino-1~{H}-purin-9-yl)tetrahydrofuran-2-yl]methoxy-oxido-phosphoryl]oxy-hydroxy-phosphoryl] hydrogen phosphate
   45    47     1     0     0
SMALL
USER_CHARGES

@<TRIPOS>ATOM
      1 PG         -1.2023    4.4396   -4.5449 P.3       1 ATP         1.5496
      2 O1G        -1.0785    3.2670   -5.4922 O.co2     1 ATP        -0.8494
      3 O2G        -0.5982    5.7829   -4.8882 O.co2     1 ATP        -0.8494
      4 O3G        -2.7819    4.6564   -4.1924 O.3       1 ATP        -0.7845
      5 PB          0.7981    3.5771   -2.5569 P.3       1 ATP         1.9068
      6 O1B         1.4131    2.3973   -3.2498 O.2       1 ATP        -0.8942
      7 O2B         1.6362    4.9546   -2.6748 O.3       1 ATP        -0.8166
      8 O3B        -0.6804    3.9833   -3.0686 O.3       1 ATP        -0.8194
      9 PA         -0.0887    4.4443    0.1194 P.3       1 ATP         1.5903
     10 O1A        -1.5453    4.6749   -0.2200 O.co2     1 ATP        -0.8519
     11 O2A         0.8624    5.6106    0.2776 O.co2     1 ATP        -0.8519
     12 O3A         0.5479    3.4080   -0.9700 O.3       1 ATP        -0.8093
     13 O5'         0.0180    3.5131    1.4595 O.3       1 ATP        -0.5649
     14 C5'        -0.8811    2.4285    1.6206 C.3       1 ATP         0.1979
     15 C4'        -0.1994    1.3333    2.4288 C.3       1 ATP         0.1179
     16 O4'        -1.1285    0.2356    2.5840 O.3       1 ATP        -0.3878
     17 C3'         1.0324    0.7610    1.7344 C.3       1 ATP         0.1185
     18 O3'         1.9175    0.2377    2.7247 O.3       1 ATP        -0.5544
     19 C2'         0.4468   -0.3802    0.9263 C.3       1 ATP         0.0542
     20 O2'         1.3993   -1.3703    0.5961 O.3       1 ATP        -0.5831
     21 C1'        -0.6159   -0.9100    1.8769 C.3       1 ATP         0.2222
     22 N9         -1.7127   -1.6108    1.2130 N.pl3     1 ATP        -0.1887
     23 C8         -2.8662   -1.0361    0.7388 C.ar      1 ATP         0.4447
     24 N7         -3.6774   -1.9166    0.1867 N.2       1 ATP        -0.6159
     25 C5         -3.0159   -3.1045    0.3123 C.ar      1 ATP         0.2195
     26 C6         -3.4377   -4.4169   -0.1199 C.ar      1 ATP         0.6144
     27 N6         -4.5720   -4.5691   -0.7080 N.2       1 ATP        -0.8160
     28 N1         -2.4600   -5.3463    0.2071 N.pl3     1 ATP        -0.8611
     29 C2         -1.2595   -5.0554    0.8515 C.ar      1 ATP         0.6141
     30 N3         -0.8555   -3.8803    1.2516 N.2       1 ATP        -0.5913
     31 C4         -1.7946   -2.9457    0.9448 C.ar      1 ATP         0.0067
     32 HOG3       -3.0285    5.3854   -3.5842 H         1 ATP         0.4313
     33 HOB2        1.8105    5.3293   -3.5644 H         1 ATP         0.4716
     34 H5'1       -1.7770    2.7851    2.1387 H         1 ATP         0.0452
     35 H5'2       -1.1653    2.0543    0.6320 H         1 ATP         0.0452
     36 H4'         0.0403    1.7078    3.4343 H         1 ATP         0.0998
     37 H3'         1.5906    1.4859    1.1353 H         1 ATP         0.0544
     38 HO3'        2.6839   -0.1150    2.2479 H         1 ATP         0.3961
     39 H2'        -0.0017    0.0018    0.0005 H         1 ATP         0.0499
     40 HO2'        2.0953   -0.9375    0.0709 H         1 ATP         0.4045
     41 H1'        -0.1998   -1.6319    2.6178 H         1 ATP         0.0912
     42 H8         -3.0558    0.0252    0.8256 H         1 ATP         0.1090
     43 HN62       -4.7047   -5.5592   -0.9421 H         1 ATP         0.3694
     44 H2         -0.6372   -5.9505    1.0077 H         1 ATP         0.0371
     45 H45        -2.6338   -6.3155   -0.0469 H         1 ATP         0.4283
@<TRIPOS>BOND
     1    1    2 2
     2    1    3 1
     3    1    4 1
     4    1    8 1
     5    4   32 1
     6    5    6 2
     7    5    7 1
     8    5    8 1
     9    5   12 1
    10    7   33 1
    11    9   10 2
    12    9   11 1
    13    9   12 1
    14    9   13 1
    15   13   14 1
    16   14   15 1
    17   14   34 1
    18   14   35 1
    19   15   16 1
    20   15   17 1
    21   15   36 1
    22   16   21 1
    23   17   18 1
    24   17   19 1
    25   17   37 1
    26   18   38 1
    27   19   20 1
    28   19   21 1
    29   19   39 1
    30   20   40 1
    31   21   22 1
    32   21   41 1
    33   22   23 ar
    34   22   31 ar
    35   23   24 ar
    36   23   42 1
    37   24   25 ar
    38   25   26 ar
    39   25   31 ar
    40   26   27 2
    41   26   28 ar
    42   27   43 1
    43   28   29 ar
    44   28   45 1
    45   29   30 ar
    46   29   44 1
    47   30   31 ar
@<TRIPOS>SUBSTRUCTURE
     1 ATP         1 GROUP 0 A     ****
@<TRIPOS>MOLECULE
[[[3,4-dihydroxy-5-(6-imino-1~{H}-purin-9-yl)tetrahydrofuran-2-yl]methoxy-oxido-phosphoryl]oxy-hydroxy-phosphoryl] hydrogen phosphate
   45    47     1     0     0
SMALL
USER_CHARGES

@<TRIPOS>ATOM
      1 PG          0.9470    8.6951    0.5443 P.3       1 ATP         1.5496
      2 O1G         0.5654    9.8884    1.3918 O.co2     1 ATP        -0.8494
      3 O2G         0.8217    8.7402   -0.9622 O.co2     1 ATP        -0.8494
      4 O3G         2.4730    8.2561    0.9247 O.3       1 ATP        -0.7845
      5 PB         -1.4109    7.0164    1.1099 P.3       1 ATP         1.9068
      6 O1B        -2.2852    7.9783    1.8589 O.2       1 ATP        -0.8942
      7 O2B        -1.7698    6.8412   -0.4566 O.3       1 ATP        -0.8166
      8 O3B         0.1645    7.3781    1.1039 O.3       1 ATP        -0.8194
      9 PA         -2.5926    4.4186    1.8557 P.3       1 ATP         1.5903
     10 O1A        -3.1163    4.0394    0.4875 O.co2     1 ATP        -0.8519
     11 O2A        -3.5304    4.9259    2.9295 O.co2     1 ATP        -0.8519
     12 O3A        -1.3857    5.5034    1.6753 O.3       1 ATP        -0.8093
     13 O5'        -1.7337    3.1724    2.4752 O.3       1 ATP        -0.5649
     14 C5'        -0.8811    2.4285    1.6206 C.3       1 ATP         0.1979
     15 C4'        -0.1994    1.3333    2.4288 C.3       1 ATP         0.1179
     16 O4'        -1.1285    0.2356    2.5840 O.3       1 ATP        -0.3878
     17 C3'         1.0324    0.7610    1.7344 C.3       1 ATP         0.1185
     18 O3'         1.9175    0.2377    2.7247 O.3       1 ATP        -0.5544
     19 C2'         0.4468   -0.3802    0.9263 C.3       1 ATP         0.0542
     20 O2'         1.3993   -1.3703    0.5961 O.3       1 ATP        -0.5831
     21 C1'        -0.6159   -0.9100    1.8769 C.3       1 ATP         0.2222
     22 N9         -1.7127   -1.6108    1.2130 N.pl3     1 ATP        -0.1887
     23 C8         -2.8662   -1.0361    0.7388 C.ar      1 ATP         0.4447
     24 N7         -3.6774   -1.9166    0.1867 N.2       1 ATP        -0.6159
     25 C5         -3.0159   -3.1045    0.3123 C.ar      1 ATP         0.2195
     26 C6         -3.4377   -4.4169   -0.1199 C.ar      1 ATP         0.6144
     27 N6         -4.5720   -4.5691   -0.7080 N.2       1 ATP        -0.8160
     28 N1         -2.4600   -5.3463    0.2071 N.pl3     1 ATP        -0.8611
     29 C2         -1.2595   -5.0554    0.8515 C.ar      1 ATP         0.6141
     30 N3         -0.8555   -3.8803    1.2516 N.2       1 ATP        -0.5913
     31 C4         -1.7946   -2.9457    0.9448 C.ar      1 ATP         0.0067
     32 HOG3        2.8689    7.4904    0.4564 H         1 ATP         0.4313
     33 HOB2       -2.6616    6.5174   -0.7059 H         1 ATP         0.4716
     34 H5'1       -1.4801    1.9928    0.8147 H         1 ATP         0.0452
     35 H5'2       -0.1369    3.1041    1.1872 H         1 ATP         0.0452
     36 H4'         0.0403    1.7078    3.4343 H         1 ATP         0.0998
     37 H3'         1.5906    1.4859    1.1353 H         1 ATP         0.0544
     38 HO3'        2.6839   -0.1150    2.2479 H         1 ATP         0.3961
     39 H2'        -0.0017    0.0018    0.0005 H         1 ATP         0.0499
     40 HO2'        2.0953   -0.9375    0.0709 H         1 ATP         0.4045
     41 H1'        -0.1998   -1.6319    2.6178 H         1 ATP         0.0912
     42 H8         -3.0558    0.0252    0.8256 H         1 ATP         0.1090
     43 HN62       -4.7047   -5.5592   -0.9421 H         1 ATP         0.3694
     44 H2         -0.6372   -5.9505    1.0077 H         1 ATP         0.0371
     45 H45        -2.6338   -6.3155   -0.0469 H         1 ATP         0.4283
@<TRIPOS>BOND
     1    1    2 2
     2    1    3 1
     3    1    4 1
     4    1    8 1
     5    4   32 1
     6    5    6 2
     7    5    7 1
     8    5    8 1
     9    5   12 1
    10    7   33 1
    11    9   10 2
    12    9   11 1
    13    9   12 1
    14    9   13 1
    15   13   14 1
    16   14   15 1
    17   14   34 1
    18   14   35 1
    19   15   16 1
    20   15   17 1
    21   15   36 1
    22   16   21 1
    23   17   18 1
    24   17   19 1
    25   17   37 1
    26   18   38 1
    27   19   20 1
    28   19   21 1
    29   19   39 1
    30   20   40 1
    31   21   22 1
    32   21   41 1
    33   22   23 ar
    34   22   31 ar
    35   23   24 ar
    36   23   42 1
    37   24   25 ar
    38   25   26 ar
    39   25   31 ar
    40   26   27 2
    41   26   28 ar
    42   27   43 1
    43   28   29 ar
    44   28   45 1
    45   29   30 ar
    46   29   44 1
    47   30   31 ar
@<TRIPOS>SUBSTRUCTURE
     1 ATP         1 GROUP 0 A     ****
@<TRIPOS>MOLECULE
[[[3,4-dihydroxy-5-(6-imino-1~{H}-purin-9-yl)tetrahydrofuran-2-yl]methoxy-oxido-phosphoryl]oxy-hydroxy-phosphoryl] hydrogen phosphate
   45    47     1     0     0
SMALL
USER_CHARGES

@<TRIPOS>ATOM
      1 PG         -7.6584    1.7164    3.5605 P.3       1 ATP         1.5496
      2 O1G        -7.9591    0.4231    4.2849 O.co2     1 ATP        -0.8494
      3 O2G        -8.4155    2.0999    2.3087 O.co2     1 ATP        -0.8494
      4 O3G        -7.7669    2.9462    4.6292 O.3       1 ATP        -0.7845
      5 PB         -5.1290    0.8965    2.2848 P.3       1 ATP         1.9068
      6 O1B        -5.1022   -0.5702    2.5985 O.2       1 ATP        -0.8942
      7 O2B        -5.6547    1.2708    0.8026 O.3       1 ATP        -0.8166
      8 O3B        -6.0575    1.7926    3.2582 O.3       1 ATP        -0.8194
      9 PA         -3.3346    3.2336    2.1469 P.3       1 ATP         1.5903
     10 O1A        -4.0315    4.0798    3.1901 O.co2     1 ATP        -0.8519
     11 O2A        -3.5035    3.5292    0.6725 O.co2     1 ATP        -0.8519
     12 O3A        -3.7135    1.6660    2.4019 O.3       1 ATP        -0.8093
     13 O5'        -1.7337    3.1724    2.4752 O.3       1 ATP        -0.5649
     14 C5'        -0.8811    2.4285    1.6206 C.3       1 ATP         0.1979
     15 C4'        -0.1994    1.3333    2.4288 C.3       1 ATP         0.1179
     16 O4'        -1.1285    0.2356    2.5840 O.3       1 ATP        -0.3878
     17 C3'         1.0324    0.7610    1.7344 C.3       1 ATP         0.1185
     18 O3'         1.9175    0.2377    2.7247 O.3       1 ATP        -0.5544
     19 C2'         0.4468   -0.3802    0.9263 C.3       1 ATP         0.0542
     20 O2'         1.3993   -1.3703    0.5961 O.3       1 ATP        -0.5831
     21 C1'        -0.6159   -0.9100    1.8769 C.3       1 ATP         0.2222
     22 N9         -1.7127   -1.6108    1.2130 N.pl3     1 ATP        -0.1887
     23 C8         -2.0868   -2.9137    1.4327 C.ar      1 ATP         0.4447
     24 N7         -3.1125   -3.2756    0.6878 N.2       1 ATP        -0.6159
     25 C5         -3.4079   -2.1580   -0.0391 C.ar      1 ATP         0.2195
     26 C6         -4.4483   -1.9775   -1.0249 C.ar      1 ATP         0.6144
     27 N6         -5.2418   -2.9492   -1.3113 N.2       1 ATP        -0.8160
     28 N1         -4.3937   -0.6823   -1.5211 N.pl3     1 ATP        -0.8611
     29 C2         -3.4770    0.2901   -1.1271 C.ar      1 ATP         0.6141
     30 N3         -2.5289    0.1525   -0.2403 N.2       1 ATP        -0.5913
     31 C4         -2.5564   -1.1096    0.2655 C.ar      1 ATP         0.0067
     32 HOG3       -7.5979    3.8582    4.3099 H         1 ATP         0.4313
     33 HOB2       -6.5621    1.0061    0.5400 H         1 ATP         0.4716
     34 H5'1       -1.4801    1.9928    0.8147 H         1 ATP         0.0452
     35 H5'2       -0.1369    3.1041    1.1872 H         1 ATP         0.0452
     36 H4'         0.0403    1.7078    3.4343 H         1 ATP         0.0998
     37 H3'         1.5906    1.4859    1.1353 H         1 ATP         0.0544
     38 HO3'        2.6839   -0.1150    2.2479 H         1 ATP         0.3961
     39 H2'        -0.0017    0.0018    0.0005 H         1 ATP         0.0499
     40 HO2'        2.0953   -0.9375    0.0709 H         1 ATP         0.4045
     41 H1'        -0.1998   -1.6319    2.6178 H         1 ATP         0.0912
     42 H8         -1.5740   -3.5449    2.1457 H         1 ATP         0.1090
     43 HN62       -5.9117   -2.6433   -2.0256 H         1 ATP         0.3694
     44 H2         -3.6225    1.2454   -1.6553 H         1 ATP         0.0371
     45 H45        -5.0794   -0.4231   -2.2258 H         1 ATP         0.4283
@<TRIPOS>BOND
     1    1    2 2
     2    1    3 1
     3    1    4 1
     4    1    8 1
     5    4   32 1
     6    5    6 2
     7    5    7 1
     8    5    8 1
     9    5   12 1
    10    7   33 1
    11    9   10 2
    12    9   11 1
    13    9   12 1
    14    9   13 1
    15   13   14 1
    16   14   15 1
    17   14   34 1
    18   14   35 1
    19   15   16 1
    20   15   17 1
    21   15   36 1
    22   16   21 1
    23   17   18 1
    24   17   19 1
    25   17   37 1
    26   18   38 1
    27   19   20 1
    28   19   21 1
    29   19   39 1
    30   20   40 1
    31   21   22 1
    32   21   41 1
    33   22   23 ar
    34   22   31 ar
    35   23   24 ar
    36   23   42 1
    37   24   25 ar
    38   25   26 ar
    39   25   31 ar
    40   26   27 2
    41   26   28 ar
    42   27   43 1
    43   28   29 ar
    44   28   45 1
    45   29   30 ar
    46   29   44 1
    47   30   31 ar
@<TRIPOS>SUBSTRUCTURE
     1 ATP         1 GROUP 0 A     ****
@<TRIPOS>MOLECULE
[[[3,4-dihydroxy-5-(6-imino-1~{H}-purin-9-yl)tetrahydrofuran-2-yl]methoxy-oxido-phosphoryl]oxy-hydroxy-phosphoryl] hydrogen phosphate
   45    47     1     0     0
SMALL
USER_CHARGES

@<TRIPOS>ATOM
      1 PG         -3.8830    5.7610   -2.8901 P.3       1 ATP         1.5496
      2 O1G        -4.1653    4.8164   -4.0371 O.co2     1 ATP        -0.8494
      3 O2G        -2.8201    6.8305   -3.0080 O.co2     1 ATP        -0.8494
      4 O3G        -5.2851    6.4703   -2.4459 O.3       1 ATP        -0.7845
      5 PB         -4.4970    3.7294   -0.8423 P.3       1 ATP         1.9068
      6 O1B        -5.8725    4.1479   -0.4145 O.2       1 ATP        -0.8942
      7 O2B        -4.4507    2.5153   -1.9088 O.3       1 ATP        -0.8166
      8 O3B        -3.6104    4.8867   -1.5406 O.3       1 ATP        -0.8194
      9 PA         -2.9646    4.0417    1.6588 P.3       1 ATP         1.5903
     10 O1A        -4.1352    4.3308    2.5732 O.co2     1 ATP        -0.8519
     11 O2A        -2.0510    5.1559    1.1963 O.co2     1 ATP        -0.8519
     12 O3A        -3.5097    3.2459    0.3413 O.3       1 ATP        -0.8093
     13 O5'        -2.0402    2.8619    2.3130 O.3       1 ATP        -0.5649
     14 C5'        -0.8811    2.4285    1.6206 C.3       1 ATP         0.1979
     15 C4'        -0.1994    1.3333    2.4288 C.3       1 ATP         0.1179
     16 O4'        -1.1285    0.2356    2.5840 O.3       1 ATP        -0.3878
     17 C3'         1.0324    0.7610    1.7344 C.3       1 ATP         0.1185
     18 O3'         1.9175    0.2377    2.7247 O.3       1 ATP        -0.5544
     19 C2'         0.4468   -0.3802    0.9263 C.3       1 ATP         0.0542
     20 O2'         1.3993   -1.3703    0.5961 O.3       1 ATP        -0.5831
     21 C1'        -0.6159   -0.9100    1.8769 C.3       1 ATP         0.2222
     22 N9         -1.7127   -1.6108    1.2130 N.pl3     1 ATP        -0.1887
     23 C8         -2.5485   -1.0808    0.2609 C.ar      1 ATP         0.4447
     24 N7         -3.4476   -1.9486   -0.1593 N.2       1 ATP        -0.6159
     25 C5         -3.1762   -3.0816    0.5530 C.ar      1 ATP         0.2195
     26 C6         -3.8510   -4.3579    0.5006 C.ar      1 ATP         0.6144
     27 N6         -4.8468   -4.5293   -0.2961 N.2       1 ATP        -0.8160
     28 N1         -3.2499   -5.2342    1.3937 N.pl3     1 ATP        -0.8611
     29 C2         -2.1646   -4.9275    2.2116 C.ar      1 ATP         0.6141
     30 N3         -1.5382   -3.7840    2.2778 N.2       1 ATP        -0.5913
     31 C4         -2.1054   -2.9018    1.4120 C.ar      1 ATP         0.0067
     32 HOG3       -5.2681    7.1159   -1.7075 H         1 ATP         0.4313
     33 HOB2       -4.8906    2.6302   -2.7780 H         1 ATP         0.4716
     34 H5'1       -1.1769    2.0503    0.6369 H         1 ATP         0.0452
     35 H5'2       -0.2081    3.2815    1.4877 H         1 ATP         0.0452
     36 H4'         0.0403    1.7078    3.4343 H         1 ATP         0.0998
     37 H3'         1.5906    1.4859    1.1353 H         1 ATP         0.0544
     38 HO3'        2.6839   -0.1150    2.2479 H         1 ATP         0.3961
     39 H2'        -0.0017    0.0018    0.0005 H         1 ATP         0.0499
     40 HO2'        2.0953   -0.9375    0.0709 H         1 ATP         0.4045
     41 H1'        -0.1998   -1.6319    2.6178 H         1 ATP         0.0912
     42 H8         -2.4515   -0.0599   -0.0829 H         1 ATP         0.1090
     43 HN62       -5.1990   -5.4882   -0.2004 H         1 ATP         0.3694
     44 H2         -1.8555   -5.7783    2.8388 H         1 ATP         0.0371
     45 H45        -3.6312   -6.1750    1.4526 H         1 ATP         0.4283
@<TRIPOS>BOND
     1    1    2 2
     2    1    3 1
     3    1    4 1
     4    1    8 1
     5    4   32 1
     6    5    6 2
     7    5    7 1
     8    5    8 1
     9    5   12 1
    10    7   33 1
    11    9   10 2
    12    9   11 1
    13    9   12 1
    14    9   13 1
    15   13   14 1
    16   14   15 1
    17   14   34 1
    18   14   35 1
    19   15   16 1
    20   15   17 1
    21   15   36 1
    22   16   21 1
    23   17   18 1
    24   17   19 1
    25   17   37 1
    26   18   38 1
    27   19   20 1
    28   19   21 1
    29   19   39 1
    30   20   40 1
    31   21   22 1
    32   21   41 1
    33   22   23 ar
    34   22   31 ar
    35   23   24 ar
    36   23   42 1
    37   24   25 ar
    38   25   26 ar
    39   25   31 ar
    40   26   27 2
    41   26   28 ar
    42   27   43 1
    43   28   29 ar
    44   28   45 1
    45   29   30 ar
    46   29   44 1
    47   30   31 ar
@<TRIPOS>SUBSTRUCTURE
     1 ATP         1 GROUP 0 A     ****
@<TRIPOS>MOLECULE
[[[3,4-dihydroxy-5-(6-imino-1~{H}-purin-9-yl)tetrahydrofuran-2-yl]methoxy-oxido-phosphoryl]oxy-hydroxy-phosphoryl] hydrogen phosphate
   45    47     1     0     0
SMALL
USER_CHARGES

@<TRIPOS>ATOM
      1 PG          1.1463    7.8966    4.7449 P.3       1 ATP         1.5496
      2 O1G         0.4031    8.6139    5.8498 O.co2     1 ATP        -0.8494
      3 O2G         1.7210    8.6597    3.5724 O.co2     1 ATP        -0.8494
      4 O3G         2.3371    7.0036    5.4161 O.3       1 ATP        -0.7845
      5 PB         -1.1858    6.7202    3.3754 P.3       1 ATP         1.9068
      6 O1B        -2.3191    7.3943    4.0906 O.2       1 ATP        -0.8942
      7 O2B        -0.7884    7.3741    1.9513 O.3       1 ATP        -0.8166
      8 O3B         0.2137    6.6820    4.1833 O.3       1 ATP        -0.8194
      9 PA         -2.5400    4.4094    2.1394 P.3       1 ATP         1.5903
     10 O1A        -2.3768    4.8333    0.6960 O.co2     1 ATP        -0.8519
     11 O2A        -3.8714    4.5574    2.8431 O.co2     1 ATP        -0.8519
     12 O3A        -1.3993    5.1547    3.0391 O.3       1 ATP        -0.8093
     13 O5'        -2.0402    2.8619    2.3130 O.3       1 ATP        -0.5649
     14 C5'        -0.8811    2.4285    1.6206 C.3       1 ATP         0.1979
     15 C4'        -0.1994    1.3333    2.4288 C.3       1 ATP         0.1179
     16 O4'        -1.1285    0.2356    2.5840 O.3       1 ATP        -0.3878
     17 C3'         1.0324    0.7610    1.7344 C.3       1 ATP         0.1185
     18 O3'         1.9175    0.2377    2.7247 O.3       1 ATP        -0.5544
     19 C2'         0.4468   -0.3802    0.9263 C.3       1 ATP         0.0542
     20 O2'         1.3993   -1.3703    0.5961 O.3       1 ATP        -0.5831
     21 C1'        -0.6159   -0.9100    1.8769 C.3       1 ATP         0.2222
     22 N9         -1.7127   -1.6108    1.2130 N.pl3     1 ATP        -0.1887
     23 C8         -2.8662   -1.0361    0.7388 C.ar      1 ATP         0.4447
     24 N7         -3.6774   -1.9166    0.1867 N.2       1 ATP        -0.6159
     25 C5         -3.0159   -3.1045    0.3123 C.ar      1 ATP         0.2195
     26 C6         -3.4377   -4.4169   -0.1199 C.ar      1 ATP         0.6144
     27 N6         -4.5720   -4.5691   -0.7080 N.2       1 ATP        -0.8160
     28 N1         -2.4600   -5.3463    0.2071 N.pl3     1 ATP        -0.8611
     29 C2         -1.2595   -5.0554    0.8515 C.ar      1 ATP         0.6141
     30 N3         -0.8555   -3.8803    1.2516 N.2       1 ATP        -0.5913
     31 C4         -1.7946   -2.9457    0.9448 C.ar      1 ATP         0.0067
     32 HOG3        2.9139    6.4748    4.8247 H         1 ATP         0.4313
     33 HOB2       -0.4971    8.3104    1.9238 H         1 ATP         0.4716
     34 H5'1       -1.1769    2.0503    0.6369 H         1 ATP         0.0452
     35 H5'2       -0.2081    3.2815    1.4877 H         1 ATP         0.0452
     36 H4'         0.0403    1.7078    3.4343 H         1 ATP         0.0998
     37 H3'         1.5906    1.4859    1.1353 H         1 ATP         0.0544
     38 HO3'        2.6839   -0.1150    2.2479 H         1 ATP         0.3961
     39 H2'        -0.0017    0.0018    0.0005 H         1 ATP         0.0499
     40 HO2'        0.9369   -2.0558    0.0825 H         1 ATP         0.4045
     41 H1'        -0.1998   -1.6319    2.6178 H         1 ATP         0.0912
     42 H8         -3.0558    0.0252    0.8256 H         1 ATP         0.1090
     43 HN62       -4.7047   -5.5592   -0.9421 H         1 ATP         0.3694
     44 H2         -0.6372   -5.9505    1.0077 H         1 ATP         0.0371
     45 H45        -2.6338   -6.3155   -0.0469 H         1 ATP         0.4283
@<TRIPOS>BOND
     1    1    2 2
     2    1    3 1
     3    1    4 1
     4    1    8 1
     5    4   32 1
     6    5    6 2
     7    5    7 1
     8    5    8 1
     9    5   12 1
    10    7   33 1
    11    9   10 2
    12    9   11 1
    13    9   12 1
    14    9   13 1
    15   13   14 1
    16   14   15 1
    17   14   34 1
    18   14   35 1
    19   15   16 1
    20   15   17 1
    21   15   36 1
    22   16   21 1
    23   17   18 1
    24   17   19 1
    25   17   37 1
    26   18   38 1
    27   19   20 1
    28   19   21 1
    29   19   39 1
    30   20   40 1
    31   21   22 1
    32   21   41 1
    33   22   23 ar
    34   22   31 ar
    35   23   24 ar
    36   23   42 1
    37   24   25 ar
    38   25   26 ar
    39   25   31 ar
    40   26   27 2
    41   26   28 ar
    42   27   43 1
    43   28   29 ar
    44   28   45 1
    45   29   30 ar
    46   29   44 1
    47   30   31 ar
@<TRIPOS>SUBSTRUCTURE
     1 ATP         1 GROUP 0 A     ****
@<TRIPOS>MOLECULE
[[[3,4-dihydroxy-5-(6-imino-1~{H}-purin-9-yl)tetrahydrofuran-2-yl]methoxy-oxido-phosphoryl]oxy-hydroxy-phosphoryl] hydrogen phosphate
   45    47     1     0     0
SMALL
USER_CHARGES

@<TRIPOS>ATOM
      1 PG         -4.7802    7.0157   -0.4333 P.3       1 ATP         1.5496
      2 O1G        -4.3354    8.3452   -1.0009 O.co2     1 ATP        -0.8494
      3 O2G        -5.9470    6.9315    0.5253 O.co2     1 ATP        -0.8494
      4 O3G        -5.0522    5.9880   -1.6726 O.3       1 ATP        -0.7845
      5 PB         -2.6041    6.6540    1.5242 P.3       1 ATP         1.9068
      6 O1B        -1.9207    7.9877    1.4556 O.2       1 ATP        -0.8942
      7 O2B        -3.6297    6.4722    2.7606 O.3       1 ATP        -0.8166
      8 O3B        -3.4919    6.2670    0.2300 O.3       1 ATP        -0.8194
      9 PA         -0.4664    4.8322    0.6228 P.3       1 ATP         1.5903
     10 O1A         0.6558    5.8467    0.5865 O.co2     1 ATP        -0.8519
     11 O2A        -1.1276    4.3642   -0.6553 O.co2     1 ATP        -0.8519
     12 O3A        -1.6298    5.3702    1.6343 O.3       1 ATP        -0.8093
     13 O5'         0.0180    3.5131    1.4595 O.3       1 ATP        -0.5649
     14 C5'        -0.8811    2.4285    1.6206 C.3       1 ATP         0.1979
     15 C4'        -0.1994    1.3333    2.4288 C.3       1 ATP         0.1179
     16 O4'        -1.1285    0.2356    2.5840 O.3       1 ATP        -0.3878
     17 C3'         1.0324    0.7610    1.7344 C.3       1 ATP         0.1185
     18 O3'         1.9175    0.2377    2.7247 O.3       1 ATP        -0.5544
     19 C2'         0.4468   -0.3802    0.9263 C.3       1 ATP         0.0542
     20 O2'         1.3993   -1.3703    0.5961 O.3       1 ATP        -0.5831
     21 C1'        -0.6159   -0.9100    1.8769 C.3       1 ATP         0.2222
     22 N9         -1.7127   -1.6108    1.2130 N.pl3     1 ATP        -0.1887
     23 C8         -2.8662   -1.0361    0.7388 C.ar      1 ATP         0.4447
     24 N7         -3.6774   -1.9166    0.1867 N.2       1 ATP        -0.6159
     25 C5         -3.0159   -3.1045    0.3123 C.ar      1 ATP         0.2195
     26 C6         -3.4377   -4.4169   -0.1199 C.ar      1 ATP         0.6144
     27 N6         -4.5720   -4.5691   -0.7080 N.2       1 ATP        -0.8160
     28 N1         -2.4600   -5.3463    0.2071 N.pl3     1 ATP        -0.8611
     29 C2         -1.2595   -5.0554    0.8515 C.ar      1 ATP         0.6141
     30 N3         -0.8555   -3.8803    1.2516 N.2       1 ATP        -0.5913
     31 C4         -1.7946   -2.9457    0.9448 C.ar      1 ATP         0.0067
     32 HOG3       -5.3494    5.0762   -1.4662 H         1 ATP         0.4313
     33 HOB2       -4.3962    7.0799    2.8345 H         1 ATP         0.4716
     34 H5'1       -1.7770    2.7851    2.1387 H         1 ATP         0.0452
     35 H5'2       -1.1653    2.0543    0.6320 H         1 ATP         0.0452
     36 H4'         0.0403    1.7078    3.4343 H         1 ATP         0.0998
     37 H3'         1.5906    1.4859    1.1353 H         1 ATP         0.0544
     38 HO3'        2.6839   -0.1150    2.2479 H         1 ATP         0.3961
     39 H2'        -0.0017    0.0018    0.0005 H         1 ATP         0.0499
     40 HO2'        2.0953   -0.9375    0.0709 H         1 ATP         0.4045
     41 H1'        -0.1998   -1.6319    2.6178 H         1 ATP         0.0912
     42 H8         -3.0558    0.0252    0.8256 H         1 ATP         0.1090
     43 HN62       -4.7047   -5.5592   -0.9421 H         1 ATP         0.3694
     44 H2         -0.6372   -5.9505    1.0077 H         1 ATP         0.0371
     45 H45        -2.6338   -6.3155   -0.0469 H         1 ATP         0.4283
@<TRIPOS>BOND
     1    1    2 2
     2    1    3 1
     3    1    4 1
     4    1    8 1
     5    4   32 1
     6    5    6 2
     7    5    7 1
     8    5    8 1
     9    5   12 1
    10    7   33 1
    11    9   10 2
    12    9   11 1
    13    9   12 1
    14    9   13 1
    15   13   14 1
    16   14   15 1
    17   14   34 1
    18   14   35 1
    19   15   16 1
    20   15   17 1
    21   15   36 1
    22   16   21 1
    23   17   18 1
    24   17   19 1
    25   17   37 1
    26   18   38 1
    27   19   20 1
    28   19   21 1
    29   19   39 1
    30   20   40 1
    31   21   22 1
    32   21   41 1
    33   22   23 ar
    34   22   31 ar
    35   23   24 ar
    36   23   42 1
    37   24   25 ar
    38   25   26 ar
    39   25   31 ar
    40   26   27 2
    41   26   28 ar
    42   27   43 1
    43   28   29 ar
    44   28   45 1
    45   29   30 ar
    46   29   44 1
    47   30   31 ar
@<TRIPOS>SUBSTRUCTURE
     1 ATP         1 GROUP 0 A     ****
@<TRIPOS>MOLECULE
[[[3,4-dihydroxy-5-(6-imino-1~{H}-purin-9-yl)tetrahydrofuran-2-yl]methoxy-oxido-phosphoryl]oxy-hydroxy-phosphoryl] hydrogen phosphate
   45    47     1     0     0
SMALL
USER_CHARGES

@<TRIPOS>ATOM
      1 PG          2.6669    1.2957   -2.5298 P.3       1 ATP         1.5496
      2 O1G         2.7409    0.0062   -3.3169 O.co2     1 ATP        -0.8494
      3 O2G         2.7856    1.2936   -1.0221 O.co2     1 ATP        -0.8494
      4 O3G         3.7699    2.3364   -3.1353 O.3       1 ATP        -0.7845
      5 PB          0.7981    3.5771   -2.5569 P.3       1 ATP         1.9068
      6 O1B         1.7088    4.6997   -2.9579 O.2       1 ATP        -0.8942
      7 O2B        -0.6915    3.6468   -3.1812 O.3       1 ATP        -0.8166
      8 O3B         1.3117    2.0972   -2.9555 O.3       1 ATP        -0.8194
      9 PA         -0.0887    4.4443    0.1194 P.3       1 ATP         1.5903
     10 O1A        -1.5453    4.6749   -0.2200 O.co2     1 ATP        -0.8519
     11 O2A         0.8624    5.6106    0.2776 O.co2     1 ATP        -0.8519
     12 O3A         0.5479    3.4080   -0.9700 O.3       1 ATP        -0.8093
     13 O5'         0.0180    3.5131    1.4595 O.3       1 ATP        -0.5649
     14 C5'        -0.8811    2.4285    1.6206 C.3       1 ATP         0.1979
     15 C4'        -0.1994    1.3333    2.4288 C.3       1 ATP         0.1179
     16 O4'        -1.1285    0.2356    2.5840 O.3       1 ATP        -0.3878
     17 C3'         1.0324    0.7610    1.7344 C.3       1 ATP         0.1185
     18 O3'         1.9175    0.2377    2.7247 O.3       1 ATP        -0.5544
     19 C2'         0.4468   -0.3802    0.9263 C.3       1 ATP         0.0542
     20 O2'         1.3993   -1.3703    0.5961 O.3       1 ATP        -0.5831
     21 C1'        -0.6159   -0.9100    1.8769 C.3       1 ATP         0.2222
     22 N9         -1.7127   -1.6108    1.2130 N.pl3     1 ATP        -0.1887
     23 C8         -1.7690   -2.9583    0.9549 C.ar      1 ATP         0.4447
     24 N7         -2.8827   -3.3076    0.3418 N.2       1 ATP        -0.6159
     25 C5         -3.5683   -2.1351    0.2017 C.ar      1 ATP         0.2195
     26 C6         -4.8617   -1.9185   -0.4044 C.ar      1 ATP         0.6144
     27 N6         -5.5166   -2.9094   -0.8994 N.2       1 ATP        -0.8160
     28 N1         -5.1836   -0.5701   -0.3344 N.pl3     1 ATP        -0.8611
     29 C2         -4.3821    0.4180    0.2330 C.ar      1 ATP         0.6141
     30 N3         -3.2117    0.2488    0.7860 N.2       1 ATP        -0.5913
     31 C4         -2.8672   -1.0657    0.7327 C.ar      1 ATP         0.0067
     32 HOG3        3.8456    3.2254   -2.7278 H         1 ATP         0.4313
     33 HOB2       -1.2539    4.4252   -2.9811 H         1 ATP         0.4716
     34 H5'1       -1.7770    2.7851    2.1387 H         1 ATP         0.0452
     35 H5'2       -1.1653    2.0543    0.6320 H         1 ATP         0.0452
     36 H4'         0.0403    1.7078    3.4343 H         1 ATP         0.0998
     37 H3'         1.5906    1.4859    1.1353 H         1 ATP         0.0544
     38 HO3'        2.6839   -0.1150    2.2479 H         1 ATP         0.3961
     39 H2'        -0.0017    0.0018    0.0005 H         1 ATP         0.0499
     40 HO2'        2.0953   -0.9375    0.0709 H         1 ATP         0.4045
     41 H1'        -0.1998   -1.6319    2.6178 H         1 ATP         0.0912
     42 H8         -0.9697   -3.6300    1.2371 H         1 ATP         0.1090
     43 HN62       -6.4060   -2.5723   -1.2840 H         1 ATP         0.3694
     44 H2         -4.8409    1.4176    0.1757 H         1 ATP         0.0371
     45 H45        -6.0768   -0.2826   -0.7263 H         1 ATP         0.4283
@<TRIPOS>BOND
     1    1    2 2
     2    1    3 1
     3    1    4 1
     4    1    8 1
     5    4   32 1
     6    5    6 2
     7    5    7 1
     8    5    8 1
     9    5   12 1
    10    7   33 1
    11    9   10 2
    12    9   11 1
    13    9   12 1
    14    9   13 1
    15   13   14 1
    16   14   15 1
    17   14   34 1
    18   14   35 1
    19   15   16 1
    20   15   17 1
    21   15   36 1
    22   16   21 1
    23   17   18 1
    24   17   19 1
    25   17   37 1
    26   18   38 1
    27   19   20 1
    28   19   21 1
    29   19   39 1
    30   20   40 1
    31   21   22 1
    32   21   41 1
    33   22   23 ar
    34   22   31 ar
    35   23   24 ar
    36   23   42 1
    37   24   25 ar
    38   25   26 ar
    39   25   31 ar
    40   26   27 2
    41   26   28 ar
    42   27   43 1
    43   28   29 ar
    44   28   45 1
    45   29   30 ar
    46   29   44 1
    47   30   31 ar
@<TRIPOS>SUBSTRUCTURE
     1 ATP         1 GROUP 0 A     ****
@<TRIPOS>MOLECULE
[[[3,4-dihydroxy-5-(6-imino-1~{H}-purin-9-yl)tetrahydrofuran-2-yl]methoxy-oxido-phosphoryl]oxy-hydroxy-phosphoryl] hydrogen phosphate
   45    47     1     0     0
SMALL
USER_CHARGES

@<TRIPOS>ATOM
      1 PG          1.5125    6.9583    0.7496 P.3       1 ATP         1.5496
      2 O1G         2.6756    7.1670   -0.1945 O.co2     1 ATP        -0.8494
      3 O2G         1.5670    5.8982    1.8269 O.co2     1 ATP        -0.8494
      4 O3G         1.1486    8.3888    1.4477 O.3       1 ATP        -0.7845
      5 PB         -1.3920    6.6481    0.3428 P.3       1 ATP         1.9068
      6 O1B        -1.9224    7.8415    1.0809 O.2       1 ATP        -0.8942
      7 O2B        -2.1807    6.2784   -1.0191 O.3       1 ATP        -0.8166
      8 O3B         0.1512    6.7575   -0.1259 O.3       1 ATP        -0.8194
      9 PA         -2.5926    4.4186    1.8557 P.3       1 ATP         1.5903
     10 O1A        -3.5064    3.9076    0.7631 O.co2     1 ATP        -0.8519
     11 O2A        -3.1433    5.2314    3.0072 O.co2     1 ATP        -0.8519
     12 O3A        -1.3732    5.2612    1.1708 O.3       1 ATP        -0.8093
     13 O5'        -1.7337    3.1724    2.4752 O.3       1 ATP        -0.5649
     14 C5'        -0.8811    2.4285    1.6206 C.3       1 ATP         0.1979
     15 C4'        -0.1994    1.3333    2.4288 C.3       1 ATP         0.1179
     16 O4'        -1.1285    0.2356    2.5840 O.3       1 ATP        -0.3878
     17 C3'         1.0324    0.7610    1.7344 C.3       1 ATP         0.1185
     18 O3'         1.9175    0.2377    2.7247 O.3       1 ATP        -0.5544
     19 C2'         0.4468   -0.3802    0.9263 C.3       1 ATP         0.0542
     20 O2'         1.3993   -1.3703    0.5961 O.3       1 ATP        -0.5831
     21 C1'        -0.6159   -0.9100    1.8769 C.3       1 ATP         0.2222
     22 N9         -1.7127   -1.6108    1.2130 N.pl3     1 ATP        -0.1887
     23 C8         -2.8662   -1.0361    0.7388 C.ar      1 ATP         0.4447
     24 N7         -3.6774   -1.9166    0.1867 N.2       1 ATP        -0.6159
     25 C5         -3.0159   -3.1045    0.3123 C.ar      1 ATP         0.2195
     26 C6         -3.4377   -4.4169   -0.1199 C.ar      1 ATP         0.6144
     27 N6         -4.5720   -4.5691   -0.7080 N.2       1 ATP        -0.8160
     28 N1         -2.4600   -5.3463    0.2071 N.pl3     1 ATP        -0.8611
     29 C2         -1.2595   -5.0554    0.8515 C.ar      1 ATP         0.6141
     30 N3         -0.8555   -3.8803    1.2516 N.2       1 ATP        -0.5913
     31 C4         -1.7946   -2.9457    0.9448 C.ar      1 ATP         0.0067
     32 HOG3        0.4093    8.4191    2.0917 H         1 ATP         0.4313
     33 HOB2       -3.1356    6.0593   -0.9699 H         1 ATP         0.4716
     34 H5'1       -1.4801    1.9928    0.8147 H         1 ATP         0.0452
     35 H5'2       -0.1369    3.1041    1.1872 H         1 ATP         0.0452
     36 H4'         0.0403    1.7078    3.4343 H         1 ATP         0.0998
     37 H3'         1.5906    1.4859    1.1353 H         1 ATP         0.0544
     38 HO3'        2.6839   -0.1150    2.2479 H         1 ATP         0.3961
     39 H2'        -0.0017    0.0018    0.0005 H         1 ATP         0.0499
     40 HO2'        2.0953   -0.9375    0.0709 H         1 ATP         0.4045
     41 H1'        -0.1998   -1.6319    2.6178 H         1 ATP         0.0912
     42 H8         -3.0558    0.0252    0.8256 H         1 ATP         0.1090
     43 HN62       -4.7047   -5.5592   -0.9421 H         1 ATP         0.3694
     44 H2         -0.6372   -5.9505    1.0077 H         1 ATP         0.0371
     45 H45        -2.6338   -6.3155   -0.0469 H         1 ATP         0.4283
@<TRIPOS>BOND
     1    1    2 2
     2    1    3 1
     3    1    4 1
     4    1    8 1
     5    4   32 1
     6    5    6 2
     7    5    7 1
     8    5    8 1
     9    5   12 1
    10    7   33 1
    11    9   10 2
    12    9   11 1
    13    9   12 1
    14    9   13 1
    15   13   14 1
    16   14   15 1
    17   14   34 1
    18   14   35 1
    19   15   16 1
    20   15   17 1
    21   15   36 1
    22   16   21 1
    23   17   18 1
    24   17   19 1
    25   17   37 1
    26   18   38 1
    27   19   20 1
    28   19   21 1
    29   19   39 1
    30   20   40 1
    31   21   22 1
    32   21   41 1
    33   22   23 ar
    34   22   31 ar
    35   23   24 ar
    36   23   42 1
    37   24   25 ar
    38   25   26 ar
    39   25   31 ar
    40   26   27 2
    41   26   28 ar
    42   27   43 1
    43   28   29 ar
    44   28   45 1
    45   29   30 ar
    46   29   44 1
    47   30   31 ar
@<TRIPOS>SUBSTRUCTURE
     1 ATP         1 GROUP 0 A     ****
@<TRIPOS>MOLECULE
[[[3,4-dihydroxy-5-(6-imino-1~{H}-purin-9-yl)tetrahydrofuran-2-yl]methoxy-oxido-phosphoryl]oxy-hydroxy-phosphoryl] hydrogen phosphate
   45    47     1     0     0
SMALL
USER_CHARGES

@<TRIPOS>ATOM
      1 PG         -4.3134    8.2940    0.0283 P.3       1 ATP         1.5496
      2 O1G        -5.6599    8.0167   -0.6025 O.co2     1 ATP        -0.8494
      3 O2G        -3.2885    9.1555   -0.6752 O.co2     1 ATP        -0.8494
      4 O3G        -4.5571    8.8969    1.5261 O.3       1 ATP        -0.7845
      5 PB         -3.0713    5.6677   -0.4792 P.3       1 ATP         1.9068
      6 O1B        -4.0936    5.0249   -1.3692 O.2       1 ATP        -0.8942
      7 O2B        -1.8059    6.3178   -1.2471 O.3       1 ATP        -0.8166
      8 O3B        -3.6221    6.8760    0.4424 O.3       1 ATP        -0.8194
      9 PA         -3.0798    3.8626    1.8537 P.3       1 ATP         1.5903
     10 O1A        -3.9734    2.7896    1.2704 O.co2     1 ATP        -0.8519
     11 O2A        -3.6164    4.8487    2.8682 O.co2     1 ATP        -0.8519
     12 O3A        -2.4006    4.7043    0.6305 O.3       1 ATP        -0.8093
     13 O5'        -1.7337    3.1724    2.4752 O.3       1 ATP        -0.5649
     14 C5'        -0.8811    2.4285    1.6206 C.3       1 ATP         0.1979
     15 C4'        -0.1994    1.3333    2.4288 C.3       1 ATP         0.1179
     16 O4'        -1.1285    0.2356    2.5840 O.3       1 ATP        -0.3878
     17 C3'         1.0324    0.7610    1.7344 C.3       1 ATP         0.1185
     18 O3'         1.9175    0.2377    2.7247 O.3       1 ATP        -0.5544
     19 C2'         0.4468   -0.3802    0.9263 C.3       1 ATP         0.0542
     20 O2'         1.3993   -1.3703    0.5961 O.3       1 ATP        -0.5831
     21 C1'        -0.6159   -0.9100    1.8769 C.3       1 ATP         0.2222
     22 N9         -1.7127   -1.6108    1.2130 N.pl3     1 ATP        -0.1887
     23 C8         -2.8662   -1.0361    0.7388 C.ar      1 ATP         0.4447
     24 N7         -3.6774   -1.9166    0.1867 N.2       1 ATP        -0.6159
     25 C5         -3.0159   -3.1045    0.3123 C.ar      1 ATP         0.2195
     26 C6         -3.4377   -4.4169   -0.1199 C.ar      1 ATP         0.6144
     27 N6         -4.5720   -4.5691   -0.7080 N.2       1 ATP        -0.8160
     28 N1         -2.4600   -5.3463    0.2071 N.pl3     1 ATP        -0.8611
     29 C2         -1.2595   -5.0554    0.8515 C.ar      1 ATP         0.6141
     30 N3         -0.8555   -3.8803    1.2516 N.2       1 ATP        -0.5913
     31 C4         -1.7946   -2.9457    0.9448 C.ar      1 ATP         0.0067
     32 HOG3       -3.7737    9.1294    2.0688 H         1 ATP         0.4313
     33 HOB2       -1.9631    7.0332   -1.8996 H         1 ATP         0.4716
     34 H5'1       -1.4801    1.9928    0.8147 H         1 ATP         0.0452
     35 H5'2       -0.1369    3.1041    1.1872 H         1 ATP         0.0452
     36 H4'         0.0403    1.7078    3.4343 H         1 ATP         0.0998
     37 H3'         1.5906    1.4859    1.1353 H         1 ATP         0.0544
     38 HO3'        2.6839   -0.1150    2.2479 H         1 ATP         0.3961
     39 H2'        -0.0017    0.0018    0.0005 H         1 ATP         0.0499
     40 HO2'        2.0953   -0.9375    0.0709 H         1 ATP         0.4045
     41 H1'        -0.1998   -1.6319    2.6178 H         1 ATP         0.0912
     42 H8         -3.0558    0.0252    0.8256 H         1 ATP         0.1090
     43 HN62       -4.7047   -5.5592   -0.9421 H         1 ATP         0.3694
     44 H2         -0.6372   -5.9505    1.0077 H         1 ATP         0.0371
     45 H45        -2.6338   -6.3155   -0.0469 H         1 ATP         0.4283
@<TRIPOS>BOND
     1    1    2 2
     2    1    3 1
     3    1    4 1
     4    1    8 1
     5    4   32 1
     6    5    6 2
     7    5    7 1
     8    5    8 1
     9    5   12 1
    10    7   33 1
    11    9   10 2
    12    9   11 1
    13    9   12 1
    14    9   13 1
    15   13   14 1
    16   14   15 1
    17   14   34 1
    18   14   35 1
    19   15   16 1
    20   15   17 1
    21   15   36 1
    22   16   21 1
    23   17   18 1
    24   17   19 1
    25   17   37 1
    26   18   38 1
    27   19   20 1
    28   19   21 1
    29   19   39 1
    30   20   40 1
    31   21   22 1
    32   21   41 1
    33   22   23 ar
    34   22   31 ar
    35   23   24 ar
    36   23   42 1
    37   24   25 ar
    38   25   26 ar
    39   25   31 ar
    40   26   27 2
    41   26   28 ar
    42   27   43 1
    43   28   29 ar
    44   28   45 1
    45   29   30 ar
    46   29   44 1
    47   30   31 ar
@<TRIPOS>SUBSTRUCTURE
     1 ATP         1 GROUP 0 A     ****
@<TRIPOS>MOLECULE
[[[3,4-dihydroxy-5-(6-imino-1~{H}-purin-9-yl)tetrahydrofuran-2-yl]methoxy-oxido-phosphoryl]oxy-hydroxy-phosphoryl] hydrogen phosphate
   45    47     1     0     0
SMALL
USER_CHARGES

@<TRIPOS>ATOM
      1 PG         -1.4894    6.0394   -1.8642 P.3       1 ATP         1.5496
      2 O1G        -1.2561    4.5575   -1.6709 O.co2     1 ATP        -0.8494
      3 O2G        -0.3277    7.0042   -1.9490 O.co2     1 ATP        -0.8494
      4 O3G        -2.4337    6.2481   -3.1798 O.3       1 ATP        -0.7845
      5 PB         -2.3658    6.6802    0.8779 P.3       1 ATP         1.9068
      6 O1B        -1.2550    7.5756    1.3411 O.2       1 ATP        -0.8942
      7 O2B        -3.8417    7.0993    1.3875 O.3       1 ATP        -0.8166
      8 O3B        -2.5333    6.5626   -0.7255 O.3       1 ATP        -0.8194
      9 PA         -2.1560    4.4277    2.7709 P.3       1 ATP         1.5903
     10 O1A        -3.4707    4.6479    3.4869 O.co2     1 ATP        -0.8519
     11 O2A        -0.8473    4.8292    3.4158 O.co2     1 ATP        -0.8519
     12 O3A        -2.2360    5.1255    1.2968 O.3       1 ATP        -0.8093
     13 O5'        -2.0402    2.8619    2.3130 O.3       1 ATP        -0.5649
     14 C5'        -0.8811    2.4285    1.6206 C.3       1 ATP         0.1979
     15 C4'        -0.1994    1.3333    2.4288 C.3       1 ATP         0.1179
     16 O4'        -1.1285    0.2356    2.5840 O.3       1 ATP        -0.3878
     17 C3'         1.0324    0.7610    1.7344 C.3       1 ATP         0.1185
     18 O3'         1.9175    0.2377    2.7247 O.3       1 ATP        -0.5544
     19 C2'         0.4468   -0.3802    0.9263 C.3       1 ATP         0.0542
     20 O2'         1.3993   -1.3703    0.5961 O.3       1 ATP        -0.5831
     21 C1'        -0.6159   -0.9100    1.8769 C.3       1 ATP         0.2222
     22 N9         -1.7127   -1.6108    1.2130 N.pl3     1 ATP        -0.1887
     23 C8         -2.8662   -1.0361    0.7388 C.ar      1 ATP         0.4447
     24 N7         -3.6774   -1.9166    0.1867 N.2       1 ATP        -0.6159
     25 C5         -3.0159   -3.1045    0.3123 C.ar      1 ATP         0.2195
     26 C6         -3.4377   -4.4169   -0.1199 C.ar      1 ATP         0.6144
     27 N6         -4.5720   -4.5691   -0.7080 N.2       1 ATP        -0.8160
     28 N1         -2.4600   -5.3463    0.2071 N.pl3     1 ATP        -0.8611
     29 C2         -1.2595   -5.0554    0.8515 C.ar      1 ATP         0.6141
     30 N3         -0.8555   -3.8803    1.2516 N.2       1 ATP        -0.5913
     31 C4         -1.7946   -2.9457    0.9448 C.ar      1 ATP         0.0067
     32 HOG3       -2.6770    7.1622   -3.4394 H         1 ATP         0.4313
     33 HOB2       -4.0186    7.1343    2.3517 H         1 ATP         0.4716
     34 H5'1       -1.1769    2.0503    0.6369 H         1 ATP         0.0452
     35 H5'2       -0.2081    3.2815    1.4877 H         1 ATP         0.0452
     36 H4'         0.0403    1.7078    3.4343 H         1 ATP         0.0998
     37 H3'         1.5906    1.4859    1.1353 H         1 ATP         0.0544
     38 HO3'        2.6839   -0.1150    2.2479 H         1 ATP         0.3961
     39 H2'        -0.0017    0.0018    0.0005 H         1 ATP         0.0499
     40 HO2'        2.0953   -0.9375    0.0709 H         1 ATP         0.4045
     41 H1'        -0.1998   -1.6319    2.6178 H         1 ATP         0.0912
     42 H8         -3.0558    0.0252    0.8256 H         1 ATP         0.1090
     43 HN62       -4.7047   -5.5592   -0.9421 H         1 ATP         0.3694
     44 H2         -0.6372   -5.9505    1.0077 H         1 ATP         0.0371
     45 H45        -2.6338   -6.3155   -0.0469 H         1 ATP         0.4283
@<TRIPOS>BOND
     1    1    2 2
     2    1    3 1
     3    1    4 1
     4    1    8 1
     5    4   32 1
     6    5    6 2
     7    5    7 1
     8    5    8 1
     9    5   12 1
    10    7   33 1
    11    9   10 2
    12    9   11 1
    13    9   12 1
    14    9   13 1
    15   13   14 1
    16   14   15 1
    17   14   34 1
    18   14   35 1
    19   15   16 1
    20   15   17 1
    21   15   36 1
    22   16   21 1
    23   17   18 1
    24   17   19 1
    25   17   37 1
    26   18   38 1
    27   19   20 1
    28   19   21 1
    29   19   39 1
    30   20   40 1
    31   21   22 1
    32   21   41 1
    33   22   23 ar
    34   22   31 ar
    35   23   24 ar
    36   23   42 1
    37   24   25 ar
    38   25   26 ar
    39   25   31 ar
    40   26   27 2
    41   26   28 ar
    42   27   43 1
    43   28   29 ar
    44   28   45 1
    45   29   30 ar
    46   29   44 1
    47   30   31 ar
@<TRIPOS>SUBSTRUCTURE
     1 ATP         1 GROUP 0 A     ****
@<TRIPOS>MOLECULE
[[[3,4-dihydroxy-5-(6-imino-1~{H}-purin-9-yl)tetrahydrofuran-2-yl]methoxy-oxido-phosphoryl]oxy-hydroxy-phosphoryl] hydrogen phosphate
   45    47     1     0     0
SMALL
USER_CHARGES

@<TRIPOS>ATOM
      1 PG         -2.9455    8.3881    5.0545 P.3       1 ATP         1.5496
      2 O1G        -1.8230    8.7884    5.9858 O.co2     1 ATP        -0.8494
      3 O2G        -4.3581    8.2196    5.5678 O.co2     1 ATP        -0.8494
      4 O3G        -2.9716    9.4291    3.7968 O.3       1 ATP        -0.7845
      5 PB         -1.1858    6.7202    3.3754 P.3       1 ATP         1.9068
      6 O1B        -0.9685    7.6177    2.1932 O.2       1 ATP        -0.8942
      7 O2B         0.0059    6.7252    4.4678 O.3       1 ATP        -0.8166
      8 O3B        -2.5078    7.0390    4.2491 O.3       1 ATP        -0.8194
      9 PA         -2.5400    4.4094    2.1394 P.3       1 ATP         1.5903
     10 O1A        -2.3768    4.8333    0.6960 O.co2     1 ATP        -0.8519
     11 O2A        -3.8714    4.5574    2.8431 O.co2     1 ATP        -0.8519
     12 O3A        -1.3993    5.1547    3.0391 O.3       1 ATP        -0.8093
     13 O5'        -2.0402    2.8619    2.3130 O.3       1 ATP        -0.5649
     14 C5'        -0.8811    2.4285    1.6206 C.3       1 ATP         0.1979
     15 C4'        -0.1994    1.3333    2.4288 C.3       1 ATP         0.1179
     16 O4'        -1.1285    0.2356    2.5840 O.3       1 ATP        -0.3878
     17 C3'         1.0324    0.7610    1.7344 C.3       1 ATP         0.1185
     18 O3'         1.9175    0.2377    2.7247 O.3       1 ATP        -0.5544
     19 C2'         0.4468   -0.3802    0.9263 C.3       1 ATP         0.0542
     20 O2'         1.3993   -1.3703    0.5961 O.3       1 ATP        -0.5831
     21 C1'        -0.6159   -0.9100    1.8769 C.3       1 ATP         0.2222
     22 N9         -1.7127   -1.6108    1.2130 N.pl3     1 ATP        -0.1887
     23 C8         -2.8662   -1.0361    0.7388 C.ar      1 ATP         0.4447
     24 N7         -3.6774   -1.9166    0.1867 N.2       1 ATP        -0.6159
     25 C5         -3.0159   -3.1045    0.3123 C.ar      1 ATP         0.2195
     26 C6         -3.4377   -4.4169   -0.1199 C.ar      1 ATP         0.6144
     27 N6         -4.5720   -4.5691   -0.7080 N.2       1 ATP        -0.8160
     28 N1         -2.4600   -5.3463    0.2071 N.pl3     1 ATP        -0.8611
     29 C2         -1.2595   -5.0554    0.8515 C.ar      1 ATP         0.6141
     30 N3         -0.8555   -3.8803    1.2516 N.2       1 ATP        -0.5913
     31 C4         -1.7946   -2.9457    0.9448 C.ar      1 ATP         0.0067
     32 HOG3       -3.6497    9.3017    3.0996 H         1 ATP         0.4313
     33 HOB2        0.2385    7.5681    4.9124 H         1 ATP         0.4716
     34 H5'1       -1.1769    2.0503    0.6369 H         1 ATP         0.0452
     35 H5'2       -0.2081    3.2815    1.4877 H         1 ATP         0.0452
     36 H4'         0.0403    1.7078    3.4343 H         1 ATP         0.0998
     37 H3'         1.5906    1.4859    1.1353 H         1 ATP         0.0544
     38 HO3'        2.6839   -0.1150    2.2479 H         1 ATP         0.3961
     39 H2'        -0.0017    0.0018    0.0005 H         1 ATP         0.0499
     40 HO2'        2.0953   -0.9375    0.0709 H         1 ATP         0.4045
     41 H1'        -0.1998   -1.6319    2.6178 H         1 ATP         0.0912
     42 H8         -3.0558    0.0252    0.8256 H         1 ATP         0.1090
     43 HN62       -4.7047   -5.5592   -0.9421 H         1 ATP         0.3694
     44 H2         -0.6372   -5.9505    1.0077 H         1 ATP         0.0371
     45 H45        -2.6338   -6.3155   -0.0469 H         1 ATP         0.4283
@<TRIPOS>BOND
     1    1    2 2
     2    1    3 1
     3    1    4 1
     4    1    8 1
     5    4   32 1
     6    5    6 2
     7    5    7 1
     8    5    8 1
     9    5   12 1
    10    7   33 1
    11    9   10 2
    12    9   11 1
    13    9   12 1
    14    9   13 1
    15   13   14 1
    16   14   15 1
    17   14   34 1
    18   14   35 1
    19   15   16 1
    20   15   17 1
    21   15   36 1
    22   16   21 1
    23   17   18 1
    24   17   19 1
    25   17   37 1
    26   18   38 1
    27   19   20 1
    28   19   21 1
    29   19   39 1
    30   20   40 1
    31   21   22 1
    32   21   41 1
    33   22   23 ar
    34   22   31 ar
    35   23   24 ar
    36   23   42 1
    37   24   25 ar
    38   25   26 ar
    39   25   31 ar
    40   26   27 2
    41   26   28 ar
    42   27   43 1
    43   28   29 ar
    44   28   45 1
    45   29   30 ar
    46   29   44 1
    47   30   31 ar
@<TRIPOS>SUBSTRUCTURE
     1 ATP         1 GROUP 0 A     ****
@<TRIPOS>MOLECULE
[[[3,4-dihydroxy-5-(6-imino-1~{H}-purin-9-yl)tetrahydrofuran-2-yl]methoxy-oxido-phosphoryl]oxy-hydroxy-phosphoryl] hydrogen phosphate
   45    47     1     0     0
SMALL
USER_CHARGES

@<TRIPOS>ATOM
      1 PG          1.5792    6.3002    4.1351 P.3       1 ATP         1.5496
      2 O1G         2.2690    7.4890    4.7664 O.co2     1 ATP        -0.8494
      3 O2G         1.4797    6.1678    2.6318 O.co2     1 ATP        -0.8494
      4 O3G         2.2479    4.9356    4.7325 O.3       1 ATP        -0.7845
      5 PB         -1.0209    4.9885    4.6007 P.3       1 ATP         1.9068
      6 O1B        -0.5875    3.6164    5.0246 O.2       1 ATP        -0.8942
      7 O2B        -2.3131    5.5700    5.3790 O.3       1 ATP        -0.8166
      8 O3B         0.0898    6.1489    4.7821 O.3       1 ATP        -0.8194
      9 PA         -2.5400    4.4094    2.1394 P.3       1 ATP         1.5903
     10 O1A        -2.3768    4.8333    0.6960 O.co2     1 ATP        -0.8519
     11 O2A        -3.8714    4.5574    2.8431 O.co2     1 ATP        -0.8519
     12 O3A        -1.3993    5.1547    3.0391 O.3       1 ATP        -0.8093
     13 O5'        -2.0402    2.8619    2.3130 O.3       1 ATP        -0.5649
     14 C5'        -0.8811    2.4285    1.6206 C.3       1 ATP         0.1979
     15 C4'        -0.1994    1.3333    2.4288 C.3       1 ATP         0.1179
     16 O4'        -1.1285    0.2356    2.5840 O.3       1 ATP        -0.3878
     17 C3'         1.0324    0.7610    1.7344 C.3       1 ATP         0.1185
     18 O3'         1.9175    0.2377    2.7247 O.3       1 ATP        -0.5544
     19 C2'         0.4468   -0.3802    0.9263 C.3       1 ATP         0.0542
     20 O2'         1.3993   -1.3703    0.5961 O.3       1 ATP        -0.5831
     21 C1'        -0.6159   -0.9100    1.8769 C.3       1 ATP         0.2222
     22 N9         -1.7127   -1.6108    1.2130 N.pl3     1 ATP        -0.1887
     23 C8         -1.7690   -2.9583    0.9549 C.ar      1 ATP         0.4447
     24 N7         -2.8827   -3.3076    0.3418 N.2       1 ATP        -0.6159
     25 C5         -3.5683   -2.1351    0.2017 C.ar      1 ATP         0.2195
     26 C6         -4.8617   -1.9185   -0.4044 C.ar      1 ATP         0.6144
     27 N6         -5.5166   -2.9094   -0.8994 N.2       1 ATP        -0.8160
     28 N1         -5.1836   -0.5701   -0.3344 N.pl3     1 ATP        -0.8611
     29 C2         -4.3821    0.4180    0.2330 C.ar      1 ATP         0.6141
     30 N3         -3.2117    0.2488    0.7860 N.2       1 ATP        -0.5913
     31 C4         -2.8672   -1.0657    0.7327 C.ar      1 ATP         0.0067
     32 HOG3        1.9059    4.0718    4.4179 H         1 ATP         0.4313
     33 HOB2       -3.1609    5.0798    5.3231 H         1 ATP         0.4716
     34 H5'1       -1.1769    2.0503    0.6369 H         1 ATP         0.0452
     35 H5'2       -0.2081    3.2815    1.4877 H         1 ATP         0.0452
     36 H4'         0.0403    1.7078    3.4343 H         1 ATP         0.0998
     37 H3'         1.5906    1.4859    1.1353 H         1 ATP         0.0544
     38 HO3'        2.6839   -0.1150    2.2479 H         1 ATP         0.3961
     39 H2'        -0.0017    0.0018    0.0005 H         1 ATP         0.0499
     40 HO2'        2.0953   -0.9375    0.0709 H         1 ATP         0.4045
     41 H1'        -0.1998   -1.6319    2.6178 H         1 ATP         0.0912
     42 H8         -0.9697   -3.6300    1.2371 H         1 ATP         0.1090
     43 HN62       -6.4060   -2.5723   -1.2840 H         1 ATP         0.3694
     44 H2         -4.8409    1.4176    0.1757 H         1 ATP         0.0371
     45 H45        -6.0768   -0.2826   -0.7263 H         1 ATP         0.4283
@<TRIPOS>BOND
     1    1    2 2
     2    1    3 1
     3    1    4 1
     4    1    8 1
     5    4   32 1
     6    5    6 2
     7    5    7 1
     8    5    8 1
     9    5   12 1
    10    7   33 1
    11    9   10 2
    12    9   11 1
    13    9   12 1
    14    9   13 1
    15   13   14 1
    16   14   15 1
    17   14   34 1
    18   14   35 1
    19   15   16 1
    20   15   17 1
    21   15   36 1
    22   16   21 1
    23   17   18 1
    24   17   19 1
    25   17   37 1
    26   18   38 1
    27   19   20 1
    28   19   21 1
    29   19   39 1
    30   20   40 1
    31   21   22 1
    32   21   41 1
    33   22   23 ar
    34   22   31 ar
    35   23   24 ar
    36   23   42 1
    37   24   25 ar
    38   25   26 ar
    39   25   31 ar
    40   26   27 2
    41   26   28 ar
    42   27   43 1
    43   28   29 ar
    44   28   45 1
    45   29   30 ar
    46   29   44 1
    47   30   31 ar
@<TRIPOS>SUBSTRUCTURE
     1 ATP         1 GROUP 0 A     ****
@<TRIPOS>MOLECULE
[[[3,4-dihydroxy-5-(6-imino-1~{H}-purin-9-yl)tetrahydrofuran-2-yl]methoxy-oxido-phosphoryl]oxy-hydroxy-phosphoryl] hydrogen phosphate
   45    47     1     0     0
SMALL
USER_CHARGES

@<TRIPOS>ATOM
      1 PG          0.4511    3.6192    6.9031 P.3       1 ATP         1.5496
      2 O1G         0.0595    2.3683    6.1483 O.co2     1 ATP        -0.8494
      3 O2G        -0.3153    4.0575    8.1312 O.co2     1 ATP        -0.8494
      4 O3G         2.0344    3.5173    7.2890 O.3       1 ATP        -0.7845
      5 PB         -0.6302    5.6014    5.0059 P.3       1 ATP         1.9068
      6 O1B        -1.7186    6.2303    5.8245 O.2       1 ATP        -0.8942
      7 O2B         0.1811    6.6192    4.0469 O.3       1 ATP        -0.8166
      8 O3B         0.5324    4.8654    5.8541 O.3       1 ATP        -0.8194
      9 PA         -2.1560    4.4277    2.7709 P.3       1 ATP         1.5903
     10 O1A        -1.6129    5.3159    1.6726 O.co2     1 ATP        -0.8519
     11 O2A        -3.5422    4.6538    3.3339 O.co2     1 ATP        -0.8519
     12 O3A        -1.0946    4.4160    4.0116 O.3       1 ATP        -0.8093
     13 O5'        -2.0402    2.8619    2.3130 O.3       1 ATP        -0.5649
     14 C5'        -0.8811    2.4285    1.6206 C.3       1 ATP         0.1979
     15 C4'        -0.1994    1.3333    2.4288 C.3       1 ATP         0.1179
     16 O4'        -1.1285    0.2356    2.5840 O.3       1 ATP        -0.3878
     17 C3'         1.0324    0.7610    1.7344 C.3       1 ATP         0.1185
     18 O3'         1.9175    0.2377    2.7247 O.3       1 ATP        -0.5544
     19 C2'         0.4468   -0.3802    0.9263 C.3       1 ATP         0.0542
     20 O2'         1.3993   -1.3703    0.5961 O.3       1 ATP        -0.5831
     21 C1'        -0.6159   -0.9100    1.8769 C.3       1 ATP         0.2222
     22 N9         -1.7127   -1.6108    1.2130 N.pl3     1 ATP        -0.1887
     23 C8         -2.8662   -1.0361    0.7388 C.ar      1 ATP         0.4447
     24 N7         -3.6774   -1.9166    0.1867 N.2       1 ATP        -0.6159
     25 C5         -3.0159   -3.1045    0.3123 C.ar      1 ATP         0.2195
     26 C6         -3.4377   -4.4169   -0.1199 C.ar      1 ATP         0.6144
     27 N6         -4.5720   -4.5691   -0.7080 N.2       1 ATP        -0.8160
     28 N1         -2.4600   -5.3463    0.2071 N.pl3     1 ATP        -0.8611
     29 C2         -1.2595   -5.0554    0.8515 C.ar      1 ATP         0.6141
     30 N3         -0.8555   -3.8803    1.2516 N.2       1 ATP        -0.5913
     31 C4         -1.7946   -2.9457    0.9448 C.ar      1 ATP         0.0067
     32 HOG3        2.4425    4.2586    7.7851 H         1 ATP         0.4313
     33 HOB2       -0.3099    7.1146    3.3573 H         1 ATP         0.4716
     34 H5'1       -1.1769    2.0503    0.6369 H         1 ATP         0.0452
     35 H5'2       -0.2081    3.2815    1.4877 H         1 ATP         0.0452
     36 H4'         0.0403    1.7078    3.4343 H         1 ATP         0.0998
     37 H3'         1.5906    1.4859    1.1353 H         1 ATP         0.0544
     38 HO3'        2.6839   -0.1150    2.2479 H         1 ATP         0.3961
     39 H2'        -0.0017    0.0018    0.0005 H         1 ATP         0.0499
     40 HO2'        2.0953   -0.9375    0.0709 H         1 ATP         0.4045
     41 H1'        -0.1998   -1.6319    2.6178 H         1 ATP         0.0912
     42 H8         -3.0558    0.0252    0.8256 H         1 ATP         0.1090
     43 HN62       -4.7047   -5.5592   -0.9421 H         1 ATP         0.3694
     44 H2         -0.6372   -5.9505    1.0077 H         1 ATP         0.0371
     45 H45        -2.6338   -6.3155   -0.0469 H         1 ATP         0.4283
@<TRIPOS>BOND
     1    1    2 2
     2    1    3 1
     3    1    4 1
     4    1    8 1
     5    4   32 1
     6    5    6 2
     7    5    7 1
     8    5    8 1
     9    5   12 1
    10    7   33 1
    11    9   10 2
    12    9   11 1
    13    9   12 1
    14    9   13 1
    15   13   14 1
    16   14   15 1
    17   14   34 1
    18   14   35 1
    19   15   16 1
    20   15   17 1
    21   15   36 1
    22   16   21 1
    23   17   18 1
    24   17   19 1
    25   17   37 1
    26   18   38 1
    27   19   20 1
    28   19   21 1
    29   19   39 1
    30   20   40 1
    31   21   22 1
    32   21   41 1
    33   22   23 ar
    34   22   31 ar
    35   23   24 ar
    36   23   42 1
    37   24   25 ar
    38   25   26 ar
    39   25   31 ar
    40   26   27 2
    41   26   28 ar
    42   27   43 1
    43   28   29 ar
    44   28   45 1
    45   29   30 ar
    46   29   44 1
    47   30   31 ar
@<TRIPOS>SUBSTRUCTURE
     1 ATP         1 GROUP 0 A     ****
@<TRIPOS>MOLECULE
[[[3,4-dihydroxy-5-(6-imino-1~{H}-purin-9-yl)tetrahydrofuran-2-yl]methoxy-oxido-phosphoryl]oxy-hydroxy-phosphoryl] hydrogen phosphate
   45    47     1     0     0
SMALL
USER_CHARGES

@<TRIPOS>ATOM
      1 PG          0.7952    7.0401   -3.6228 P.3       1 ATP         1.5496
      2 O1G         1.0020    6.2359   -4.8870 O.co2     1 ATP        -0.8494
      3 O2G         1.8512    8.0070   -3.1356 O.co2     1 ATP        -0.8494
      4 O3G        -0.6235    7.8394   -3.7433 O.3       1 ATP        -0.7845
      5 PB         -0.7539    4.9000   -2.3121 P.3       1 ATP         1.9068
      6 O1B        -2.1556    5.4100   -2.4721 O.2       1 ATP        -0.8942
      7 O2B        -0.3008    3.7894   -3.3960 O.3       1 ATP        -0.8166
      8 O3B         0.4037    6.0240   -2.4085 O.3       1 ATP        -0.8194
      9 PA         -0.4664    4.8322    0.6228 P.3       1 ATP         1.5903
     10 O1A        -1.9047    5.1495    0.9699 O.co2     1 ATP        -0.8519
     11 O2A         0.6096    5.8893    0.7433 O.co2     1 ATP        -0.8519
     12 O3A        -0.4131    4.2167   -0.8886 O.3       1 ATP        -0.8093
     13 O5'         0.0180    3.5131    1.4595 O.3       1 ATP        -0.5649
     14 C5'        -0.8811    2.4285    1.6206 C.3       1 ATP         0.1979
     15 C4'        -0.1994    1.3333    2.4288 C.3       1 ATP         0.1179
     16 O4'        -1.1285    0.2356    2.5840 O.3       1 ATP        -0.3878
     17 C3'         1.0324    0.7610    1.7344 C.3       1 ATP         0.1185
     18 O3'         1.9175    0.2377    2.7247 O.3       1 ATP        -0.5544
     19 C2'         0.4468   -0.3802    0.9263 C.3       1 ATP         0.0542
     20 O2'         1.3993   -1.3703    0.5961 O.3       1 ATP        -0.5831
     21 C1'        -0.6159   -0.9100    1.8769 C.3       1 ATP         0.2222
     22 N9         -1.7127   -1.6108    1.2130 N.pl3     1 ATP        -0.1887
     23 C8         -2.8662   -1.0361    0.7388 C.ar      1 ATP         0.4447
     24 N7         -3.6774   -1.9166    0.1867 N.2       1 ATP        -0.6159
     25 C5         -3.0159   -3.1045    0.3123 C.ar      1 ATP         0.2195
     26 C6         -3.4377   -4.4169   -0.1199 C.ar      1 ATP         0.6144
     27 N6         -4.5720   -4.5691   -0.7080 N.2       1 ATP        -0.8160
     28 N1         -2.4600   -5.3463    0.2071 N.pl3     1 ATP        -0.8611
     29 C2         -1.2595   -5.0554    0.8515 C.ar      1 ATP         0.6141
     30 N3         -0.8555   -3.8803    1.2516 N.2       1 ATP        -0.5913
     31 C4         -1.7946   -2.9457    0.9448 C.ar      1 ATP         0.0067
     32 HOG3       -0.9026    8.4102   -2.9960 H         1 ATP         0.4313
     33 HOB2       -0.3071    4.0254   -4.3482 H         1 ATP         0.4716
     34 H5'1       -1.7770    2.7851    2.1387 H         1 ATP         0.0452
     35 H5'2       -1.1653    2.0543    0.6320 H         1 ATP         0.0452
     36 H4'         0.0403    1.7078    3.4343 H         1 ATP         0.0998
     37 H3'         1.5906    1.4859    1.1353 H         1 ATP         0.0544
     38 HO3'        2.6839   -0.1150    2.2479 H         1 ATP         0.3961
     39 H2'        -0.0017    0.0018    0.0005 H         1 ATP         0.0499
     40 HO2'        2.0953   -0.9375    0.0709 H         1 ATP         0.4045
     41 H1'        -0.1998   -1.6319    2.6178 H         1 ATP         0.0912
     42 H8         -3.0558    0.0252    0.8256 H         1 ATP         0.1090
     43 HN62       -4.7047   -5.5592   -0.9421 H         1 ATP         0.3694
     44 H2         -0.6372   -5.9505    1.0077 H         1 ATP         0.0371
     45 H45        -2.6338   -6.3155   -0.0469 H         1 ATP         0.4283
@<TRIPOS>BOND
     1    1    2 2
     2    1    3 1
     3    1    4 1
     4    1    8 1
     5    4   32 1
     6    5    6 2
     7    5    7 1
     8    5    8 1
     9    5   12 1
    10    7   33 1
    11    9   10 2
    12    9   11 1
    13    9   12 1
    14    9   13 1
    15   13   14 1
    16   14   15 1
    17   14   34 1
    18   14   35 1
    19   15   16 1
    20   15   17 1
    21   15   36 1
    22   16   21 1
    23   17   18 1
    24   17   19 1
    25   17   37 1
    26   18   38 1
    27   19   20 1
    28   19   21 1
    29   19   39 1
    30   20   40 1
    31   21   22 1
    32   21   41 1
    33   22   23 ar
    34   22   31 ar
    35   23   24 ar
    36   23   42 1
    37   24   25 ar
    38   25   26 ar
    39   25   31 ar
    40   26   27 2
    41   26   28 ar
    42   27   43 1
    43   28   29 ar
    44   28   45 1
    45   29   30 ar
    46   29   44 1
    47   30   31 ar
@<TRIPOS>SUBSTRUCTURE
     1 ATP         1 GROUP 0 A     ****
@<TRIPOS>MOLECULE
[[[3,4-dihydroxy-5-(6-imino-1~{H}-purin-9-yl)tetrahydrofuran-2-yl]methoxy-oxido-phosphoryl]oxy-hydroxy-phosphoryl] hydrogen phosphate
   45    47     1     0     0
SMALL
USER_CHARGES

@<TRIPOS>ATOM
      1 PG         -3.6143    3.7482   -2.4218 P.3       1 ATP         1.5496
      2 O1G        -2.9993    2.5722   -1.6960 O.co2     1 ATP        -0.8494
      3 O2G        -2.8294    4.5160   -3.4619 O.co2     1 ATP        -0.8494
      4 O3G        -5.0247    3.2658   -3.0883 O.3       1 ATP        -0.7845
      5 PB         -3.4460    5.7176   -0.2330 P.3       1 ATP         1.9068
      6 O1B        -2.4728    6.7078   -0.8012 O.2       1 ATP        -0.8942
      7 O2B        -4.6501    6.3600    0.6337 O.3       1 ATP        -0.8166
      8 O3B        -4.2068    4.7964   -1.3217 O.3       1 ATP        -0.8194
      9 PA         -2.0037    4.7527    2.1524 P.3       1 ATP         1.5903
     10 O1A        -2.9379    5.3281    3.1946 O.co2     1 ATP        -0.8519
     11 O2A        -0.6720    5.4094    1.8606 O.co2     1 ATP        -0.8519
     12 O3A        -2.8171    4.5964    0.7452 O.3       1 ATP        -0.8093
     13 O5'        -1.7337    3.1724    2.4752 O.3       1 ATP        -0.5649
     14 C5'        -0.8811    2.4285    1.6206 C.3       1 ATP         0.1979
     15 C4'        -0.1994    1.3333    2.4288 C.3       1 ATP         0.1179
     16 O4'        -1.1285    0.2356    2.5840 O.3       1 ATP        -0.3878
     17 C3'         1.0324    0.7610    1.7344 C.3       1 ATP         0.1185
     18 O3'         1.9175    0.2377    2.7247 O.3       1 ATP        -0.5544
     19 C2'         0.4468   -0.3802    0.9263 C.3       1 ATP         0.0542
     20 O2'         1.3993   -1.3703    0.5961 O.3       1 ATP        -0.5831
     21 C1'        -0.6159   -0.9100    1.8769 C.3       1 ATP         0.2222
     22 N9         -1.7127   -1.6108    1.2130 N.pl3     1 ATP        -0.1887
     23 C8         -2.8662   -1.0361    0.7388 C.ar      1 ATP         0.4447
     24 N7         -3.6774   -1.9166    0.1867 N.2       1 ATP        -0.6159
     25 C5         -3.0159   -3.1045    0.3123 C.ar      1 ATP         0.2195
     26 C6         -3.4377   -4.4169   -0.1199 C.ar      1 ATP         0.6144
     27 N6         -4.5720   -4.5691   -0.7080 N.2       1 ATP        -0.8160
     28 N1         -2.4600   -5.3463    0.2071 N.pl3     1 ATP        -0.8611
     29 C2         -1.2595   -5.0554    0.8515 C.ar      1 ATP         0.6141
     30 N3         -0.8555   -3.8803    1.2516 N.2       1 ATP        -0.5913
     31 C4         -1.7946   -2.9457    0.9448 C.ar      1 ATP         0.0067
     32 HOG3       -5.5483    3.9206   -3.5974 H         1 ATP         0.4313
     33 HOB2       -4.4316    6.8874    1.4315 H         1 ATP         0.4716
     34 H5'1       -1.4801    1.9928    0.8147 H         1 ATP         0.0452
     35 H5'2       -0.1369    3.1041    1.1872 H         1 ATP         0.0452
     36 H4'         0.0403    1.7078    3.4343 H         1 ATP         0.0998
     37 H3'         1.5906    1.4859    1.1353 H         1 ATP         0.0544
     38 HO3'        2.1521    0.9800    3.3017 H         1 ATP         0.3961
     39 H2'        -0.0017    0.0018    0.0005 H         1 ATP         0.0499
     40 HO2'        2.0953   -0.9375    0.0709 H         1 ATP         0.4045
     41 H1'        -0.1998   -1.6319    2.6178 H         1 ATP         0.0912
     42 H8         -3.0558    0.0252    0.8256 H         1 ATP         0.1090
     43 HN62       -4.7047   -5.5592   -0.9421 H         1 ATP         0.3694
     44 H2         -0.6372   -5.9505    1.0077 H         1 ATP         0.0371
     45 H45        -2.6338   -6.3155   -0.0469 H         1 ATP         0.4283
@<TRIPOS>BOND
     1    1    2 2
     2    1    3 1
     3    1    4 1
     4    1    8 1
     5    4   32 1
     6    5    6 2
     7    5    7 1
     8    5    8 1
     9    5   12 1
    10    7   33 1
    11    9   10 2
    12    9   11 1
    13    9   12 1
    14    9   13 1
    15   13   14 1
    16   14   15 1
    17   14   34 1
    18   14   35 1
    19   15   16 1
    20   15   17 1
    21   15   36 1
    22   16   21 1
    23   17   18 1
    24   17   19 1
    25   17   37 1
    26   18   38 1
    27   19   20 1
    28   19   21 1
    29   19   39 1
    30   20   40 1
    31   21   22 1
    32   21   41 1
    33   22   23 ar
    34   22   31 ar
    35   23   24 ar
    36   23   42 1
    37   24   25 ar
    38   25   26 ar
    39   25   31 ar
    40   26   27 2
    41   26   28 ar
    42   27   43 1
    43   28   29 ar
    44   28   45 1
    45   29   30 ar
    46   29   44 1
    47   30   31 ar
@<TRIPOS>SUBSTRUCTURE
     1 ATP         1 GROUP 0 A     ****
@<TRIPOS>MOLECULE
[[[3,4-dihydroxy-5-(6-imino-1~{H}-purin-9-yl)tetrahydrofuran-2-yl]methoxy-oxido-phosphoryl]oxy-hydroxy-phosphoryl] hydrogen phosphate
   45    47     1     0     0
SMALL
USER_CHARGES

@<TRIPOS>ATOM
      1 PG          0.5862    6.0198    5.6265 P.3       1 ATP         1.5496
      2 O1G         1.9972    6.4178    5.9985 O.co2     1 ATP        -0.8494
      3 O2G         0.1628    4.5678    5.6268 O.co2     1 ATP        -0.8494
      4 O3G        -0.4536    6.8632    6.5611 O.3       1 ATP        -0.7845
      5 PB         -1.1858    6.7202    3.3754 P.3       1 ATP         1.9068
      6 O1B        -2.3191    7.3943    4.0906 O.2       1 ATP        -0.8942
      7 O2B        -0.7884    7.3741    1.9513 O.3       1 ATP        -0.8166
      8 O3B         0.2137    6.6820    4.1833 O.3       1 ATP        -0.8194
      9 PA         -2.5400    4.4094    2.1394 P.3       1 ATP         1.5903
     10 O1A        -2.3768    4.8333    0.6960 O.co2     1 ATP        -0.8519
     11 O2A        -3.8714    4.5574    2.8431 O.co2     1 ATP        -0.8519
     12 O3A        -1.3993    5.1547    3.0391 O.3       1 ATP        -0.8093
     13 O5'        -2.0402    2.8619    2.3130 O.3       1 ATP        -0.5649
     14 C5'        -0.8811    2.4285    1.6206 C.3       1 ATP         0.1979
     15 C4'        -0.1994    1.3333    2.4288 C.3       1 ATP         0.1179
     16 O4'        -1.1285    0.2356    2.5840 O.3       1 ATP        -0.3878
     17 C3'         1.0324    0.7610    1.7344 C.3       1 ATP         0.1185
     18 O3'         1.9175    0.2377    2.7247 O.3       1 ATP        -0.5544
     19 C2'         0.4468   -0.3802    0.9263 C.3       1 ATP         0.0542
     20 O2'         1.3993   -1.3703    0.5961 O.3       1 ATP        -0.5831
     21 C1'        -0.6159   -0.9100    1.8769 C.3       1 ATP         0.2222
     22 N9         -1.7127   -1.6108    1.2130 N.pl3     1 ATP        -0.1887
     23 C8         -1.7690   -2.9583    0.9549 C.ar      1 ATP         0.4447
     24 N7         -2.8827   -3.3076    0.3418 N.2       1 ATP        -0.6159
     25 C5         -3.5683   -2.1351    0.2017 C.ar      1 ATP         0.2195
     26 C6         -4.8617   -1.9185   -0.4044 C.ar      1 ATP         0.6144
     27 N6         -5.5166   -2.9094   -0.8994 N.2       1 ATP        -0.8160
     28 N1         -5.1836   -0.5701   -0.3344 N.pl3     1 ATP        -0.8611
     29 C2         -4.3821    0.4180    0.2330 C.ar      1 ATP         0.6141
     30 N3         -3.2117    0.2488    0.7860 N.2       1 ATP        -0.5913
     31 C4         -2.8672   -1.0657    0.7327 C.ar      1 ATP         0.0067
     32 HOG3       -1.4157    6.7157    6.4392 H         1 ATP         0.4313
     33 HOB2       -1.4637    7.4102    1.2407 H         1 ATP         0.4716
     34 H5'1       -1.1769    2.0503    0.6369 H         1 ATP         0.0452
     35 H5'2       -0.2081    3.2815    1.4877 H         1 ATP         0.0452
     36 H4'         0.0403    1.7078    3.4343 H         1 ATP         0.0998
     37 H3'         1.5906    1.4859    1.1353 H         1 ATP         0.0544
     38 HO3'        2.6839   -0.1150    2.2479 H         1 ATP         0.3961
     39 H2'        -0.0017    0.0018    0.0005 H         1 ATP         0.0499
     40 HO2'        2.0953   -0.9375    0.0709 H         1 ATP         0.4045
     41 H1'        -0.1998   -1.6319    2.6178 H         1 ATP         0.0912
     42 H8         -0.9697   -3.6300    1.2371 H         1 ATP         0.1090
     43 HN62       -6.4060   -2.5723   -1.2840 H         1 ATP         0.3694
     44 H2         -4.8409    1.4176    0.1757 H         1 ATP         0.0371
     45 H45        -6.0768   -0.2826   -0.7263 H         1 ATP         0.4283
@<TRIPOS>BOND
     1    1    2 2
     2    1    3 1
     3    1    4 1
     4    1    8 1
     5    4   32 1
     6    5    6 2
     7    5    7 1
     8    5    8 1
     9    5   12 1
    10    7   33 1
    11    9   10 2
    12    9   11 1
    13    9   12 1
    14    9   13 1
    15   13   14 1
    16   14   15 1
    17   14   34 1
    18   14   35 1
    19   15   16 1
    20   15   17 1
    21   15   36 1
    22   16   21 1
    23   17   18 1
    24   17   19 1
    25   17   37 1
    26   18   38 1
    27   19   20 1
    28   19   21 1
    29   19   39 1
    30   20   40 1
    31   21   22 1
    32   21   41 1
    33   22   23 ar
    34   22   31 ar
    35   23   24 ar
    36   23   42 1
    37   24   25 ar
    38   25   26 ar
    39   25   31 ar
    40   26   27 2
    41   26   28 ar
    42   27   43 1
    43   28   29 ar
    44   28   45 1
    45   29   30 ar
    46   29   44 1
    47   30   31 ar
@<TRIPOS>SUBSTRUCTURE
     1 ATP         1 GROUP 0 A     ****
@<TRIPOS>MOLECULE
[[[3,4-dihydroxy-5-(6-imino-1~{H}-purin-9-yl)tetrahydrofuran-2-yl]methoxy-oxido-phosphoryl]oxy-hydroxy-phosphoryl] hydrogen phosphate
   45    47     1     0     0
SMALL
USER_CHARGES

@<TRIPOS>ATOM
      1 PG         -2.8919    3.9601   -2.9201 P.3       1 ATP         1.5496
      2 O1G        -1.9497    2.8851   -2.4258 O.co2     1 ATP        -0.8494
      3 O2G        -2.4792    4.9071   -4.0247 O.co2     1 ATP        -0.8494
      4 O3G        -4.3047    3.2575   -3.3406 O.3       1 ATP        -0.7845
      5 PB         -2.6209    5.8224   -0.6494 P.3       1 ATP         1.9068
      6 O1B        -1.9685    7.0005   -1.3103 O.2       1 ATP        -0.8942
      7 O2B        -3.7148    6.1906    0.4826 O.3       1 ATP        -0.8166
      8 O3B        -3.4184    4.8286   -1.6439 O.3       1 ATP        -0.8194
      9 PA         -0.5789    5.0299    1.3262 P.3       1 ATP         1.5903
     10 O1A        -1.3654    5.3738    2.5725 O.co2     1 ATP        -0.8519
     11 O2A         0.5326    5.9338    0.8392 O.co2     1 ATP        -0.8519
     12 O3A        -1.6231    4.7921    0.0937 O.3       1 ATP        -0.8093
     13 O5'         0.0180    3.5131    1.4595 O.3       1 ATP        -0.5649
     14 C5'        -0.8811    2.4285    1.6206 C.3       1 ATP         0.1979
     15 C4'        -0.1994    1.3333    2.4288 C.3       1 ATP         0.1179
     16 O4'        -1.1285    0.2356    2.5840 O.3       1 ATP        -0.3878
     17 C3'         1.0324    0.7610    1.7344 C.3       1 ATP         0.1185
     18 O3'         1.9175    0.2377    2.7247 O.3       1 ATP        -0.5544
     19 C2'         0.4468   -0.3802    0.9263 C.3       1 ATP         0.0542
     20 O2'         1.3993   -1.3703    0.5961 O.3       1 ATP        -0.5831
     21 C1'        -0.6159   -0.9100    1.8769 C.3       1 ATP         0.2222
     22 N9         -1.7127   -1.6108    1.2130 N.pl3     1 ATP        -0.1887
     23 C8         -1.7690   -2.9583    0.9549 C.ar      1 ATP         0.4447
     24 N7         -2.8827   -3.3076    0.3418 N.2       1 ATP        -0.6159
     25 C5         -3.5683   -2.1351    0.2017 C.ar      1 ATP         0.2195
     26 C6         -4.8617   -1.9185   -0.4044 C.ar      1 ATP         0.6144
     27 N6         -5.5166   -2.9094   -0.8994 N.2       1 ATP        -0.8160
     28 N1         -5.1836   -0.5701   -0.3344 N.pl3     1 ATP        -0.8611
     29 C2         -4.3821    0.4180    0.2330 C.ar      1 ATP         0.6141
     30 N3         -3.2117    0.2488    0.7860 N.2       1 ATP        -0.5913
     31 C4         -2.8672   -1.0657    0.7327 C.ar      1 ATP         0.0067
     32 HOG3       -5.0254    3.8276   -3.6838 H         1 ATP         0.4313
     33 HOB2       -3.4320    6.7114    1.2643 H         1 ATP         0.4716
     34 H5'1       -1.7770    2.7851    2.1387 H         1 ATP         0.0452
     35 H5'2       -1.1653    2.0543    0.6320 H         1 ATP         0.0452
     36 H4'         0.0403    1.7078    3.4343 H         1 ATP         0.0998
     37 H3'         1.5906    1.4859    1.1353 H         1 ATP         0.0544
     38 HO3'        2.6839   -0.1150    2.2479 H         1 ATP         0.3961
     39 H2'        -0.0017    0.0018    0.0005 H         1 ATP         0.0499
     40 HO2'        2.0953   -0.9375    0.0709 H         1 ATP         0.4045
     41 H1'        -0.1998   -1.6319    2.6178 H         1 ATP         0.0912
     42 H8         -0.9697   -3.6300    1.2371 H         1 ATP         0.1090
     43 HN62       -6.4060   -2.5723   -1.2840 H         1 ATP         0.3694
     44 H2         -4.8409    1.4176    0.1757 H         1 ATP         0.0371
     45 H45        -6.0768   -0.2826   -0.7263 H         1 ATP         0.4283
@<TRIPOS>BOND
     1    1    2 2
     2    1    3 1
     3    1    4 1
     4    1    8 1
     5    4   32 1
     6    5    6 2
     7    5    7 1
     8    5    8 1
     9    5   12 1
    10    7   33 1
    11    9   10 2
    12    9   11 1
    13    9   12 1
    14    9   13 1
    15   13   14 1
    16   14   15 1
    17   14   34 1
    18   14   35 1
    19   15   16 1
    20   15   17 1
    21   15   36 1
    22   16   21 1
    23   17   18 1
    24   17   19 1
    25   17   37 1
    26   18   38 1
    27   19   20 1
    28   19   21 1
    29   19   39 1
    30   20   40 1
    31   21   22 1
    32   21   41 1
    33   22   23 ar
    34   22   31 ar
    35   23   24 ar
    36   23   42 1
    37   24   25 ar
    38   25   26 ar
    39   25   31 ar
    40   26   27 2
    41   26   28 ar
    42   27   43 1
    43   28   29 ar
    44   28   45 1
    45   29   30 ar
    46   29   44 1
    47   30   31 ar
@<TRIPOS>SUBSTRUCTURE
     1 ATP         1 GROUP 0 A     ****
@<TRIPOS>MOLECULE
[[[3,4-dihydroxy-5-(6-imino-1~{H}-purin-9-yl)tetrahydrofuran-2-yl]methoxy-oxido-phosphoryl]oxy-hydroxy-phosphoryl] hydrogen phosphate
   45    47     1     0     0
SMALL
USER_CHARGES

@<TRIPOS>ATOM
      1 PG         -4.3962    5.4990    3.5618 P.3       1 ATP         1.5496
      2 O1G        -3.6550    4.1993    3.7834 O.co2     1 ATP        -0.8494
      3 O2G        -5.6801    5.5348    2.7633 O.co2     1 ATP        -0.8494
      4 O3G        -4.6694    6.1938    5.0140 O.3       1 ATP        -0.7845
      5 PB         -2.6041    6.6540    1.5242 P.3       1 ATP         1.9068
      6 O1B        -3.5045    6.6888    0.3249 O.2       1 ATP        -0.8942
      7 O2B        -1.6037    7.9159    1.6669 O.3       1 ATP        -0.8166
      8 O3B        -3.3598    6.6008    2.9521 O.3       1 ATP        -0.8194
      9 PA         -0.4664    4.8322    0.6228 P.3       1 ATP         1.5903
     10 O1A         0.6558    5.8467    0.5865 O.co2     1 ATP        -0.8519
     11 O2A        -1.1276    4.3642   -0.6553 O.co2     1 ATP        -0.8519
     12 O3A        -1.6298    5.3702    1.6343 O.3       1 ATP        -0.8093
     13 O5'         0.0180    3.5131    1.4595 O.3       1 ATP        -0.5649
     14 C5'        -0.8811    2.4285    1.6206 C.3       1 ATP         0.1979
     15 C4'        -0.1994    1.3333    2.4288 C.3       1 ATP         0.1179
     16 O4'        -1.1285    0.2356    2.5840 O.3       1 ATP        -0.3878
     17 C3'         1.0324    0.7610    1.7344 C.3       1 ATP         0.1185
     18 O3'         1.9175    0.2377    2.7247 O.3       1 ATP        -0.5544
     19 C2'         0.4468   -0.3802    0.9263 C.3       1 ATP         0.0542
     20 O2'         1.3993   -1.3703    0.5961 O.3       1 ATP        -0.5831
     21 C1'        -0.6159   -0.9100    1.8769 C.3       1 ATP         0.2222
     22 N9         -1.7127   -1.6108    1.2130 N.pl3     1 ATP        -0.1887
     23 C8         -1.7690   -2.9583    0.9549 C.ar      1 ATP         0.4447
     24 N7         -2.8827   -3.3076    0.3418 N.2       1 ATP        -0.6159
     25 C5         -3.5683   -2.1351    0.2017 C.ar      1 ATP         0.2195
     26 C6         -4.8617   -1.9185   -0.4044 C.ar      1 ATP         0.6144
     27 N6         -5.5166   -2.9094   -0.8994 N.2       1 ATP        -0.8160
     28 N1         -5.1836   -0.5701   -0.3344 N.pl3     1 ATP        -0.8611
     29 C2         -4.3821    0.4180    0.2330 C.ar      1 ATP         0.6141
     30 N3         -3.2117    0.2488    0.7860 N.2       1 ATP        -0.5913
     31 C4         -2.8672   -1.0657    0.7327 C.ar      1 ATP         0.0067
     32 HOG3       -5.1451    7.0513    5.0390 H         1 ATP         0.4313
     33 HOB2       -0.9562    8.0915    0.9512 H         1 ATP         0.4716
     34 H5'1       -1.7770    2.7851    2.1387 H         1 ATP         0.0452
     35 H5'2       -1.1653    2.0543    0.6320 H         1 ATP         0.0452
     36 H4'         0.0403    1.7078    3.4343 H         1 ATP         0.0998
     37 H3'         1.5906    1.4859    1.1353 H         1 ATP         0.0544
     38 HO3'        2.6839   -0.1150    2.2479 H         1 ATP         0.3961
     39 H2'        -0.0017    0.0018    0.0005 H         1 ATP         0.0499
     40 HO2'        2.0953   -0.9375    0.0709 H         1 ATP         0.4045
     41 H1'        -0.1998   -1.6319    2.6178 H         1 ATP         0.0912
     42 H8         -0.9697   -3.6300    1.2371 H         1 ATP         0.1090
     43 HN62       -6.4060   -2.5723   -1.2840 H         1 ATP         0.3694
     44 H2         -4.8409    1.4176    0.1757 H         1 ATP         0.0371
     45 H45        -6.0768   -0.2826   -0.7263 H         1 ATP         0.4283
@<TRIPOS>BOND
     1    1    2 2
     2    1    3 1
     3    1    4 1
     4    1    8 1
     5    4   32 1
     6    5    6 2
     7    5    7 1
     8    5    8 1
     9    5   12 1
    10    7   33 1
    11    9   10 2
    12    9   11 1
    13    9   12 1
    14    9   13 1
    15   13   14 1
    16   14   15 1
    17   14   34 1
    18   14   35 1
    19   15   16 1
    20   15   17 1
    21   15   36 1
    22   16   21 1
    23   17   18 1
    24   17   19 1
    25   17   37 1
    26   18   38 1
    27   19   20 1
    28   19   21 1
    29   19   39 1
    30   20   40 1
    31   21   22 1
    32   21   41 1
    33   22   23 ar
    34   22   31 ar
    35   23   24 ar
    36   23   42 1
    37   24   25 ar
    38   25   26 ar
    39   25   31 ar
    40   26   27 2
    41   26   28 ar
    42   27   43 1
    43   28   29 ar
    44   28   45 1
    45   29   30 ar
    46   29   44 1
    47   30   31 ar
@<TRIPOS>SUBSTRUCTURE
     1 ATP         1 GROUP 0 A     ****
@<TRIPOS>MOLECULE
[[[3,4-dihydroxy-5-(6-imino-1~{H}-purin-9-yl)tetrahydrofuran-2-yl]methoxy-oxido-phosphoryl]oxy-hydroxy-phosphoryl] hydrogen phosphate
   45    47     1     0     0
SMALL
USER_CHARGES

@<TRIPOS>ATOM
      1 PG          0.7804    2.8497   -4.5784 P.3       1 ATP         1.5496
      2 O1G         1.2428    1.4173   -4.4293 O.co2     1 ATP        -0.8494
      3 O2G         1.7178    3.9192   -5.0930 O.co2     1 ATP        -0.8494
      4 O3G        -0.5739    2.8648   -5.4904 O.3       1 ATP        -0.7845
      5 PB          0.8212    3.5954   -1.7253 P.3       1 ATP         1.9068
      6 O1B         1.4841    2.3955   -1.1161 O.2       1 ATP        -0.8942
      7 O2B         1.7949    4.8604   -1.9808 O.3       1 ATP        -0.8166
      8 O3B         0.1324    3.3451   -3.1660 O.3       1 ATP        -0.8194
      9 PA         -0.4664    4.8322    0.6228 P.3       1 ATP         1.5903
     10 O1A        -1.9047    5.1495    0.9699 O.co2     1 ATP        -0.8519
     11 O2A         0.6096    5.8893    0.7433 O.co2     1 ATP        -0.8519
     12 O3A        -0.4131    4.2167   -0.8886 O.3       1 ATP        -0.8093
     13 O5'         0.0180    3.5131    1.4595 O.3       1 ATP        -0.5649
     14 C5'        -0.8811    2.4285    1.6206 C.3       1 ATP         0.1979
     15 C4'        -0.1994    1.3333    2.4288 C.3       1 ATP         0.1179
     16 O4'        -1.1285    0.2356    2.5840 O.3       1 ATP        -0.3878
     17 C3'         1.0324    0.7610    1.7344 C.3       1 ATP         0.1185
     18 O3'         1.9175    0.2377    2.7247 O.3       1 ATP        -0.5544
     19 C2'         0.4468   -0.3802    0.9263 C.3       1 ATP         0.0542
     20 O2'         1.3993   -1.3703    0.5961 O.3       1 ATP        -0.5831
     21 C1'        -0.6159   -0.9100    1.8769 C.3       1 ATP         0.2222
     22 N9         -1.7127   -1.6108    1.2130 N.pl3     1 ATP        -0.1887
     23 C8         -2.8662   -1.0361    0.7388 C.ar      1 ATP         0.4447
     24 N7         -3.6774   -1.9166    0.1867 N.2       1 ATP        -0.6159
     25 C5         -3.0159   -3.1045    0.3123 C.ar      1 ATP         0.2195
     26 C6         -3.4377   -4.4169   -0.1199 C.ar      1 ATP         0.6144
     27 N6         -4.5720   -4.5691   -0.7080 N.2       1 ATP        -0.8160
     28 N1         -2.4600   -5.3463    0.2071 N.pl3     1 ATP        -0.8611
     29 C2         -1.2595   -5.0554    0.8515 C.ar      1 ATP         0.6141
     30 N3         -0.8555   -3.8803    1.2516 N.2       1 ATP        -0.5913
     31 C4         -1.7946   -2.9457    0.9448 C.ar      1 ATP         0.0067
     32 HOG3       -0.9997    3.7280   -5.6794 H         1 ATP         0.4313
     33 HOB2        2.2541    5.2679   -1.2157 H         1 ATP         0.4716
     34 H5'1       -1.7770    2.7851    2.1387 H         1 ATP         0.0452
     35 H5'2       -1.1653    2.0543    0.6320 H         1 ATP         0.0452
     36 H4'         0.0403    1.7078    3.4343 H         1 ATP         0.0998
     37 H3'         1.5906    1.4859    1.1353 H         1 ATP         0.0544
     38 HO3'        2.6839   -0.1150    2.2479 H         1 ATP         0.3961
     39 H2'        -0.0017    0.0018    0.0005 H         1 ATP         0.0499
     40 HO2'        2.0953   -0.9375    0.0709 H         1 ATP         0.4045
     41 H1'        -0.1998   -1.6319    2.6178 H         1 ATP         0.0912
     42 H8         -3.0558    0.0252    0.8256 H         1 ATP         0.1090
     43 HN62       -4.7047   -5.5592   -0.9421 H         1 ATP         0.3694
     44 H2         -0.6372   -5.9505    1.0077 H         1 ATP         0.0371
     45 H45        -2.6338   -6.3155   -0.0469 H         1 ATP         0.4283
@<TRIPOS>BOND
     1    1    2 2
     2    1    3 1
     3    1    4 1
     4    1    8 1
     5    4   32 1
     6    5    6 2
     7    5    7 1
     8    5    8 1
     9    5   12 1
    10    7   33 1
    11    9   10 2
    12    9   11 1
    13    9   12 1
    14    9   13 1
    15   13   14 1
    16   14   15 1
    17   14   34 1
    18   14   35 1
    19   15   16 1
    20   15   17 1
    21   15   36 1
    22   16   21 1
    23   17   18 1
    24   17   19 1
    25   17   37 1
    26   18   38 1
    27   19   20 1
    28   19   21 1
    29   19   39 1
    30   20   40 1
    31   21   22 1
    32   21   41 1
    33   22   23 ar
    34   22   31 ar
    35   23   24 ar
    36   23   42 1
    37   24   25 ar
    38   25   26 ar
    39   25   31 ar
    40   26   27 2
    41   26   28 ar
    42   27   43 1
    43   28   29 ar
    44   28   45 1
    45   29   30 ar
    46   29   44 1
    47   30   31 ar
@<TRIPOS>SUBSTRUCTURE
     1 ATP         1 GROUP 0 A     ****
@<TRIPOS>MOLECULE
[[[3,4-dihydroxy-5-(6-imino-1~{H}-purin-9-yl)tetrahydrofuran-2-yl]methoxy-oxido-phosphoryl]oxy-hydroxy-phosphoryl] hydrogen phosphate
   45    47     1     0     0
SMALL
USER_CHARGES

@<TRIPOS>ATOM
      1 PG          2.7546    5.3867   -3.8201 P.3       1 ATP         1.5496
      2 O1G         1.8013    6.1245   -4.7336 O.co2     1 ATP        -0.8494
      3 O2G         3.6970    4.3368   -4.3651 O.co2     1 ATP        -0.8494
      4 O3G         3.6288    6.4855   -2.9867 O.3       1 ATP        -0.7845
      5 PB          0.7981    3.5771   -2.5569 P.3       1 ATP         1.9068
      6 O1B        -0.4243    3.8392   -3.3859 O.2       1 ATP        -0.8942
      7 O2B         1.6309    2.2524   -2.9636 O.3       1 ATP        -0.8166
      8 O3B         1.9100    4.7502   -2.5784 O.3       1 ATP        -0.8194
      9 PA         -0.0887    4.4443    0.1194 P.3       1 ATP         1.5903
     10 O1A        -1.5453    4.6749   -0.2200 O.co2     1 ATP        -0.8519
     11 O2A         0.8624    5.6106    0.2776 O.co2     1 ATP        -0.8519
     12 O3A         0.5479    3.4080   -0.9700 O.3       1 ATP        -0.8093
     13 O5'         0.0180    3.5131    1.4595 O.3       1 ATP        -0.5649
     14 C5'        -0.8811    2.4285    1.6206 C.3       1 ATP         0.1979
     15 C4'        -0.1994    1.3333    2.4288 C.3       1 ATP         0.1179
     16 O4'        -1.1285    0.2356    2.5840 O.3       1 ATP        -0.3878
     17 C3'         1.0324    0.7610    1.7344 C.3       1 ATP         0.1185
     18 O3'         1.9175    0.2377    2.7247 O.3       1 ATP        -0.5544
     19 C2'         0.4468   -0.3802    0.9263 C.3       1 ATP         0.0542
     20 O2'         1.3993   -1.3703    0.5961 O.3       1 ATP        -0.5831
     21 C1'        -0.6159   -0.9100    1.8769 C.3       1 ATP         0.2222
     22 N9         -1.7127   -1.6108    1.2130 N.pl3     1 ATP        -0.1887
     23 C8         -1.7690   -2.9583    0.9549 C.ar      1 ATP         0.4447
     24 N7         -2.8827   -3.3076    0.3418 N.2       1 ATP        -0.6159
     25 C5         -3.5683   -2.1351    0.2017 C.ar      1 ATP         0.2195
     26 C6         -4.8617   -1.9185   -0.4044 C.ar      1 ATP         0.6144
     27 N6         -5.5166   -2.9094   -0.8994 N.2       1 ATP        -0.8160
     28 N1         -5.1836   -0.5701   -0.3344 N.pl3     1 ATP        -0.8611
     29 C2         -4.3821    0.4180    0.2330 C.ar      1 ATP         0.6141
     30 N3         -3.2117    0.2488    0.7860 N.2       1 ATP        -0.5913
     31 C4         -2.8672   -1.0657    0.7327 C.ar      1 ATP         0.0067
     32 HOG3        4.2975    6.1615   -2.3463 H         1 ATP         0.4313
     33 HOB2        1.1847    1.3798   -2.9211 H         1 ATP         0.4716
     34 H5'1       -1.7770    2.7851    2.1387 H         1 ATP         0.0452
     35 H5'2       -1.1653    2.0543    0.6320 H         1 ATP         0.0452
     36 H4'         0.0403    1.7078    3.4343 H         1 ATP         0.0998
     37 H3'         1.5906    1.4859    1.1353 H         1 ATP         0.0544
     38 HO3'        2.6839   -0.1150    2.2479 H         1 ATP         0.3961
     39 H2'        -0.0017    0.0018    0.0005 H         1 ATP         0.0499
     40 HO2'        2.0953   -0.9375    0.0709 H         1 ATP         0.4045
     41 H1'        -0.1998   -1.6319    2.6178 H         1 ATP         0.0912
     42 H8         -0.9697   -3.6300    1.2371 H         1 ATP         0.1090
     43 HN62       -6.4060   -2.5723   -1.2840 H         1 ATP         0.3694
     44 H2         -4.8409    1.4176    0.1757 H         1 ATP         0.0371
     45 H45        -6.0768   -0.2826   -0.7263 H         1 ATP         0.4283
@<TRIPOS>BOND
     1    1    2 2
     2    1    3 1
     3    1    4 1
     4    1    8 1
     5    4   32 1
     6    5    6 2
     7    5    7 1
     8    5    8 1
     9    5   12 1
    10    7   33 1
    11    9   10 2
    12    9   11 1
    13    9   12 1
    14    9   13 1
    15   13   14 1
    16   14   15 1
    17   14   34 1
    18   14   35 1
    19   15   16 1
    20   15   17 1
    21   15   36 1
    22   16   21 1
    23   17   18 1
    24   17   19 1
    25   17   37 1
    26   18   38 1
    27   19   20 1
    28   19   21 1
    29   19   39 1
    30   20   40 1
    31   21   22 1
    32   21   41 1
    33   22   23 ar
    34   22   31 ar
    35   23   24 ar
    36   23   42 1
    37   24   25 ar
    38   25   26 ar
    39   25   31 ar
    40   26   27 2
    41   26   28 ar
    42   27   43 1
    43   28   29 ar
    44   28   45 1
    45   29   30 ar
    46   29   44 1
    47   30   31 ar
@<TRIPOS>SUBSTRUCTURE
     1 ATP         1 GROUP 0 A     ****
@<TRIPOS>MOLECULE
[[[3,4-dihydroxy-5-(6-imino-1~{H}-purin-9-yl)tetrahydrofuran-2-yl]methoxy-oxido-phosphoryl]oxy-hydroxy-phosphoryl] hydrogen phosphate
   45    47     1     0     0
SMALL
USER_CHARGES

@<TRIPOS>ATOM
      1 PG         -1.0618    2.3254   -3.6065 P.3       1 ATP         1.5496
      2 O1G        -2.3496    2.7647   -2.9459 O.co2     1 ATP        -0.8494
      3 O2G        -0.5680    0.9018   -3.4760 O.co2     1 ATP        -0.8494
      4 O3G        -1.1377    2.7043   -5.1929 O.3       1 ATP        -0.7845
      5 PB          0.8212    3.5954   -1.7253 P.3       1 ATP         1.9068
      6 O1B         1.4841    2.3955   -1.1161 O.2       1 ATP        -0.8942
      7 O2B         1.7949    4.8604   -1.9808 O.3       1 ATP        -0.8166
      8 O3B         0.1324    3.3451   -3.1660 O.3       1 ATP        -0.8194
      9 PA         -0.4664    4.8322    0.6228 P.3       1 ATP         1.5903
     10 O1A        -1.9047    5.1495    0.9699 O.co2     1 ATP        -0.8519
     11 O2A         0.6096    5.8893    0.7433 O.co2     1 ATP        -0.8519
     12 O3A        -0.4131    4.2167   -0.8886 O.3       1 ATP        -0.8093
     13 O5'         0.0180    3.5131    1.4595 O.3       1 ATP        -0.5649
     14 C5'        -0.8811    2.4285    1.6206 C.3       1 ATP         0.1979
     15 C4'        -0.1994    1.3333    2.4288 C.3       1 ATP         0.1179
     16 O4'        -1.1285    0.2356    2.5840 O.3       1 ATP        -0.3878
     17 C3'         1.0324    0.7610    1.7344 C.3       1 ATP         0.1185
     18 O3'         1.9175    0.2377    2.7247 O.3       1 ATP        -0.5544
     19 C2'         0.4468   -0.3802    0.9263 C.3       1 ATP         0.0542
     20 O2'         1.3993   -1.3703    0.5961 O.3       1 ATP        -0.5831
     21 C1'        -0.6159   -0.9100    1.8769 C.3       1 ATP         0.2222
     22 N9         -1.7127   -1.6108    1.2130 N.pl3     1 ATP        -0.1887
     23 C8         -1.7690   -2.9583    0.9549 C.ar      1 ATP         0.4447
     24 N7         -2.8827   -3.3076    0.3418 N.2       1 ATP        -0.6159
     25 C5         -3.5683   -2.1351    0.2017 C.ar      1 ATP         0.2195
     26 C6         -4.8617   -1.9185   -0.4044 C.ar      1 ATP         0.6144
     27 N6         -5.5166   -2.9094   -0.8994 N.2       1 ATP        -0.8160
     28 N1         -5.1836   -0.5701   -0.3344 N.pl3     1 ATP        -0.8611
     29 C2         -4.3821    0.4180    0.2330 C.ar      1 ATP         0.6141
     30 N3         -3.2117    0.2488    0.7860 N.2       1 ATP        -0.5913
     31 C4         -2.8672   -1.0657    0.7327 C.ar      1 ATP         0.0067
     32 HOG3       -0.3714    2.4814   -5.7632 H         1 ATP         0.4313
     33 HOB2        2.5683    4.7517   -2.5744 H         1 ATP         0.4716
     34 H5'1       -1.7770    2.7851    2.1387 H         1 ATP         0.0452
     35 H5'2       -1.1653    2.0543    0.6320 H         1 ATP         0.0452
     36 H4'         0.0403    1.7078    3.4343 H         1 ATP         0.0998
     37 H3'         1.5906    1.4859    1.1353 H         1 ATP         0.0544
     38 HO3'        2.1521    0.9800    3.3017 H         1 ATP         0.3961
     39 H2'        -0.0017    0.0018    0.0005 H         1 ATP         0.0499
     40 HO2'        0.9369   -2.0558    0.0825 H         1 ATP         0.4045
     41 H1'        -0.1998   -1.6319    2.6178 H         1 ATP         0.0912
     42 H8         -0.9697   -3.6300    1.2371 H         1 ATP         0.1090
     43 HN62       -6.4060   -2.5723   -1.2840 H         1 ATP         0.3694
     44 H2         -4.8409    1.4176    0.1757 H         1 ATP         0.0371
     45 H45        -6.0768   -0.2826   -0.7263 H         1 ATP         0.4283
@<TRIPOS>BOND
     1    1    2 2
     2    1    3 1
     3    1    4 1
     4    1    8 1
     5    4   32 1
     6    5    6 2
     7    5    7 1
     8    5    8 1
     9    5   12 1
    10    7   33 1
    11    9   10 2
    12    9   11 1
    13    9   12 1
    14    9   13 1
    15   13   14 1
    16   14   15 1
    17   14   34 1
    18   14   35 1
    19   15   16 1
    20   15   17 1
    21   15   36 1
    22   16   21 1
    23   17   18 1
    24   17   19 1
    25   17   37 1
    26   18   38 1
    27   19   20 1
    28   19   21 1
    29   19   39 1
    30   20   40 1
    31   21   22 1
    32   21   41 1
    33   22   23 ar
    34   22   31 ar
    35   23   24 ar
    36   23   42 1
    37   24   25 ar
    38   25   26 ar
    39   25   31 ar
    40   26   27 2
    41   26   28 ar
    42   27   43 1
    43   28   29 ar
    44   28   45 1
    45   29   30 ar
    46   29   44 1
    47   30   31 ar
@<TRIPOS>SUBSTRUCTURE
     1 ATP         1 GROUP 0 A     ****
@<TRIPOS>MOLECULE
[[[3,4-dihydroxy-5-(6-imino-1~{H}-purin-9-yl)tetrahydrofuran-2-yl]methoxy-oxido-phosphoryl]oxy-hydroxy-phosphoryl] hydrogen phosphate
   45    47     1     0     0
SMALL
USER_CHARGES

@<TRIPOS>ATOM
      1 PG         -3.0170    4.6616    5.6211 P.3       1 ATP         1.5496
      2 O1G        -2.9674    4.7124    7.1319 O.co2     1 ATP        -0.8494
      3 O2G        -2.6424    3.4014    4.8734 O.co2     1 ATP        -0.8494
      4 O3G        -4.5039    5.1299    5.1354 O.3       1 ATP        -0.7845
      5 PB         -1.9874    6.4367    3.5029 P.3       1 ATP         1.9068
      6 O1B        -3.2586    6.8564    2.8259 O.2       1 ATP        -0.8942
      7 O2B        -0.8603    7.5898    3.6199 O.3       1 ATP        -0.8166
      8 O3B        -2.1567    5.9110    5.0221 O.3       1 ATP        -0.8194
      9 PA         -0.5789    5.0299    1.3262 P.3       1 ATP         1.5903
     10 O1A         0.5634    6.0091    1.1644 O.co2     1 ATP        -0.8519
     11 O2A        -1.7206    5.0026    0.3335 O.co2     1 ATP        -0.8519
     12 O3A        -1.2065    5.1960    2.8244 O.3       1 ATP        -0.8093
     13 O5'         0.0180    3.5131    1.4595 O.3       1 ATP        -0.5649
     14 C5'        -0.8811    2.4285    1.6206 C.3       1 ATP         0.1979
     15 C4'        -0.1994    1.3333    2.4288 C.3       1 ATP         0.1179
     16 O4'        -1.1285    0.2356    2.5840 O.3       1 ATP        -0.3878
     17 C3'         1.0324    0.7610    1.7344 C.3       1 ATP         0.1185
     18 O3'         1.9175    0.2377    2.7247 O.3       1 ATP        -0.5544
     19 C2'         0.4468   -0.3802    0.9263 C.3       1 ATP         0.0542
     20 O2'         1.3993   -1.3703    0.5961 O.3       1 ATP        -0.5831
     21 C1'        -0.6159   -0.9100    1.8769 C.3       1 ATP         0.2222
     22 N9         -1.7127   -1.6108    1.2130 N.pl3     1 ATP        -0.1887
     23 C8         -2.8662   -1.0361    0.7388 C.ar      1 ATP         0.4447
     24 N7         -3.6774   -1.9166    0.1867 N.2       1 ATP        -0.6159
     25 C5         -3.0159   -3.1045    0.3123 C.ar      1 ATP         0.2195
     26 C6         -3.4377   -4.4169   -0.1199 C.ar      1 ATP         0.6144
     27 N6         -4.5720   -4.5691   -0.7080 N.2       1 ATP        -0.8160
     28 N1         -2.4600   -5.3463    0.2071 N.pl3     1 ATP        -0.8611
     29 C2         -1.2595   -5.0554    0.8515 C.ar      1 ATP         0.6141
     30 N3         -0.8555   -3.8803    1.2516 N.2       1 ATP        -0.5913
     31 C4         -1.7946   -2.9457    0.9448 C.ar      1 ATP         0.0067
     32 HOG3       -4.6958    5.1504    4.1736 H         1 ATP         0.4313
     33 HOB2       -0.5102    7.9961    2.7986 H         1 ATP         0.4716
     34 H5'1       -1.7770    2.7851    2.1387 H         1 ATP         0.0452
     35 H5'2       -1.1653    2.0543    0.6320 H         1 ATP         0.0452
     36 H4'         0.0403    1.7078    3.4343 H         1 ATP         0.0998
     37 H3'         1.5906    1.4859    1.1353 H         1 ATP         0.0544
     38 HO3'        2.1521    0.9800    3.3017 H         1 ATP         0.3961
     39 H2'        -0.0017    0.0018    0.0005 H         1 ATP         0.0499
     40 HO2'        2.0953   -0.9375    0.0709 H         1 ATP         0.4045
     41 H1'        -0.1998   -1.6319    2.6178 H         1 ATP         0.0912
     42 H8         -3.0558    0.0252    0.8256 H         1 ATP         0.1090
     43 HN62       -4.7047   -5.5592   -0.9421 H         1 ATP         0.3694
     44 H2         -0.6372   -5.9505    1.0077 H         1 ATP         0.0371
     45 H45        -2.6338   -6.3155   -0.0469 H         1 ATP         0.4283
@<TRIPOS>BOND
     1    1    2 2
     2    1    3 1
     3    1    4 1
     4    1    8 1
     5    4   32 1
     6    5    6 2
     7    5    7 1
     8    5    8 1
     9    5   12 1
    10    7   33 1
    11    9   10 2
    12    9   11 1
    13    9   12 1
    14    9   13 1
    15   13   14 1
    16   14   15 1
    17   14   34 1
    18   14   35 1
    19   15   16 1
    20   15   17 1
    21   15   36 1
    22   16   21 1
    23   17   18 1
    24   17   19 1
    25   17   37 1
    26   18   38 1
    27   19   20 1
    28   19   21 1
    29   19   39 1
    30   20   40 1
    31   21   22 1
    32   21   41 1
    33   22   23 ar
    34   22   31 ar
    35   23   24 ar
    36   23   42 1
    37   24   25 ar
    38   25   26 ar
    39   25   31 ar
    40   26   27 2
    41   26   28 ar
    42   27   43 1
    43   28   29 ar
    44   28   45 1
    45   29   30 ar
    46   29   44 1
    47   30   31 ar
@<TRIPOS>SUBSTRUCTURE
     1 ATP         1 GROUP 0 A     ****
@<TRIPOS>MOLECULE
[[[3,4-dihydroxy-5-(6-imino-1~{H}-purin-9-yl)tetrahydrofuran-2-yl]methoxy-oxido-phosphoryl]oxy-hydroxy-phosphoryl] hydrogen phosphate
   45    47     1     0     0
SMALL
USER_CHARGES

@<TRIPOS>ATOM
      1 PG          1.5792    6.3002    4.1351 P.3       1 ATP         1.5496
      2 O1G         2.2690    7.4890    4.7664 O.co2     1 ATP        -0.8494
      3 O2G         1.4797    6.1678    2.6318 O.co2     1 ATP        -0.8494
      4 O3G         2.2479    4.9356    4.7325 O.3       1 ATP        -0.7845
      5 PB         -1.0209    4.9885    4.6007 P.3       1 ATP         1.9068
      6 O1B        -0.5875    3.6164    5.0246 O.2       1 ATP        -0.8942
      7 O2B        -2.3131    5.5700    5.3790 O.3       1 ATP        -0.8166
      8 O3B         0.0898    6.1489    4.7821 O.3       1 ATP        -0.8194
      9 PA         -2.5400    4.4094    2.1394 P.3       1 ATP         1.5903
     10 O1A        -2.3768    4.8333    0.6960 O.co2     1 ATP        -0.8519
     11 O2A        -3.8714    4.5574    2.8431 O.co2     1 ATP        -0.8519
     12 O3A        -1.3993    5.1547    3.0391 O.3       1 ATP        -0.8093
     13 O5'        -2.0402    2.8619    2.3130 O.3       1 ATP        -0.5649
     14 C5'        -0.8811    2.4285    1.6206 C.3       1 ATP         0.1979
     15 C4'        -0.1994    1.3333    2.4288 C.3       1 ATP         0.1179
     16 O4'        -1.1285    0.2356    2.5840 O.3       1 ATP        -0.3878
     17 C3'         1.0324    0.7610    1.7344 C.3       1 ATP         0.1185
     18 O3'         1.9175    0.2377    2.7247 O.3       1 ATP        -0.5544
     19 C2'         0.4468   -0.3802    0.9263 C.3       1 ATP         0.0542
     20 O2'         1.3993   -1.3703    0.5961 O.3       1 ATP        -0.5831
     21 C1'        -0.6159   -0.9100    1.8769 C.3       1 ATP         0.2222
     22 N9         -1.7127   -1.6108    1.2130 N.pl3     1 ATP        -0.1887
     23 C8         -2.5485   -1.0808    0.2609 C.ar      1 ATP         0.4447
     24 N7         -3.4476   -1.9486   -0.1593 N.2       1 ATP        -0.6159
     25 C5         -3.1762   -3.0816    0.5530 C.ar      1 ATP         0.2195
     26 C6         -3.8510   -4.3579    0.5006 C.ar      1 ATP         0.6144
     27 N6         -4.8468   -4.5293   -0.2961 N.2       1 ATP        -0.8160
     28 N1         -3.2499   -5.2342    1.3937 N.pl3     1 ATP        -0.8611
     29 C2         -2.1646   -4.9275    2.2116 C.ar      1 ATP         0.6141
     30 N3         -1.5382   -3.7840    2.2778 N.2       1 ATP        -0.5913
     31 C4         -2.1054   -2.9018    1.4120 C.ar      1 ATP         0.0067
     32 HOG3        1.9059    4.0718    4.4179 H         1 ATP         0.4313
     33 HOB2       -3.1609    5.0798    5.3231 H         1 ATP         0.4716
     34 H5'1       -1.1769    2.0503    0.6369 H         1 ATP         0.0452
     35 H5'2       -0.2081    3.2815    1.4877 H         1 ATP         0.0452
     36 H4'         0.0403    1.7078    3.4343 H         1 ATP         0.0998
     37 H3'         1.5906    1.4859    1.1353 H         1 ATP         0.0544
     38 HO3'        2.6839   -0.1150    2.2479 H         1 ATP         0.3961
     39 H2'        -0.0017    0.0018    0.0005 H         1 ATP         0.0499
     40 HO2'        2.0953   -0.9375    0.0709 H         1 ATP         0.4045
     41 H1'        -0.1998   -1.6319    2.6178 H         1 ATP         0.0912
     42 H8         -2.4515   -0.0599   -0.0829 H         1 ATP         0.1090
     43 HN62       -5.1990   -5.4882   -0.2004 H         1 ATP         0.3694
     44 H2         -1.8555   -5.7783    2.8388 H         1 ATP         0.0371
     45 H45        -3.6312   -6.1750    1.4526 H         1 ATP         0.4283
@<TRIPOS>BOND
     1    1    2 2
     2    1    3 1
     3    1    4 1
     4    1    8 1
     5    4   32 1
     6    5    6 2
     7    5    7 1
     8    5    8 1
     9    5   12 1
    10    7   33 1
    11    9   10 2
    12    9   11 1
    13    9   12 1
    14    9   13 1
    15   13   14 1
    16   14   15 1
    17   14   34 1
    18   14   35 1
    19   15   16 1
    20   15   17 1
    21   15   36 1
    22   16   21 1
    23   17   18 1
    24   17   19 1
    25   17   37 1
    26   18   38 1
    27   19   20 1
    28   19   21 1
    29   19   39 1
    30   20   40 1
    31   21   22 1
    32   21   41 1
    33   22   23 ar
    34   22   31 ar
    35   23   24 ar
    36   23   42 1
    37   24   25 ar
    38   25   26 ar
    39   25   31 ar
    40   26   27 2
    41   26   28 ar
    42   27   43 1
    43   28   29 ar
    44   28   45 1
    45   29   30 ar
    46   29   44 1
    47   30   31 ar
@<TRIPOS>SUBSTRUCTURE
     1 ATP         1 GROUP 0 A     ****
@<TRIPOS>MOLECULE
[[[3,4-dihydroxy-5-(6-imino-1~{H}-purin-9-yl)tetrahydrofuran-2-yl]methoxy-oxido-phosphoryl]oxy-hydroxy-phosphoryl] hydrogen phosphate
   45    47     1     0     0
SMALL
USER_CHARGES

@<TRIPOS>ATOM
      1 PG         -5.6345    2.0184   -2.9580 P.3       1 ATP         1.5496
      2 O1G        -7.0595    2.3906   -2.6140 O.co2     1 ATP        -0.8494
      3 O2G        -5.2949    0.6376   -3.4734 O.co2     1 ATP        -0.8494
      4 O3G        -5.0499    3.1224   -4.0095 O.3       1 ATP        -0.7845
      5 PB         -4.4970    3.7294   -0.8423 P.3       1 ATP         1.9068
      6 O1B        -4.0308    4.9124   -1.6383 O.2       1 ATP        -0.8942
      7 O2B        -5.9243    3.9176   -0.1070 O.3       1 ATP        -0.8166
      8 O3B        -4.6767    2.3606   -1.6830 O.3       1 ATP        -0.8194
      9 PA         -2.9646    4.0417    1.6588 P.3       1 ATP         1.5903
     10 O1A        -4.1352    4.3308    2.5732 O.co2     1 ATP        -0.8519
     11 O2A        -2.0510    5.1559    1.1963 O.co2     1 ATP        -0.8519
     12 O3A        -3.5097    3.2459    0.3413 O.3       1 ATP        -0.8093
     13 O5'        -2.0402    2.8619    2.3130 O.3       1 ATP        -0.5649
     14 C5'        -0.8811    2.4285    1.6206 C.3       1 ATP         0.1979
     15 C4'        -0.1994    1.3333    2.4288 C.3       1 ATP         0.1179
     16 O4'        -1.1285    0.2356    2.5840 O.3       1 ATP        -0.3878
     17 C3'         1.0324    0.7610    1.7344 C.3       1 ATP         0.1185
     18 O3'         1.9175    0.2377    2.7247 O.3       1 ATP        -0.5544
     19 C2'         0.4468   -0.3802    0.9263 C.3       1 ATP         0.0542
     20 O2'         1.3993   -1.3703    0.5961 O.3       1 ATP        -0.5831
     21 C1'        -0.6159   -0.9100    1.8769 C.3       1 ATP         0.2222
     22 N9         -1.7127   -1.6108    1.2130 N.pl3     1 ATP        -0.1887
     23 C8         -2.8662   -1.0361    0.7388 C.ar      1 ATP         0.4447
     24 N7         -3.6774   -1.9166    0.1867 N.2       1 ATP        -0.6159
     25 C5         -3.0159   -3.1045    0.3123 C.ar      1 ATP         0.2195
     26 C6         -3.4377   -4.4169   -0.1199 C.ar      1 ATP         0.6144
     27 N6         -4.5720   -4.5691   -0.7080 N.2       1 ATP        -0.8160
     28 N1         -2.4600   -5.3463    0.2071 N.pl3     1 ATP        -0.8611
     29 C2         -1.2595   -5.0554    0.8515 C.ar      1 ATP         0.6141
     30 N3         -0.8555   -3.8803    1.2516 N.2       1 ATP        -0.5913
     31 C4         -1.7946   -2.9457    0.9448 C.ar      1 ATP         0.0067
     32 HOG3       -5.0137    4.0614   -3.7282 H         1 ATP         0.4313
     33 HOB2       -6.7186    4.1015   -0.6525 H         1 ATP         0.4716
     34 H5'1       -1.1769    2.0503    0.6369 H         1 ATP         0.0452
     35 H5'2       -0.2081    3.2815    1.4877 H         1 ATP         0.0452
     36 H4'         0.0403    1.7078    3.4343 H         1 ATP         0.0998
     37 H3'         1.5906    1.4859    1.1353 H         1 ATP         0.0544
     38 HO3'        2.1521    0.9800    3.3017 H         1 ATP         0.3961
     39 H2'        -0.0017    0.0018    0.0005 H         1 ATP         0.0499
     40 HO2'        0.9369   -2.0558    0.0825 H         1 ATP         0.4045
     41 H1'        -0.1998   -1.6319    2.6178 H         1 ATP         0.0912
     42 H8         -3.0558    0.0252    0.8256 H         1 ATP         0.1090
     43 HN62       -4.7047   -5.5592   -0.9421 H         1 ATP         0.3694
     44 H2         -0.6372   -5.9505    1.0077 H         1 ATP         0.0371
     45 H45        -2.6338   -6.3155   -0.0469 H         1 ATP         0.4283
@<TRIPOS>BOND
     1    1    2 2
     2    1    3 1
     3    1    4 1
     4    1    8 1
     5    4   32 1
     6    5    6 2
     7    5    7 1
     8    5    8 1
     9    5   12 1
    10    7   33 1
    11    9   10 2
    12    9   11 1
    13    9   12 1
    14    9   13 1
    15   13   14 1
    16   14   15 1
    17   14   34 1
    18   14   35 1
    19   15   16 1
    20   15   17 1
    21   15   36 1
    22   16   21 1
    23   17   18 1
    24   17   19 1
    25   17   37 1
    26   18   38 1
    27   19   20 1
    28   19   21 1
    29   19   39 1
    30   20   40 1
    31   21   22 1
    32   21   41 1
    33   22   23 ar
    34   22   31 ar
    35   23   24 ar
    36   23   42 1
    37   24   25 ar
    38   25   26 ar
    39   25   31 ar
    40   26   27 2
    41   26   28 ar
    42   27   43 1
    43   28   29 ar
    44   28   45 1
    45   29   30 ar
    46   29   44 1
    47   30   31 ar
@<TRIPOS>SUBSTRUCTURE
     1 ATP         1 GROUP 0 A     ****
@<TRIPOS>MOLECULE
[[[3,4-dihydroxy-5-(6-imino-1~{H}-purin-9-yl)tetrahydrofuran-2-yl]methoxy-oxido-phosphoryl]oxy-hydroxy-phosphoryl] hydrogen phosphate
   45    47     1     0     0
SMALL
USER_CHARGES

@<TRIPOS>ATOM
      1 PG         -1.7583    9.4334    1.0169 P.3       1 ATP         1.5496
      2 O1G        -2.4167   10.0773    2.2167 O.co2     1 ATP        -0.8494
      3 O2G        -2.3466    9.5872   -0.3679 O.co2     1 ATP        -0.8494
      4 O3G        -0.1946    9.9011    0.9706 O.3       1 ATP        -0.7845
      5 PB         -2.6041    6.6540    1.5242 P.3       1 ATP         1.9068
      6 O1B        -3.5675    6.8411    2.6587 O.2       1 ATP        -0.8942
      7 O2B        -3.2842    6.5032    0.0653 O.3       1 ATP        -0.8166
      8 O3B        -1.5326    7.8479    1.3258 O.3       1 ATP        -0.8194
      9 PA         -0.4664    4.8322    0.6228 P.3       1 ATP         1.5903
     10 O1A         0.6558    5.8467    0.5865 O.co2     1 ATP        -0.8519
     11 O2A        -1.1276    4.3642   -0.6553 O.co2     1 ATP        -0.8519
     12 O3A        -1.6298    5.3702    1.6343 O.3       1 ATP        -0.8093
     13 O5'         0.0180    3.5131    1.4595 O.3       1 ATP        -0.5649
     14 C5'        -0.8811    2.4285    1.6206 C.3       1 ATP         0.1979
     15 C4'        -0.1994    1.3333    2.4288 C.3       1 ATP         0.1179
     16 O4'        -1.1285    0.2356    2.5840 O.3       1 ATP        -0.3878
     17 C3'         1.0324    0.7610    1.7344 C.3       1 ATP         0.1185
     18 O3'         1.9175    0.2377    2.7247 O.3       1 ATP        -0.5544
     19 C2'         0.4468   -0.3802    0.9263 C.3       1 ATP         0.0542
     20 O2'         1.3993   -1.3703    0.5961 O.3       1 ATP        -0.5831
     21 C1'        -0.6159   -0.9100    1.8769 C.3       1 ATP         0.2222
     22 N9         -1.7127   -1.6108    1.2130 N.pl3     1 ATP        -0.1887
     23 C8         -2.8662   -1.0361    0.7388 C.ar      1 ATP         0.4447
     24 N7         -3.6774   -1.9166    0.1867 N.2       1 ATP        -0.6159
     25 C5         -3.0159   -3.1045    0.3123 C.ar      1 ATP         0.2195
     26 C6         -3.4377   -4.4169   -0.1199 C.ar      1 ATP         0.6144
     27 N6         -4.5720   -4.5691   -0.7080 N.2       1 ATP        -0.8160
     28 N1         -2.4600   -5.3463    0.2071 N.pl3     1 ATP        -0.8611
     29 C2         -1.2595   -5.0554    0.8515 C.ar      1 ATP         0.6141
     30 N3         -0.8555   -3.8803    1.2516 N.2       1 ATP        -0.5913
     31 C4         -1.7946   -2.9457    0.9448 C.ar      1 ATP         0.0067
     32 HOG3        0.3719    9.5648    0.2439 H         1 ATP         0.4313
     33 HOB2       -3.8382    7.2363   -0.2780 H         1 ATP         0.4716
     34 H5'1       -1.7770    2.7851    2.1387 H         1 ATP         0.0452
     35 H5'2       -1.1653    2.0543    0.6320 H         1 ATP         0.0452
     36 H4'         0.0403    1.7078    3.4343 H         1 ATP         0.0998
     37 H3'         1.5906    1.4859    1.1353 H         1 ATP         0.0544
     38 HO3'        2.6839   -0.1150    2.2479 H         1 ATP         0.3961
     39 H2'        -0.0017    0.0018    0.0005 H         1 ATP         0.0499
     40 HO2'        2.0953   -0.9375    0.0709 H         1 ATP         0.4045
     41 H1'        -0.1998   -1.6319    2.6178 H         1 ATP         0.0912
     42 H8         -3.0558    0.0252    0.8256 H         1 ATP         0.1090
     43 HN62       -4.7047   -5.5592   -0.9421 H         1 ATP         0.3694
     44 H2         -0.6372   -5.9505    1.0077 H         1 ATP         0.0371
     45 H45        -2.6338   -6.3155   -0.0469 H         1 ATP         0.4283
@<TRIPOS>BOND
     1    1    2 2
     2    1    3 1
     3    1    4 1
     4    1    8 1
     5    4   32 1
     6    5    6 2
     7    5    7 1
     8    5    8 1
     9    5   12 1
    10    7   33 1
    11    9   10 2
    12    9   11 1
    13    9   12 1
    14    9   13 1
    15   13   14 1
    16   14   15 1
    17   14   34 1
    18   14   35 1
    19   15   16 1
    20   15   17 1
    21   15   36 1
    22   16   21 1
    23   17   18 1
    24   17   19 1
    25   17   37 1
    26   18   38 1
    27   19   20 1
    28   19   21 1
    29   19   39 1
    30   20   40 1
    31   21   22 1
    32   21   41 1
    33   22   23 ar
    34   22   31 ar
    35   23   24 ar
    36   23   42 1
    37   24   25 ar
    38   25   26 ar
    39   25   31 ar
    40   26   27 2
    41   26   28 ar
    42   27   43 1
    43   28   29 ar
    44   28   45 1
    45   29   30 ar
    46   29   44 1
    47   30   31 ar
@<TRIPOS>SUBSTRUCTURE
     1 ATP         1 GROUP 0 A     ****
@<TRIPOS>MOLECULE
[[[3,4-dihydroxy-5-(6-imino-1~{H}-purin-9-yl)tetrahydrofuran-2-yl]methoxy-oxido-phosphoryl]oxy-hydroxy-phosphoryl] hydrogen phosphate
   45    47     1     0     0
SMALL
USER_CHARGES

@<TRIPOS>ATOM
      1 PG         -4.8507    5.4931    0.9855 P.3       1 ATP         1.5496
      2 O1G        -5.8638    6.3142    1.7516 O.co2     1 ATP        -0.8494
      3 O2G        -4.2474    4.2439    1.5881 O.co2     1 ATP        -0.8494
      4 O3G        -5.4862    5.1118   -0.4695 O.3       1 ATP        -0.7845
      5 PB         -2.3937    6.1799   -0.4942 P.3       1 ATP         1.9068
      6 O1B        -2.7514    5.7368   -1.8820 O.2       1 ATP        -0.8942
      7 O2B        -1.5191    7.5370   -0.4121 O.3       1 ATP        -0.8166
      8 O3B        -3.6491    6.4737    0.4806 O.3       1 ATP        -0.8194
      9 PA         -0.0887    4.4443    0.1194 P.3       1 ATP         1.5903
     10 O1A         0.9662    5.5280    0.1728 O.co2     1 ATP        -0.8519
     11 O2A        -0.1996    3.5315   -1.0824 O.co2     1 ATP        -0.8519
     12 O3A        -1.5511    5.1197    0.3865 O.3       1 ATP        -0.8093
     13 O5'         0.0180    3.5131    1.4595 O.3       1 ATP        -0.5649
     14 C5'        -0.8811    2.4285    1.6206 C.3       1 ATP         0.1979
     15 C4'        -0.1994    1.3333    2.4288 C.3       1 ATP         0.1179
     16 O4'        -1.1285    0.2356    2.5840 O.3       1 ATP        -0.3878
     17 C3'         1.0324    0.7610    1.7344 C.3       1 ATP         0.1185
     18 O3'         1.9175    0.2377    2.7247 O.3       1 ATP        -0.5544
     19 C2'         0.4468   -0.3802    0.9263 C.3       1 ATP         0.0542
     20 O2'         1.3993   -1.3703    0.5961 O.3       1 ATP        -0.5831
     21 C1'        -0.6159   -0.9100    1.8769 C.3       1 ATP         0.2222
     22 N9         -1.7127   -1.6108    1.2130 N.pl3     1 ATP        -0.1887
     23 C8         -2.8662   -1.0361    0.7388 C.ar      1 ATP         0.4447
     24 N7         -3.6774   -1.9166    0.1867 N.2       1 ATP        -0.6159
     25 C5         -3.0159   -3.1045    0.3123 C.ar      1 ATP         0.2195
     26 C6         -3.4377   -4.4169   -0.1199 C.ar      1 ATP         0.6144
     27 N6         -4.5720   -4.5691   -0.7080 N.2       1 ATP        -0.8160
     28 N1         -2.4600   -5.3463    0.2071 N.pl3     1 ATP        -0.8611
     29 C2         -1.2595   -5.0554    0.8515 C.ar      1 ATP         0.6141
     30 N3         -0.8555   -3.8803    1.2516 N.2       1 ATP        -0.5913
     31 C4         -1.7946   -2.9457    0.9448 C.ar      1 ATP         0.0067
     32 HOG3       -4.9461    4.5764   -1.0889 H         1 ATP         0.4313
     33 HOB2       -0.6414    7.5632   -0.8495 H         1 ATP         0.4716
     34 H5'1       -1.7770    2.7851    2.1387 H         1 ATP         0.0452
     35 H5'2       -1.1653    2.0543    0.6320 H         1 ATP         0.0452
     36 H4'         0.0403    1.7078    3.4343 H         1 ATP         0.0998
     37 H3'         1.5906    1.4859    1.1353 H         1 ATP         0.0544
     38 HO3'        2.6839   -0.1150    2.2479 H         1 ATP         0.3961
     39 H2'        -0.0017    0.0018    0.0005 H         1 ATP         0.0499
     40 HO2'        2.0953   -0.9375    0.0709 H         1 ATP         0.4045
     41 H1'        -0.1998   -1.6319    2.6178 H         1 ATP         0.0912
     42 H8         -3.0558    0.0252    0.8256 H         1 ATP         0.1090
     43 HN62       -4.7047   -5.5592   -0.9421 H         1 ATP         0.3694
     44 H2         -0.6372   -5.9505    1.0077 H         1 ATP         0.0371
     45 H45        -2.6338   -6.3155   -0.0469 H         1 ATP         0.4283
@<TRIPOS>BOND
     1    1    2 2
     2    1    3 1
     3    1    4 1
     4    1    8 1
     5    4   32 1
     6    5    6 2
     7    5    7 1
     8    5    8 1
     9    5   12 1
    10    7   33 1
    11    9   10 2
    12    9   11 1
    13    9   12 1
    14    9   13 1
    15   13   14 1
    16   14   15 1
    17   14   34 1
    18   14   35 1
    19   15   16 1
    20   15   17 1
    21   15   36 1
    22   16   21 1
    23   17   18 1
    24   17   19 1
    25   17   37 1
    26   18   38 1
    27   19   20 1
    28   19   21 1
    29   19   39 1
    30   20   40 1
    31   21   22 1
    32   21   41 1
    33   22   23 ar
    34   22   31 ar
    35   23   24 ar
    36   23   42 1
    37   24   25 ar
    38   25   26 ar
    39   25   31 ar
    40   26   27 2
    41   26   28 ar
    42   27   43 1
    43   28   29 ar
    44   28   45 1
    45   29   30 ar
    46   29   44 1
    47   30   31 ar
@<TRIPOS>SUBSTRUCTURE
     1 ATP         1 GROUP 0 A     ****
@<TRIPOS>MOLECULE
[[[3,4-dihydroxy-5-(6-imino-1~{H}-purin-9-yl)tetrahydrofuran-2-yl]methoxy-oxido-phosphoryl]oxy-hydroxy-phosphoryl] hydrogen phosphate
   45    47     1     0     0
SMALL
USER_CHARGES

@<TRIPOS>ATOM
      1 PG         -0.5399    6.8215   -1.1991 P.3       1 ATP         1.5496
      2 O1G        -1.2839    5.6966   -1.8836 O.co2     1 ATP        -0.8494
      3 O2G         0.9479    6.7272   -0.9444 O.co2     1 ATP        -0.8494
      4 O3G        -0.8408    8.2086   -2.0065 O.3       1 ATP        -0.7845
      5 PB         -1.4683    6.3150    1.5540 P.3       1 ATP         1.9068
      6 O1B        -0.1872    5.9258    2.2305 O.2       1 ATP        -0.8942
      7 O2B        -2.4753    7.2045    2.4531 O.3       1 ATP        -0.8166
      8 O3B        -1.2972    7.1811    0.2000 O.3       1 ATP        -0.8194
      9 PA         -3.0798    3.8626    1.8537 P.3       1 ATP         1.5903
     10 O1A        -3.7209    2.9152    0.8630 O.co2     1 ATP        -0.8519
     11 O2A        -3.8821    4.4459    2.9964 O.co2     1 ATP        -0.8519
     12 O3A        -2.3874    5.0928    1.0333 O.3       1 ATP        -0.8093
     13 O5'        -1.7337    3.1724    2.4752 O.3       1 ATP        -0.5649
     14 C5'        -0.8811    2.4285    1.6206 C.3       1 ATP         0.1979
     15 C4'        -0.1994    1.3333    2.4288 C.3       1 ATP         0.1179
     16 O4'        -1.1285    0.2356    2.5840 O.3       1 ATP        -0.3878
     17 C3'         1.0324    0.7610    1.7344 C.3       1 ATP         0.1185
     18 O3'         1.9175    0.2377    2.7247 O.3       1 ATP        -0.5544
     19 C2'         0.4468   -0.3802    0.9263 C.3       1 ATP         0.0542
     20 O2'         1.3993   -1.3703    0.5961 O.3       1 ATP        -0.5831
     21 C1'        -0.6159   -0.9100    1.8769 C.3       1 ATP         0.2222
     22 N9         -1.7127   -1.6108    1.2130 N.pl3     1 ATP        -0.1887
     23 C8         -2.8662   -1.0361    0.7388 C.ar      1 ATP         0.4447
     24 N7         -3.6774   -1.9166    0.1867 N.2       1 ATP        -0.6159
     25 C5         -3.0159   -3.1045    0.3123 C.ar      1 ATP         0.2195
     26 C6         -3.4377   -4.4169   -0.1199 C.ar      1 ATP         0.6144
     27 N6         -4.5720   -4.5691   -0.7080 N.2       1 ATP        -0.8160
     28 N1         -2.4600   -5.3463    0.2071 N.pl3     1 ATP        -0.8611
     29 C2         -1.2595   -5.0554    0.8515 C.ar      1 ATP         0.6141
     30 N3         -0.8555   -3.8803    1.2516 N.2       1 ATP        -0.5913
     31 C4         -1.7946   -2.9457    0.9448 C.ar      1 ATP         0.0067
     32 HOG3       -0.4260    9.0364   -1.6827 H         1 ATP         0.4313
     33 HOB2       -2.1692    8.0736    2.7894 H         1 ATP         0.4716
     34 H5'1       -1.4801    1.9928    0.8147 H         1 ATP         0.0452
     35 H5'2       -0.1369    3.1041    1.1872 H         1 ATP         0.0452
     36 H4'         0.0403    1.7078    3.4343 H         1 ATP         0.0998
     37 H3'         1.5906    1.4859    1.1353 H         1 ATP         0.0544
     38 HO3'        2.6839   -0.1150    2.2479 H         1 ATP         0.3961
     39 H2'        -0.0017    0.0018    0.0005 H         1 ATP         0.0499
     40 HO2'        2.0953   -0.9375    0.0709 H         1 ATP         0.4045
     41 H1'        -0.1998   -1.6319    2.6178 H         1 ATP         0.0912
     42 H8         -3.0558    0.0252    0.8256 H         1 ATP         0.1090
     43 HN62       -4.7047   -5.5592   -0.9421 H         1 ATP         0.3694
     44 H2         -0.6372   -5.9505    1.0077 H         1 ATP         0.0371
     45 H45        -2.6338   -6.3155   -0.0469 H         1 ATP         0.4283
@<TRIPOS>BOND
     1    1    2 2
     2    1    3 1
     3    1    4 1
     4    1    8 1
     5    4   32 1
     6    5    6 2
     7    5    7 1
     8    5    8 1
     9    5   12 1
    10    7   33 1
    11    9   10 2
    12    9   11 1
    13    9   12 1
    14    9   13 1
    15   13   14 1
    16   14   15 1
    17   14   34 1
    18   14   35 1
    19   15   16 1
    20   15   17 1
    21   15   36 1
    22   16   21 1
    23   17   18 1
    24   17   19 1
    25   17   37 1
    26   18   38 1
    27   19   20 1
    28   19   21 1
    29   19   39 1
    30   20   40 1
    31   21   22 1
    32   21   41 1
    33   22   23 ar
    34   22   31 ar
    35   23   24 ar
    36   23   42 1
    37   24   25 ar
    38   25   26 ar
    39   25   31 ar
    40   26   27 2
    41   26   28 ar
    42   27   43 1
    43   28   29 ar
    44   28   45 1
    45   29   30 ar
    46   29   44 1
    47   30   31 ar
@<TRIPOS>SUBSTRUCTURE
     1 ATP         1 GROUP 0 A     ****
@<TRIPOS>MOLECULE
[[[3,4-dihydroxy-5-(6-imino-1~{H}-purin-9-yl)tetrahydrofuran-2-yl]methoxy-oxido-phosphoryl]oxy-hydroxy-phosphoryl] hydrogen phosphate
   45    47     1     0     0
SMALL
USER_CHARGES

@<TRIPOS>ATOM
      1 PG         -4.4100    7.6456    3.6344 P.3       1 ATP         1.5496
      2 O1G        -5.6928    7.6439    2.8331 O.co2     1 ATP        -0.8494
      3 O2G        -3.6889    8.9385    3.9438 O.co2     1 ATP        -0.8494
      4 O3G        -4.6736    6.8507    5.0362 O.3       1 ATP        -0.7845
      5 PB         -2.6041    6.6540    1.5242 P.3       1 ATP         1.9068
      6 O1B        -3.5045    6.6888    0.3249 O.2       1 ATP        -0.8942
      7 O2B        -1.6037    7.9159    1.6669 O.3       1 ATP        -0.8166
      8 O3B        -3.3598    6.6008    2.9521 O.3       1 ATP        -0.8194
      9 PA         -0.4664    4.8322    0.6228 P.3       1 ATP         1.5903
     10 O1A         0.6558    5.8467    0.5865 O.co2     1 ATP        -0.8519
     11 O2A        -1.1276    4.3642   -0.6553 O.co2     1 ATP        -0.8519
     12 O3A        -1.6298    5.3702    1.6343 O.3       1 ATP        -0.8093
     13 O5'         0.0180    3.5131    1.4595 O.3       1 ATP        -0.5649
     14 C5'        -0.8811    2.4285    1.6206 C.3       1 ATP         0.1979
     15 C4'        -0.1994    1.3333    2.4288 C.3       1 ATP         0.1179
     16 O4'        -1.1285    0.2356    2.5840 O.3       1 ATP        -0.3878
     17 C3'         1.0324    0.7610    1.7344 C.3       1 ATP         0.1185
     18 O3'         1.9175    0.2377    2.7247 O.3       1 ATP        -0.5544
     19 C2'         0.4468   -0.3802    0.9263 C.3       1 ATP         0.0542
     20 O2'         1.3993   -1.3703    0.5961 O.3       1 ATP        -0.5831
     21 C1'        -0.6159   -0.9100    1.8769 C.3       1 ATP         0.2222
     22 N9         -1.7127   -1.6108    1.2130 N.pl3     1 ATP        -0.1887
     23 C8         -2.8662   -1.0361    0.7388 C.ar      1 ATP         0.4447
     24 N7         -3.6774   -1.9166    0.1867 N.2       1 ATP        -0.6159
     25 C5         -3.0159   -3.1045    0.3123 C.ar      1 ATP         0.2195
     26 C6         -3.4377   -4.4169   -0.1199 C.ar      1 ATP         0.6144
     27 N6         -4.5720   -4.5691   -0.7080 N.2       1 ATP        -0.8160
     28 N1         -2.4600   -5.3463    0.2071 N.pl3     1 ATP        -0.8611
     29 C2         -1.2595   -5.0554    0.8515 C.ar      1 ATP         0.6141
     30 N3         -0.8555   -3.8803    1.2516 N.2       1 ATP        -0.5913
     31 C4         -1.7946   -2.9457    0.9448 C.ar      1 ATP         0.0067
     32 HOG3       -3.9307    6.7651    5.6710 H         1 ATP         0.4313
     33 HOB2       -1.9842    8.8168    1.7440 H         1 ATP         0.4716
     34 H5'1       -1.7770    2.7851    2.1387 H         1 ATP         0.0452
     35 H5'2       -1.1653    2.0543    0.6320 H         1 ATP         0.0452
     36 H4'         0.0403    1.7078    3.4343 H         1 ATP         0.0998
     37 H3'         1.5906    1.4859    1.1353 H         1 ATP         0.0544
     38 HO3'        2.1521    0.9800    3.3017 H         1 ATP         0.3961
     39 H2'        -0.0017    0.0018    0.0005 H         1 ATP         0.0499
     40 HO2'        0.9369   -2.0558    0.0825 H         1 ATP         0.4045
     41 H1'        -0.1998   -1.6319    2.6178 H         1 ATP         0.0912
     42 H8         -3.0558    0.0252    0.8256 H         1 ATP         0.1090
     43 HN62       -4.7047   -5.5592   -0.9421 H         1 ATP         0.3694
     44 H2         -0.6372   -5.9505    1.0077 H         1 ATP         0.0371
     45 H45        -2.6338   -6.3155   -0.0469 H         1 ATP         0.4283
@<TRIPOS>BOND
     1    1    2 2
     2    1    3 1
     3    1    4 1
     4    1    8 1
     5    4   32 1
     6    5    6 2
     7    5    7 1
     8    5    8 1
     9    5   12 1
    10    7   33 1
    11    9   10 2
    12    9   11 1
    13    9   12 1
    14    9   13 1
    15   13   14 1
    16   14   15 1
    17   14   34 1
    18   14   35 1
    19   15   16 1
    20   15   17 1
    21   15   36 1
    22   16   21 1
    23   17   18 1
    24   17   19 1
    25   17   37 1
    26   18   38 1
    27   19   20 1
    28   19   21 1
    29   19   39 1
    30   20   40 1
    31   21   22 1
    32   21   41 1
    33   22   23 ar
    34   22   31 ar
    35   23   24 ar
    36   23   42 1
    37   24   25 ar
    38   25   26 ar
    39   25   31 ar
    40   26   27 2
    41   26   28 ar
    42   27   43 1
    43   28   29 ar
    44   28   45 1
    45   29   30 ar
    46   29   44 1
    47   30   31 ar
@<TRIPOS>SUBSTRUCTURE
     1 ATP         1 GROUP 0 A     ****
@<TRIPOS>MOLECULE
[[[3,4-dihydroxy-5-(6-imino-1~{H}-purin-9-yl)tetrahydrofuran-2-yl]methoxy-oxido-phosphoryl]oxy-hydroxy-phosphoryl] hydrogen phosphate
   45    47     1     0     0
SMALL
USER_CHARGES

@<TRIPOS>ATOM
      1 PG         -2.8919    3.9601   -2.9201 P.3       1 ATP         1.5496
      2 O1G        -4.0823    3.3296   -3.6081 O.co2     1 ATP        -0.8494
      3 O2G        -1.7084    3.1217   -2.4915 O.co2     1 ATP        -0.8494
      4 O3G        -2.3481    5.1888   -3.8478 O.3       1 ATP        -0.7845
      5 PB         -2.6209    5.8224   -0.6494 P.3       1 ATP         1.9068
      6 O1B        -1.9685    7.0005   -1.3103 O.2       1 ATP        -0.8942
      7 O2B        -3.7148    6.1906    0.4826 O.3       1 ATP        -0.8166
      8 O3B        -3.4184    4.8286   -1.6439 O.3       1 ATP        -0.8194
      9 PA         -0.5789    5.0299    1.3262 P.3       1 ATP         1.5903
     10 O1A        -1.3654    5.3738    2.5725 O.co2     1 ATP        -0.8519
     11 O2A         0.5326    5.9338    0.8392 O.co2     1 ATP        -0.8519
     12 O3A        -1.6231    4.7921    0.0937 O.3       1 ATP        -0.8093
     13 O5'         0.0180    3.5131    1.4595 O.3       1 ATP        -0.5649
     14 C5'        -0.8811    2.4285    1.6206 C.3       1 ATP         0.1979
     15 C4'        -0.1994    1.3333    2.4288 C.3       1 ATP         0.1179
     16 O4'        -1.1285    0.2356    2.5840 O.3       1 ATP        -0.3878
     17 C3'         1.0324    0.7610    1.7344 C.3       1 ATP         0.1185
     18 O3'         1.9175    0.2377    2.7247 O.3       1 ATP        -0.5544
     19 C2'         0.4468   -0.3802    0.9263 C.3       1 ATP         0.0542
     20 O2'         1.3993   -1.3703    0.5961 O.3       1 ATP        -0.5831
     21 C1'        -0.6159   -0.9100    1.8769 C.3       1 ATP         0.2222
     22 N9         -1.7127   -1.6108    1.2130 N.pl3     1 ATP        -0.1887
     23 C8         -2.8662   -1.0361    0.7388 C.ar      1 ATP         0.4447
     24 N7         -3.6774   -1.9166    0.1867 N.2       1 ATP        -0.6159
     25 C5         -3.0159   -3.1045    0.3123 C.ar      1 ATP         0.2195
     26 C6         -3.4377   -4.4169   -0.1199 C.ar      1 ATP         0.6144
     27 N6         -4.5720   -4.5691   -0.7080 N.2       1 ATP        -0.8160
     28 N1         -2.4600   -5.3463    0.2071 N.pl3     1 ATP        -0.8611
     29 C2         -1.2595   -5.0554    0.8515 C.ar      1 ATP         0.6141
     30 N3         -0.8555   -3.8803    1.2516 N.2       1 ATP        -0.5913
     31 C4         -1.7946   -2.9457    0.9448 C.ar      1 ATP         0.0067
     32 HOG3       -1.5728    5.7020   -3.5350 H         1 ATP         0.4313
     33 HOB2       -3.4320    6.7114    1.2643 H         1 ATP         0.4716
     34 H5'1       -1.7770    2.7851    2.1387 H         1 ATP         0.0452
     35 H5'2       -1.1653    2.0543    0.6320 H         1 ATP         0.0452
     36 H4'         0.0403    1.7078    3.4343 H         1 ATP         0.0998
     37 H3'         1.5906    1.4859    1.1353 H         1 ATP         0.0544
     38 HO3'        2.6839   -0.1150    2.2479 H         1 ATP         0.3961
     39 H2'        -0.0017    0.0018    0.0005 H         1 ATP         0.0499
     40 HO2'        0.9369   -2.0558    0.0825 H         1 ATP         0.4045
     41 H1'        -0.1998   -1.6319    2.6178 H         1 ATP         0.0912
     42 H8         -3.0558    0.0252    0.8256 H         1 ATP         0.1090
     43 HN62       -4.7047   -5.5592   -0.9421 H         1 ATP         0.3694
     44 H2         -0.6372   -5.9505    1.0077 H         1 ATP         0.0371
     45 H45        -2.6338   -6.3155   -0.0469 H         1 ATP         0.4283
@<TRIPOS>BOND
     1    1    2 2
     2    1    3 1
     3    1    4 1
     4    1    8 1
     5    4   32 1
     6    5    6 2
     7    5    7 1
     8    5    8 1
     9    5   12 1
    10    7   33 1
    11    9   10 2
    12    9   11 1
    13    9   12 1
    14    9   13 1
    15   13   14 1
    16   14   15 1
    17   14   34 1
    18   14   35 1
    19   15   16 1
    20   15   17 1
    21   15   36 1
    22   16   21 1
    23   17   18 1
    24   17   19 1
    25   17   37 1
    26   18   38 1
    27   19   20 1
    28   19   21 1
    29   19   39 1
    30   20   40 1
    31   21   22 1
    32   21   41 1
    33   22   23 ar
    34   22   31 ar
    35   23   24 ar
    36   23   42 1
    37   24   25 ar
    38   25   26 ar
    39   25   31 ar
    40   26   27 2
    41   26   28 ar
    42   27   43 1
    43   28   29 ar
    44   28   45 1
    45   29   30 ar
    46   29   44 1
    47   30   31 ar
@<TRIPOS>SUBSTRUCTURE
     1 ATP         1 GROUP 0 A     ****
@<TRIPOS>MOLECULE
[[[3,4-dihydroxy-5-(6-imino-1~{H}-purin-9-yl)tetrahydrofuran-2-yl]methoxy-oxido-phosphoryl]oxy-hydroxy-phosphoryl] hydrogen phosphate
   45    47     1     0     0
SMALL
USER_CHARGES

@<TRIPOS>ATOM
      1 PG          0.0423    8.4617    3.6487 P.3       1 ATP         1.5496
      2 O1G         1.2613    7.9117    4.3554 O.co2     1 ATP        -0.8494
      3 O2G        -1.0159    9.2297    4.4087 O.co2     1 ATP        -0.8494
      4 O3G         0.5409    9.3738    2.3895 O.3       1 ATP        -0.7845
      5 PB         -1.4292    5.9257    3.3304 P.3       1 ATP         1.9068
      6 O1B        -0.5920    4.9932    4.1550 O.2       1 ATP        -0.8942
      7 O2B        -2.7481    6.4980    4.0698 O.3       1 ATP        -0.8166
      8 O3B        -0.6721    7.2569    2.8131 O.3       1 ATP        -0.8194
      9 PA         -2.9646    4.0417    1.6588 P.3       1 ATP         1.5903
     10 O1A        -3.0698    3.8297    0.1641 O.co2     1 ATP        -0.8519
     11 O2A        -4.2080    4.1930    2.5078 O.co2     1 ATP        -0.8519
     12 O3A        -1.9921    5.3225    1.9416 O.3       1 ATP        -0.8093
     13 O5'        -2.0402    2.8619    2.3130 O.3       1 ATP        -0.5649
     14 C5'        -0.8811    2.4285    1.6206 C.3       1 ATP         0.1979
     15 C4'        -0.1994    1.3333    2.4288 C.3       1 ATP         0.1179
     16 O4'        -1.1285    0.2356    2.5840 O.3       1 ATP        -0.3878
     17 C3'         1.0324    0.7610    1.7344 C.3       1 ATP         0.1185
     18 O3'         1.9175    0.2377    2.7247 O.3       1 ATP        -0.5544
     19 C2'         0.4468   -0.3802    0.9263 C.3       1 ATP         0.0542
     20 O2'         1.3993   -1.3703    0.5961 O.3       1 ATP        -0.5831
     21 C1'        -0.6159   -0.9100    1.8769 C.3       1 ATP         0.2222
     22 N9         -1.7127   -1.6108    1.2130 N.pl3     1 ATP        -0.1887
     23 C8         -2.0868   -2.9137    1.4327 C.ar      1 ATP         0.4447
     24 N7         -3.1125   -3.2756    0.6878 N.2       1 ATP        -0.6159
     25 C5         -3.4079   -2.1580   -0.0391 C.ar      1 ATP         0.2195
     26 C6         -4.4483   -1.9775   -1.0249 C.ar      1 ATP         0.6144
     27 N6         -5.2418   -2.9492   -1.3113 N.2       1 ATP        -0.8160
     28 N1         -4.3937   -0.6823   -1.5211 N.pl3     1 ATP        -0.8611
     29 C2         -3.4770    0.2901   -1.1271 C.ar      1 ATP         0.6141
     30 N3         -2.5289    0.1525   -0.2403 N.2       1 ATP        -0.5913
     31 C4         -2.5564   -1.1096    0.2655 C.ar      1 ATP         0.0067
     32 HOG3       -0.1380    9.8040    1.8271 H         1 ATP         0.4313
     33 HOB2       -3.4277    5.8648    4.3852 H         1 ATP         0.4716
     34 H5'1       -1.1769    2.0503    0.6369 H         1 ATP         0.0452
     35 H5'2       -0.2081    3.2815    1.4877 H         1 ATP         0.0452
     36 H4'         0.0403    1.7078    3.4343 H         1 ATP         0.0998
     37 H3'         1.5906    1.4859    1.1353 H         1 ATP         0.0544
     38 HO3'        2.6839   -0.1150    2.2479 H         1 ATP         0.3961
     39 H2'        -0.0017    0.0018    0.0005 H         1 ATP         0.0499
     40 HO2'        0.9369   -2.0558    0.0825 H         1 ATP         0.4045
     41 H1'        -0.1998   -1.6319    2.6178 H         1 ATP         0.0912
     42 H8         -1.5740   -3.5449    2.1457 H         1 ATP         0.1090
     43 HN62       -5.9117   -2.6433   -2.0256 H         1 ATP         0.3694
     44 H2         -3.6225    1.2454   -1.6553 H         1 ATP         0.0371
     45 H45        -5.0794   -0.4231   -2.2258 H         1 ATP         0.4283
@<TRIPOS>BOND
     1    1    2 2
     2    1    3 1
     3    1    4 1
     4    1    8 1
     5    4   32 1
     6    5    6 2
     7    5    7 1
     8    5    8 1
     9    5   12 1
    10    7   33 1
    11    9   10 2
    12    9   11 1
    13    9   12 1
    14    9   13 1
    15   13   14 1
    16   14   15 1
    17   14   34 1
    18   14   35 1
    19   15   16 1
    20   15   17 1
    21   15   36 1
    22   16   21 1
    23   17   18 1
    24   17   19 1
    25   17   37 1
    26   18   38 1
    27   19   20 1
    28   19   21 1
    29   19   39 1
    30   20   40 1
    31   21   22 1
    32   21   41 1
    33   22   23 ar
    34   22   31 ar
    35   23   24 ar
    36   23   42 1
    37   24   25 ar
    38   25   26 ar
    39   25   31 ar
    40   26   27 2
    41   26   28 ar
    42   27   43 1
    43   28   29 ar
    44   28   45 1
    45   29   30 ar
    46   29   44 1
    47   30   31 ar
@<TRIPOS>SUBSTRUCTURE
     1 ATP         1 GROUP 0 A     ****
@<TRIPOS>MOLECULE
[[[3,4-dihydroxy-5-(6-imino-1~{H}-purin-9-yl)tetrahydrofuran-2-yl]methoxy-oxido-phosphoryl]oxy-hydroxy-phosphoryl] hydrogen phosphate
   45    47     1     0     0
SMALL
USER_CHARGES

@<TRIPOS>ATOM
      1 PG         -4.5649    5.1675   -3.1390 P.3       1 ATP         1.5496
      2 O1G        -3.7003    6.2036   -3.8222 O.co2     1 ATP        -0.8494
      3 O2G        -6.0283    5.4345   -2.8661 O.co2     1 ATP        -0.8494
      4 O3G        -4.4388    3.7630   -3.9622 O.3       1 ATP        -0.7845
      5 PB         -3.5540    5.5326   -0.3926 P.3       1 ATP         1.9068
      6 O1B        -2.6951    6.7519   -0.5540 O.2       1 ATP        -0.8942
      7 O2B        -5.0300    5.8084    0.2065 O.3       1 ATP        -0.8166
      8 O3B        -3.8407    4.7067   -1.7522 O.3       1 ATP        -0.8194
      9 PA         -2.5400    4.4094    2.1394 P.3       1 ATP         1.5903
     10 O1A        -3.7863    4.6329    2.9681 O.co2     1 ATP        -0.8519
     11 O2A        -1.3369    5.3143    2.2925 O.co2     1 ATP        -0.8519
     12 O3A        -2.9567    4.3737    0.5611 O.3       1 ATP        -0.8093
     13 O5'        -2.0402    2.8619    2.3130 O.3       1 ATP        -0.5649
     14 C5'        -0.8811    2.4285    1.6206 C.3       1 ATP         0.1979
     15 C4'        -0.1994    1.3333    2.4288 C.3       1 ATP         0.1179
     16 O4'        -1.1285    0.2356    2.5840 O.3       1 ATP        -0.3878
     17 C3'         1.0324    0.7610    1.7344 C.3       1 ATP         0.1185
     18 O3'         1.9175    0.2377    2.7247 O.3       1 ATP        -0.5544
     19 C2'         0.4468   -0.3802    0.9263 C.3       1 ATP         0.0542
     20 O2'         1.3993   -1.3703    0.5961 O.3       1 ATP        -0.5831
     21 C1'        -0.6159   -0.9100    1.8769 C.3       1 ATP         0.2222
     22 N9         -1.7127   -1.6108    1.2130 N.pl3     1 ATP        -0.1887
     23 C8         -1.7690   -2.9583    0.9549 C.ar      1 ATP         0.4447
     24 N7         -2.8827   -3.3076    0.3418 N.2       1 ATP        -0.6159
     25 C5         -3.5683   -2.1351    0.2017 C.ar      1 ATP         0.2195
     26 C6         -4.8617   -1.9185   -0.4044 C.ar      1 ATP         0.6144
     27 N6         -5.5166   -2.9094   -0.8994 N.2       1 ATP        -0.8160
     28 N1         -5.1836   -0.5701   -0.3344 N.pl3     1 ATP        -0.8611
     29 C2         -4.3821    0.4180    0.2330 C.ar      1 ATP         0.6141
     30 N3         -3.2117    0.2488    0.7860 N.2       1 ATP        -0.5913
     31 C4         -2.8672   -1.0657    0.7327 C.ar      1 ATP         0.0067
     32 HOG3       -4.9451    2.9867   -3.6410 H         1 ATP         0.4313
     33 HOB2       -5.1129    6.2152    1.0953 H         1 ATP         0.4716
     34 H5'1       -1.1769    2.0503    0.6369 H         1 ATP         0.0452
     35 H5'2       -0.2081    3.2815    1.4877 H         1 ATP         0.0452
     36 H4'         0.0403    1.7078    3.4343 H         1 ATP         0.0998
     37 H3'         1.5906    1.4859    1.1353 H         1 ATP         0.0544
     38 HO3'        2.6839   -0.1150    2.2479 H         1 ATP         0.3961
     39 H2'        -0.0017    0.0018    0.0005 H         1 ATP         0.0499
     40 HO2'        2.0953   -0.9375    0.0709 H         1 ATP         0.4045
     41 H1'        -0.1998   -1.6319    2.6178 H         1 ATP         0.0912
     42 H8         -0.9697   -3.6300    1.2371 H         1 ATP         0.1090
     43 HN62       -6.4060   -2.5723   -1.2840 H         1 ATP         0.3694
     44 H2         -4.8409    1.4176    0.1757 H         1 ATP         0.0371
     45 H45        -6.0768   -0.2826   -0.7263 H         1 ATP         0.4283
@<TRIPOS>BOND
     1    1    2 2
     2    1    3 1
     3    1    4 1
     4    1    8 1
     5    4   32 1
     6    5    6 2
     7    5    7 1
     8    5    8 1
     9    5   12 1
    10    7   33 1
    11    9   10 2
    12    9   11 1
    13    9   12 1
    14    9   13 1
    15   13   14 1
    16   14   15 1
    17   14   34 1
    18   14   35 1
    19   15   16 1
    20   15   17 1
    21   15   36 1
    22   16   21 1
    23   17   18 1
    24   17   19 1
    25   17   37 1
    26   18   38 1
    27   19   20 1
    28   19   21 1
    29   19   39 1
    30   20   40 1
    31   21   22 1
    32   21   41 1
    33   22   23 ar
    34   22   31 ar
    35   23   24 ar
    36   23   42 1
    37   24   25 ar
    38   25   26 ar
    39   25   31 ar
    40   26   27 2
    41   26   28 ar
    42   27   43 1
    43   28   29 ar
    44   28   45 1
    45   29   30 ar
    46   29   44 1
    47   30   31 ar
@<TRIPOS>SUBSTRUCTURE
     1 ATP         1 GROUP 0 A     ****
@<TRIPOS>MOLECULE
[[[3,4-dihydroxy-5-(6-imino-1~{H}-purin-9-yl)tetrahydrofuran-2-yl]methoxy-oxido-phosphoryl]oxy-hydroxy-phosphoryl] hydrogen phosphate
   45    47     1     0     0
SMALL
USER_CHARGES

@<TRIPOS>ATOM
      1 PG         -0.1868    1.1074   -4.5058 P.3       1 ATP         1.5496
      2 O1G         1.0329    1.4340   -5.3383 O.co2     1 ATP        -0.8494
      3 O2G        -1.5802    1.3646   -5.0348 O.co2     1 ATP        -0.8494
      4 O3G        -0.0907   -0.4534   -4.0358 O.3       1 ATP        -0.7845
      5 PB         -0.0261    3.3775   -2.6300 P.3       1 ATP         1.9068
      6 O1B         1.0626    4.1994   -3.2540 O.2       1 ATP        -0.8942
      7 O2B        -1.5305    3.8688   -2.9601 O.3       1 ATP        -0.8166
      8 O3B        -0.0337    1.8151   -3.0443 O.3       1 ATP        -0.8194
      9 PA         -0.0887    4.4443    0.1194 P.3       1 ATP         1.5903
     10 O1A        -1.4609    5.0790    0.0541 O.co2     1 ATP        -0.8519
     11 O2A         1.1609    5.2934    0.0334 O.co2     1 ATP        -0.8519
     12 O3A         0.0059    3.2767   -1.0181 O.3       1 ATP        -0.8093
     13 O5'         0.0180    3.5131    1.4595 O.3       1 ATP        -0.5649
     14 C5'        -0.8811    2.4285    1.6206 C.3       1 ATP         0.1979
     15 C4'        -0.1994    1.3333    2.4288 C.3       1 ATP         0.1179
     16 O4'        -1.1285    0.2356    2.5840 O.3       1 ATP        -0.3878
     17 C3'         1.0324    0.7610    1.7344 C.3       1 ATP         0.1185
     18 O3'         1.9175    0.2377    2.7247 O.3       1 ATP        -0.5544
     19 C2'         0.4468   -0.3802    0.9263 C.3       1 ATP         0.0542
     20 O2'         1.3993   -1.3703    0.5961 O.3       1 ATP        -0.5831
     21 C1'        -0.6159   -0.9100    1.8769 C.3       1 ATP         0.2222
     22 N9         -1.7127   -1.6108    1.2130 N.pl3     1 ATP        -0.1887
     23 C8         -2.0868   -2.9137    1.4327 C.ar      1 ATP         0.4447
     24 N7         -3.1125   -3.2756    0.6878 N.2       1 ATP        -0.6159
     25 C5         -3.4079   -2.1580   -0.0391 C.ar      1 ATP         0.2195
     26 C6         -4.4483   -1.9775   -1.0249 C.ar      1 ATP         0.6144
     27 N6         -5.2418   -2.9492   -1.3113 N.2       1 ATP        -0.8160
     28 N1         -4.3937   -0.6823   -1.5211 N.pl3     1 ATP        -0.8611
     29 C2         -3.4770    0.2901   -1.1271 C.ar      1 ATP         0.6141
     30 N3         -2.5289    0.1525   -0.2403 N.2       1 ATP        -0.5913
     31 C4         -2.5564   -1.1096    0.2655 C.ar      1 ATP         0.0067
     32 HOG3       -0.8139   -0.8200   -3.4837 H         1 ATP         0.4313
     33 HOB2       -1.8031    4.7732   -2.6956 H         1 ATP         0.4716
     34 H5'1       -1.7770    2.7851    2.1387 H         1 ATP         0.0452
     35 H5'2       -1.1653    2.0543    0.6320 H         1 ATP         0.0452
     36 H4'         0.0403    1.7078    3.4343 H         1 ATP         0.0998
     37 H3'         1.5906    1.4859    1.1353 H         1 ATP         0.0544
     38 HO3'        2.6839   -0.1150    2.2479 H         1 ATP         0.3961
     39 H2'        -0.0017    0.0018    0.0005 H         1 ATP         0.0499
     40 HO2'        2.0953   -0.9375    0.0709 H         1 ATP         0.4045
     41 H1'        -0.1998   -1.6319    2.6178 H         1 ATP         0.0912
     42 H8         -1.5740   -3.5449    2.1457 H         1 ATP         0.1090
     43 HN62       -5.9117   -2.6433   -2.0256 H         1 ATP         0.3694
     44 H2         -3.6225    1.2454   -1.6553 H         1 ATP         0.0371
     45 H45        -5.0794   -0.4231   -2.2258 H         1 ATP         0.4283
@<TRIPOS>BOND
     1    1    2 2
     2    1    3 1
     3    1    4 1
     4    1    8 1
     5    4   32 1
     6    5    6 2
     7    5    7 1
     8    5    8 1
     9    5   12 1
    10    7   33 1
    11    9   10 2
    12    9   11 1
    13    9   12 1
    14    9   13 1
    15   13   14 1
    16   14   15 1
    17   14   34 1
    18   14   35 1
    19   15   16 1
    20   15   17 1
    21   15   36 1
    22   16   21 1
    23   17   18 1
    24   17   19 1
    25   17   37 1
    26   18   38 1
    27   19   20 1
    28   19   21 1
    29   19   39 1
    30   20   40 1
    31   21   22 1
    32   21   41 1
    33   22   23 ar
    34   22   31 ar
    35   23   24 ar
    36   23   42 1
    37   24   25 ar
    38   25   26 ar
    39   25   31 ar
    40   26   27 2
    41   26   28 ar
    42   27   43 1
    43   28   29 ar
    44   28   45 1
    45   29   30 ar
    46   29   44 1
    47   30   31 ar
@<TRIPOS>SUBSTRUCTURE
     1 ATP         1 GROUP 0 A     ****
@<TRIPOS>MOLECULE
[[[3,4-dihydroxy-5-(6-imino-1~{H}-purin-9-yl)tetrahydrofuran-2-yl]methoxy-oxido-phosphoryl]oxy-hydroxy-phosphoryl] hydrogen phosphate
   45    47     1     0     0
SMALL
USER_CHARGES

@<TRIPOS>ATOM
      1 PG         -1.2023    4.4396   -4.5449 P.3       1 ATP         1.5496
      2 O1G        -1.0785    3.2670   -5.4922 O.co2     1 ATP        -0.8494
      3 O2G        -0.5982    5.7829   -4.8882 O.co2     1 ATP        -0.8494
      4 O3G        -2.7819    4.6564   -4.1924 O.3       1 ATP        -0.7845
      5 PB          0.7981    3.5771   -2.5569 P.3       1 ATP         1.9068
      6 O1B         1.4131    2.3973   -3.2498 O.2       1 ATP        -0.8942
      7 O2B         1.6362    4.9546   -2.6748 O.3       1 ATP        -0.8166
      8 O3B        -0.6804    3.9833   -3.0686 O.3       1 ATP        -0.8194
      9 PA         -0.0887    4.4443    0.1194 P.3       1 ATP         1.5903
     10 O1A        -1.5453    4.6749   -0.2200 O.co2     1 ATP        -0.8519
     11 O2A         0.8624    5.6106    0.2776 O.co2     1 ATP        -0.8519
     12 O3A         0.5479    3.4080   -0.9700 O.3       1 ATP        -0.8093
     13 O5'         0.0180    3.5131    1.4595 O.3       1 ATP        -0.5649
     14 C5'        -0.8811    2.4285    1.6206 C.3       1 ATP         0.1979
     15 C4'        -0.1994    1.3333    2.4288 C.3       1 ATP         0.1179
     16 O4'        -1.1285    0.2356    2.5840 O.3       1 ATP        -0.3878
     17 C3'         1.0324    0.7610    1.7344 C.3       1 ATP         0.1185
     18 O3'         1.9175    0.2377    2.7247 O.3       1 ATP        -0.5544
     19 C2'         0.4468   -0.3802    0.9263 C.3       1 ATP         0.0542
     20 O2'         1.3993   -1.3703    0.5961 O.3       1 ATP        -0.5831
     21 C1'        -0.6159   -0.9100    1.8769 C.3       1 ATP         0.2222
     22 N9         -1.7127   -1.6108    1.2130 N.pl3     1 ATP        -0.1887
     23 C8         -1.7690   -2.9583    0.9549 C.ar      1 ATP         0.4447
     24 N7         -2.8827   -3.3076    0.3418 N.2       1 ATP        -0.6159
     25 C5         -3.5683   -2.1351    0.2017 C.ar      1 ATP         0.2195
     26 C6         -4.8617   -1.9185   -0.4044 C.ar      1 ATP         0.6144
     27 N6         -5.5166   -2.9094   -0.8994 N.2       1 ATP        -0.8160
     28 N1         -5.1836   -0.5701   -0.3344 N.pl3     1 ATP        -0.8611
     29 C2         -4.3821    0.4180    0.2330 C.ar      1 ATP         0.6141
     30 N3         -3.2117    0.2488    0.7860 N.2       1 ATP        -0.5913
     31 C4         -2.8672   -1.0657    0.7327 C.ar      1 ATP         0.0067
     32 HOG3       -3.0285    5.3854   -3.5842 H         1 ATP         0.4313
     33 HOB2        1.8105    5.3293   -3.5644 H         1 ATP         0.4716
     34 H5'1       -1.7770    2.7851    2.1387 H         1 ATP         0.0452
     35 H5'2       -1.1653    2.0543    0.6320 H         1 ATP         0.0452
     36 H4'         0.0403    1.7078    3.4343 H         1 ATP         0.0998
     37 H3'         1.5906    1.4859    1.1353 H         1 ATP         0.0544
     38 HO3'        2.6839   -0.1150    2.2479 H         1 ATP         0.3961
     39 H2'        -0.0017    0.0018    0.0005 H         1 ATP         0.0499
     40 HO2'        2.0953   -0.9375    0.0709 H         1 ATP         0.4045
     41 H1'        -0.1998   -1.6319    2.6178 H         1 ATP         0.0912
     42 H8         -0.9697   -3.6300    1.2371 H         1 ATP         0.1090
     43 HN62       -6.4060   -2.5723   -1.2840 H         1 ATP         0.3694
     44 H2         -4.8409    1.4176    0.1757 H         1 ATP         0.0371
     45 H45        -6.0768   -0.2826   -0.7263 H         1 ATP         0.4283
@<TRIPOS>BOND
     1    1    2 2
     2    1    3 1
     3    1    4 1
     4    1    8 1
     5    4   32 1
     6    5    6 2
     7    5    7 1
     8    5    8 1
     9    5   12 1
    10    7   33 1
    11    9   10 2
    12    9   11 1
    13    9   12 1
    14    9   13 1
    15   13   14 1
    16   14   15 1
    17   14   34 1
    18   14   35 1
    19   15   16 1
    20   15   17 1
    21   15   36 1
    22   16   21 1
    23   17   18 1
    24   17   19 1
    25   17   37 1
    26   18   38 1
    27   19   20 1
    28   19   21 1
    29   19   39 1
    30   20   40 1
    31   21   22 1
    32   21   41 1
    33   22   23 ar
    34   22   31 ar
    35   23   24 ar
    36   23   42 1
    37   24   25 ar
    38   25   26 ar
    39   25   31 ar
    40   26   27 2
    41   26   28 ar
    42   27   43 1
    43   28   29 ar
    44   28   45 1
    45   29   30 ar
    46   29   44 1
    47   30   31 ar
@<TRIPOS>SUBSTRUCTURE
     1 ATP         1 GROUP 0 A     ****
@<TRIPOS>MOLECULE
[[[3,4-dihydroxy-5-(6-imino-1~{H}-purin-9-yl)tetrahydrofuran-2-yl]methoxy-oxido-phosphoryl]oxy-hydroxy-phosphoryl] hydrogen phosphate
   45    47     1     0     0
SMALL
USER_CHARGES

@<TRIPOS>ATOM
      1 PG         -2.1168    7.9430   -1.2995 P.3       1 ATP         1.5496
      2 O1G        -3.1131    8.9758   -0.8214 O.co2     1 ATP        -0.8494
      3 O2G        -2.0081    7.5888   -2.7659 O.co2     1 ATP        -0.8494
      4 O3G        -0.6351    8.3618   -0.7561 O.3       1 ATP        -0.7845
      5 PB         -3.5540    5.5326   -0.3926 P.3       1 ATP         1.9068
      6 O1B        -4.8685    6.1159    0.0342 O.2       1 ATP        -0.8942
      7 O2B        -3.5455    4.8677   -1.8662 O.3       1 ATP        -0.8166
      8 O3B        -2.3189    6.5746   -0.4354 O.3       1 ATP        -0.8194
      9 PA         -2.5400    4.4094    2.1394 P.3       1 ATP         1.5903
     10 O1A        -3.7863    4.6329    2.9681 O.co2     1 ATP        -0.8519
     11 O2A        -1.3369    5.3143    2.2925 O.co2     1 ATP        -0.8519
     12 O3A        -2.9567    4.3737    0.5611 O.3       1 ATP        -0.8093
     13 O5'        -2.0402    2.8619    2.3130 O.3       1 ATP        -0.5649
     14 C5'        -0.8811    2.4285    1.6206 C.3       1 ATP         0.1979
     15 C4'        -0.1994    1.3333    2.4288 C.3       1 ATP         0.1179
     16 O4'        -1.1285    0.2356    2.5840 O.3       1 ATP        -0.3878
     17 C3'         1.0324    0.7610    1.7344 C.3       1 ATP         0.1185
     18 O3'         1.9175    0.2377    2.7247 O.3       1 ATP        -0.5544
     19 C2'         0.4468   -0.3802    0.9263 C.3       1 ATP         0.0542
     20 O2'         1.3993   -1.3703    0.5961 O.3       1 ATP        -0.5831
     21 C1'        -0.6159   -0.9100    1.8769 C.3       1 ATP         0.2222
     22 N9         -1.7127   -1.6108    1.2130 N.pl3     1 ATP        -0.1887
     23 C8         -1.7690   -2.9583    0.9549 C.ar      1 ATP         0.4447
     24 N7         -2.8827   -3.3076    0.3418 N.2       1 ATP        -0.6159
     25 C5         -3.5683   -2.1351    0.2017 C.ar      1 ATP         0.2195
     26 C6         -4.8617   -1.9185   -0.4044 C.ar      1 ATP         0.6144
     27 N6         -5.5166   -2.9094   -0.8994 N.2       1 ATP        -0.8160
     28 N1         -5.1836   -0.5701   -0.3344 N.pl3     1 ATP        -0.8611
     29 C2         -4.3821    0.4180    0.2330 C.ar      1 ATP         0.6141
     30 N3         -3.2117    0.2488    0.7860 N.2       1 ATP        -0.5913
     31 C4         -2.8672   -1.0657    0.7327 C.ar      1 ATP         0.0067
     32 HOG3        0.1256    7.7862   -0.9845 H         1 ATP         0.4313
     33 HOB2       -3.7624    5.4286   -2.6412 H         1 ATP         0.4716
     34 H5'1       -1.1769    2.0503    0.6369 H         1 ATP         0.0452
     35 H5'2       -0.2081    3.2815    1.4877 H         1 ATP         0.0452
     36 H4'         0.0403    1.7078    3.4343 H         1 ATP         0.0998
     37 H3'         1.5906    1.4859    1.1353 H         1 ATP         0.0544
     38 HO3'        2.6839   -0.1150    2.2479 H         1 ATP         0.3961
     39 H2'        -0.0017    0.0018    0.0005 H         1 ATP         0.0499
     40 HO2'        2.0953   -0.9375    0.0709 H         1 ATP         0.4045
     41 H1'        -0.1998   -1.6319    2.6178 H         1 ATP         0.0912
     42 H8         -0.9697   -3.6300    1.2371 H         1 ATP         0.1090
     43 HN62       -6.4060   -2.5723   -1.2840 H         1 ATP         0.3694
     44 H2         -4.8409    1.4176    0.1757 H         1 ATP         0.0371
     45 H45        -6.0768   -0.2826   -0.7263 H         1 ATP         0.4283
@<TRIPOS>BOND
     1    1    2 2
     2    1    3 1
     3    1    4 1
     4    1    8 1
     5    4   32 1
     6    5    6 2
     7    5    7 1
     8    5    8 1
     9    5   12 1
    10    7   33 1
    11    9   10 2
    12    9   11 1
    13    9   12 1
    14    9   13 1
    15   13   14 1
    16   14   15 1
    17   14   34 1
    18   14   35 1
    19   15   16 1
    20   15   17 1
    21   15   36 1
    22   16   21 1
    23   17   18 1
    24   17   19 1
    25   17   37 1
    26   18   38 1
    27   19   20 1
    28   19   21 1
    29   19   39 1
    30   20   40 1
    31   21   22 1
    32   21   41 1
    33   22   23 ar
    34   22   31 ar
    35   23   24 ar
    36   23   42 1
    37   24   25 ar
    38   25   26 ar
    39   25   31 ar
    40   26   27 2
    41   26   28 ar
    42   27   43 1
    43   28   29 ar
    44   28   45 1
    45   29   30 ar
    46   29   44 1
    47   30   31 ar
@<TRIPOS>SUBSTRUCTURE
     1 ATP         1 GROUP 0 A     ****
@<TRIPOS>MOLECULE
[[[3,4-dihydroxy-5-(6-imino-1~{H}-purin-9-yl)tetrahydrofuran-2-yl]methoxy-oxido-phosphoryl]oxy-hydroxy-phosphoryl] hydrogen phosphate
   45    47     1     0     0
SMALL
USER_CHARGES

@<TRIPOS>ATOM
      1 PG          3.2319    4.9021   -4.4484 P.3       1 ATP         1.5496
      2 O1G         2.3644    4.0906   -3.5121 O.co2     1 ATP        -0.8494
      3 O2G         3.2740    4.5968   -5.9291 O.co2     1 ATP        -0.8494
      4 O3G         2.8665    6.4818   -4.2550 O.3       1 ATP        -0.7845
      5 PB          5.8389    3.7393   -3.7074 P.3       1 ATP         1.9068
      6 O1B         6.2300    3.0545   -4.9835 O.2       1 ATP        -0.8942
      7 O2B         7.0558    4.4354   -2.9024 O.3       1 ATP        -0.8166
      8 O3B         4.7556    4.9282   -3.8672 O.3       1 ATP        -0.8194
      9 PA          5.6601    1.4687   -1.8329 P.3       1 ATP         1.5903
     10 O1A         6.8281    1.8493   -0.9492 O.co2     1 ATP        -0.8519
     11 O2A         5.7910    0.3572   -2.8513 O.co2     1 ATP        -0.8519
     12 O3A         5.1228    2.8061   -2.6001 O.3       1 ATP        -0.8093
     13 O5'         4.3515    1.1574   -0.9027 O.3       1 ATP        -0.5649
     14 C5'         4.0922    1.9801    0.2227 C.3       1 ATP         0.1979
     15 C4'         2.5944    2.0310    0.4653 C.3       1 ATP         0.1179
     16 O4'         1.9327    2.5740   -0.6889 O.3       1 ATP        -0.3878
     17 C3'         1.9685    0.6634    0.6767 C.3       1 ATP         0.1185
     18 O3'         2.1425    0.1975    1.9977 O.3       1 ATP        -0.5544
     19 C2'         0.5176    0.9128    0.3099 C.3       1 ATP         0.0542
     20 O2'        -0.2103    1.4454    1.4152 O.3       1 ATP        -0.5831
     21 C1'         0.6219    1.9765   -0.7844 C.3       1 ATP         0.2222
     22 N9          0.4237    1.4496   -2.1357 N.pl3     1 ATP        -0.1887
     23 C8          1.4069    0.9710   -2.9662 C.ar      1 ATP         0.4447
     24 N7          0.9316    0.5623   -4.1260 N.2       1 ATP        -0.6159
     25 C5         -0.4120    0.7884   -4.0344 C.ar      1 ATP         0.2195
     26 C6         -1.4353    0.5283   -5.0204 C.ar      1 ATP         0.6144
     27 N6         -1.1199    0.0176   -6.1586 N.2       1 ATP        -0.8160
     28 N1         -2.6704    0.9095   -4.5147 N.pl3     1 ATP        -0.8611
     29 C2         -2.8863    1.4571   -3.2520 C.ar      1 ATP         0.6141
     30 N3         -1.9805    1.7017   -2.3442 N.2       1 ATP        -0.5913
     31 C4         -0.7561    1.3381   -2.8112 C.ar      1 ATP         0.0067
     32 HOG3        3.3485    7.1421   -4.7971 H         1 ATP         0.4313
     33 HOB2        7.8019    3.8777   -2.5950 H         1 ATP         0.4716
     34 H5'1        4.6070    1.5617    1.0934 H         1 ATP         0.0452
     35 H5'2        4.4825    2.9836    0.0252 H         1 ATP         0.0452
     36 H4'         2.3751    2.7029    1.3156 H         1 ATP         0.0998
     37 H3'         2.4336   -0.1217   -0.0015 H         1 ATP         0.0544
     38 HO3'        1.7160   -0.6716    2.0397 H         1 ATP         0.3961
     39 H2'         0.0316    0.0155   -0.0339 H         1 ATP         0.0499
     40 HO2'       -0.1608    0.7921    2.1351 H         1 ATP         0.4045
     41 H1'        -0.1474    2.7798   -0.6651 H         1 ATP         0.0912
     42 H8          2.4466    0.9468   -2.6694 H         1 ATP         0.1090
     43 HN62       -1.9661   -0.0965   -6.7275 H         1 ATP         0.3694
     44 H2         -3.9481    1.6825   -3.0660 H         1 ATP         0.0371
     45 H45        -3.4814    0.7753   -5.1133 H         1 ATP         0.4283
@<TRIPOS>BOND
     1    1    2 2
     2    1    3 1
     3    1    4 1
     4    1    8 1
     5    4   32 1
     6    5    6 2
     7    5    7 1
     8    5    8 1
     9    5   12 1
    10    7   33 1
    11    9   10 2
    12    9   11 1
    13    9   12 1
    14    9   13 1
    15   13   14 1
    16   14   15 1
    17   14   34 1
    18   14   35 1
    19   15   16 1
    20   15   17 1
    21   15   36 1
    22   16   21 1
    23   17   18 1
    24   17   19 1
    25   17   37 1
    26   18   38 1
    27   19   20 1
    28   19   21 1
    29   19   39 1
    30   20   40 1
    31   21   22 1
    32   21   41 1
    33   22   23 ar
    34   22   31 ar
    35   23   24 ar
    36   23   42 1
    37   24   25 ar
    38   25   26 ar
    39   25   31 ar
    40   26   27 2
    41   26   28 ar
    42   27   43 1
    43   28   29 ar
    44   28   45 1
    45   29   30 ar
    46   29   44 1
    47   30   31 ar
@<TRIPOS>SUBSTRUCTURE
     1 ATP         1 GROUP 0 A     ****
@<TRIPOS>MOLECULE
[[[3,4-dihydroxy-5-(6-imino-1~{H}-purin-9-yl)tetrahydrofuran-2-yl]methoxy-oxido-phosphoryl]oxy-hydroxy-phosphoryl] hydrogen phosphate
   45    47     1     0     0
SMALL
USER_CHARGES

@<TRIPOS>ATOM
      1 PG         -6.4333    2.0178    1.3015 P.3       1 ATP         1.5496
      2 O1G        -5.3179    1.1394    1.8231 O.co2     1 ATP        -0.8494
      3 O2G        -7.4144    1.4996    0.2737 O.co2     1 ATP        -0.8494
      4 O3G        -7.2746    2.5981    2.5749 O.3       1 ATP        -0.7845
      5 PB         -4.8171    3.7199   -0.4843 P.3       1 ATP         1.9068
      6 O1B        -5.3644    3.3405   -1.8285 O.2       1 ATP        -0.8942
      7 O2B        -4.4431    5.2833   -0.3130 O.3       1 ATP        -0.8166
      8 O3B        -5.7950    3.4205    0.7675 O.3       1 ATP        -0.8194
      9 PA         -1.9975    2.8865   -0.7222 P.3       1 ATP         1.5903
     10 O1A        -1.3784    4.2664   -0.6707 O.co2     1 ATP        -0.8519
     11 O2A        -2.1187    2.1418   -2.0339 O.co2     1 ATP        -0.8519
     12 O3A        -3.4744    2.9460   -0.0285 O.3       1 ATP        -0.8093
     13 O5'        -1.2434    1.9102    0.3514 O.3       1 ATP        -0.5649
     14 C5'        -0.8811    2.4285    1.6206 C.3       1 ATP         0.1979
     15 C4'        -0.1994    1.3333    2.4288 C.3       1 ATP         0.1179
     16 O4'        -1.1285    0.2356    2.5840 O.3       1 ATP        -0.3878
     17 C3'         1.0324    0.7610    1.7344 C.3       1 ATP         0.1185
     18 O3'         1.9175    0.2377    2.7247 O.3       1 ATP        -0.5544
     19 C2'         0.4468   -0.3802    0.9263 C.3       1 ATP         0.0542
     20 O2'         1.3993   -1.3703    0.5961 O.3       1 ATP        -0.5831
     21 C1'        -0.6159   -0.9100    1.8769 C.3       1 ATP         0.2222
     22 N9         -1.7127   -1.6108    1.2130 N.pl3     1 ATP        -0.1887
     23 C8         -2.8662   -1.0361    0.7388 C.ar      1 ATP         0.4447
     24 N7         -3.6774   -1.9166    0.1867 N.2       1 ATP        -0.6159
     25 C5         -3.0159   -3.1045    0.3123 C.ar      1 ATP         0.2195
     26 C6         -3.4377   -4.4169   -0.1199 C.ar      1 ATP         0.6144
     27 N6         -4.5720   -4.5691   -0.7080 N.2       1 ATP        -0.8160
     28 N1         -2.4600   -5.3463    0.2071 N.pl3     1 ATP        -0.8611
     29 C2         -1.2595   -5.0554    0.8515 C.ar      1 ATP         0.6141
     30 N3         -0.8555   -3.8803    1.2516 N.2       1 ATP        -0.5913
     31 C4         -1.7946   -2.9457    0.9448 C.ar      1 ATP         0.0067
     32 HOG3       -8.0372    3.1897    2.3999 H         1 ATP         0.4313
     33 HOB2       -3.7704    5.6782   -0.9077 H         1 ATP         0.4716
     34 H5'1       -0.2034    3.2760    1.4767 H         1 ATP         0.0452
     35 H5'2       -1.7842    2.7761    2.1322 H         1 ATP         0.0452
     36 H4'         0.0403    1.7078    3.4343 H         1 ATP         0.0998
     37 H3'         1.5906    1.4859    1.1353 H         1 ATP         0.0544
     38 HO3'        2.6839   -0.1150    2.2479 H         1 ATP         0.3961
     39 H2'        -0.0017    0.0018    0.0005 H         1 ATP         0.0499
     40 HO2'        2.0953   -0.9375    0.0709 H         1 ATP         0.4045
     41 H1'        -0.1998   -1.6319    2.6178 H         1 ATP         0.0912
     42 H8         -3.0558    0.0252    0.8256 H         1 ATP         0.1090
     43 HN62       -4.7047   -5.5592   -0.9421 H         1 ATP         0.3694
     44 H2         -0.6372   -5.9505    1.0077 H         1 ATP         0.0371
     45 H45        -2.6338   -6.3155   -0.0469 H         1 ATP         0.4283
@<TRIPOS>BOND
     1    1    2 2
     2    1    3 1
     3    1    4 1
     4    1    8 1
     5    4   32 1
     6    5    6 2
     7    5    7 1
     8    5    8 1
     9    5   12 1
    10    7   33 1
    11    9   10 2
    12    9   11 1
    13    9   12 1
    14    9   13 1
    15   13   14 1
    16   14   15 1
    17   14   34 1
    18   14   35 1
    19   15   16 1
    20   15   17 1
    21   15   36 1
    22   16   21 1
    23   17   18 1
    24   17   19 1
    25   17   37 1
    26   18   38 1
    27   19   20 1
    28   19   21 1
    29   19   39 1
    30   20   40 1
    31   21   22 1
    32   21   41 1
    33   22   23 ar
    34   22   31 ar
    35   23   24 ar
    36   23   42 1
    37   24   25 ar
    38   25   26 ar
    39   25   31 ar
    40   26   27 2
    41   26   28 ar
    42   27   43 1
    43   28   29 ar
    44   28   45 1
    45   29   30 ar
    46   29   44 1
    47   30   31 ar
@<TRIPOS>SUBSTRUCTURE
     1 ATP         1 GROUP 0 A     ****
@<TRIPOS>MOLECULE
[[[3,4-dihydroxy-5-(6-imino-1~{H}-purin-9-yl)tetrahydrofuran-2-yl]methoxy-oxido-phosphoryl]oxy-hydroxy-phosphoryl] hydrogen phosphate
   45    47     1     0     0
SMALL
USER_CHARGES

@<TRIPOS>ATOM
      1 PG         -4.5649    5.1675   -3.1390 P.3       1 ATP         1.5496
      2 O1G        -3.7003    6.2036   -3.8222 O.co2     1 ATP        -0.8494
      3 O2G        -6.0283    5.4345   -2.8661 O.co2     1 ATP        -0.8494
      4 O3G        -4.4388    3.7630   -3.9622 O.3       1 ATP        -0.7845
      5 PB         -3.5540    5.5326   -0.3926 P.3       1 ATP         1.9068
      6 O1B        -2.6951    6.7519   -0.5540 O.2       1 ATP        -0.8942
      7 O2B        -5.0300    5.8084    0.2065 O.3       1 ATP        -0.8166
      8 O3B        -3.8407    4.7067   -1.7522 O.3       1 ATP        -0.8194
      9 PA         -2.5400    4.4094    2.1394 P.3       1 ATP         1.5903
     10 O1A        -3.7863    4.6329    2.9681 O.co2     1 ATP        -0.8519
     11 O2A        -1.3369    5.3143    2.2925 O.co2     1 ATP        -0.8519
     12 O3A        -2.9567    4.3737    0.5611 O.3       1 ATP        -0.8093
     13 O5'        -2.0402    2.8619    2.3130 O.3       1 ATP        -0.5649
     14 C5'        -0.8811    2.4285    1.6206 C.3       1 ATP         0.1979
     15 C4'        -0.1994    1.3333    2.4288 C.3       1 ATP         0.1179
     16 O4'        -1.1285    0.2356    2.5840 O.3       1 ATP        -0.3878
     17 C3'         1.0324    0.7610    1.7344 C.3       1 ATP         0.1185
     18 O3'         1.9175    0.2377    2.7247 O.3       1 ATP        -0.5544
     19 C2'         0.4468   -0.3802    0.9263 C.3       1 ATP         0.0542
     20 O2'         1.3993   -1.3703    0.5961 O.3       1 ATP        -0.5831
     21 C1'        -0.6159   -0.9100    1.8769 C.3       1 ATP         0.2222
     22 N9         -1.7127   -1.6108    1.2130 N.pl3     1 ATP        -0.1887
     23 C8         -2.8662   -1.0361    0.7388 C.ar      1 ATP         0.4447
     24 N7         -3.6774   -1.9166    0.1867 N.2       1 ATP        -0.6159
     25 C5         -3.0159   -3.1045    0.3123 C.ar      1 ATP         0.2195
     26 C6         -3.4377   -4.4169   -0.1199 C.ar      1 ATP         0.6144
     27 N6         -4.5720   -4.5691   -0.7080 N.2       1 ATP        -0.8160
     28 N1         -2.4600   -5.3463    0.2071 N.pl3     1 ATP        -0.8611
     29 C2         -1.2595   -5.0554    0.8515 C.ar      1 ATP         0.6141
     30 N3         -0.8555   -3.8803    1.2516 N.2       1 ATP        -0.5913
     31 C4         -1.7946   -2.9457    0.9448 C.ar      1 ATP         0.0067
     32 HOG3       -4.9451    2.9867   -3.6410 H         1 ATP         0.4313
     33 HOB2       -5.6376    6.4024   -0.2834 H         1 ATP         0.4716
     34 H5'1       -1.1769    2.0503    0.6369 H         1 ATP         0.0452
     35 H5'2       -0.2081    3.2815    1.4877 H         1 ATP         0.0452
     36 H4'         0.0403    1.7078    3.4343 H         1 ATP         0.0998
     37 H3'         1.5906    1.4859    1.1353 H         1 ATP         0.0544
     38 HO3'        2.6839   -0.1150    2.2479 H         1 ATP         0.3961
     39 H2'        -0.0017    0.0018    0.0005 H         1 ATP         0.0499
     40 HO2'        0.9369   -2.0558    0.0825 H         1 ATP         0.4045
     41 H1'        -0.1998   -1.6319    2.6178 H         1 ATP         0.0912
     42 H8         -3.0558    0.0252    0.8256 H         1 ATP         0.1090
     43 HN62       -4.7047   -5.5592   -0.9421 H         1 ATP         0.3694
     44 H2         -0.6372   -5.9505    1.0077 H         1 ATP         0.0371
     45 H45        -2.6338   -6.3155   -0.0469 H         1 ATP         0.4283
@<TRIPOS>BOND
     1    1    2 2
     2    1    3 1
     3    1    4 1
     4    1    8 1
     5    4   32 1
     6    5    6 2
     7    5    7 1
     8    5    8 1
     9    5   12 1
    10    7   33 1
    11    9   10 2
    12    9   11 1
    13    9   12 1
    14    9   13 1
    15   13   14 1
    16   14   15 1
    17   14   34 1
    18   14   35 1
    19   15   16 1
    20   15   17 1
    21   15   36 1
    22   16   21 1
    23   17   18 1
    24   17   19 1
    25   17   37 1
    26   18   38 1
    27   19   20 1
    28   19   21 1
    29   19   39 1
    30   20   40 1
    31   21   22 1
    32   21   41 1
    33   22   23 ar
    34   22   31 ar
    35   23   24 ar
    36   23   42 1
    37   24   25 ar
    38   25   26 ar
    39   25   31 ar
    40   26   27 2
    41   26   28 ar
    42   27   43 1
    43   28   29 ar
    44   28   45 1
    45   29   30 ar
    46   29   44 1
    47   30   31 ar
@<TRIPOS>SUBSTRUCTURE
     1 ATP         1 GROUP 0 A     ****
@<TRIPOS>MOLECULE
[[[3,4-dihydroxy-5-(6-imino-1~{H}-purin-9-yl)tetrahydrofuran-2-yl]methoxy-oxido-phosphoryl]oxy-hydroxy-phosphoryl] hydrogen phosphate
   45    47     1     0     0
SMALL
USER_CHARGES

@<TRIPOS>ATOM
      1 PG         -2.1168    7.9430   -1.2995 P.3       1 ATP         1.5496
      2 O1G        -3.1131    8.9758   -0.8214 O.co2     1 ATP        -0.8494
      3 O2G        -2.0081    7.5888   -2.7659 O.co2     1 ATP        -0.8494
      4 O3G        -0.6351    8.3618   -0.7561 O.3       1 ATP        -0.7845
      5 PB         -3.5540    5.5326   -0.3926 P.3       1 ATP         1.9068
      6 O1B        -4.8685    6.1159    0.0342 O.2       1 ATP        -0.8942
      7 O2B        -3.5455    4.8677   -1.8662 O.3       1 ATP        -0.8166
      8 O3B        -2.3189    6.5746   -0.4354 O.3       1 ATP        -0.8194
      9 PA         -2.5400    4.4094    2.1394 P.3       1 ATP         1.5903
     10 O1A        -3.7863    4.6329    2.9681 O.co2     1 ATP        -0.8519
     11 O2A        -1.3369    5.3143    2.2925 O.co2     1 ATP        -0.8519
     12 O3A        -2.9567    4.3737    0.5611 O.3       1 ATP        -0.8093
     13 O5'        -2.0402    2.8619    2.3130 O.3       1 ATP        -0.5649
     14 C5'        -0.8811    2.4285    1.6206 C.3       1 ATP         0.1979
     15 C4'        -0.1994    1.3333    2.4288 C.3       1 ATP         0.1179
     16 O4'        -1.1285    0.2356    2.5840 O.3       1 ATP        -0.3878
     17 C3'         1.0324    0.7610    1.7344 C.3       1 ATP         0.1185
     18 O3'         1.9175    0.2377    2.7247 O.3       1 ATP        -0.5544
     19 C2'         0.4468   -0.3802    0.9263 C.3       1 ATP         0.0542
     20 O2'         1.3993   -1.3703    0.5961 O.3       1 ATP        -0.5831
     21 C1'        -0.6159   -0.9100    1.8769 C.3       1 ATP         0.2222
     22 N9         -1.7127   -1.6108    1.2130 N.pl3     1 ATP        -0.1887
     23 C8         -2.8662   -1.0361    0.7388 C.ar      1 ATP         0.4447
     24 N7         -3.6774   -1.9166    0.1867 N.2       1 ATP        -0.6159
     25 C5         -3.0159   -3.1045    0.3123 C.ar      1 ATP         0.2195
     26 C6         -3.4377   -4.4169   -0.1199 C.ar      1 ATP         0.6144
     27 N6         -4.5720   -4.5691   -0.7080 N.2       1 ATP        -0.8160
     28 N1         -2.4600   -5.3463    0.2071 N.pl3     1 ATP        -0.8611
     29 C2         -1.2595   -5.0554    0.8515 C.ar      1 ATP         0.6141
     30 N3         -0.8555   -3.8803    1.2516 N.2       1 ATP        -0.5913
     31 C4         -1.7946   -2.9457    0.9448 C.ar      1 ATP         0.0067
     32 HOG3        0.1256    7.7862   -0.9845 H         1 ATP         0.4313
     33 HOB2       -3.7624    5.4286   -2.6412 H         1 ATP         0.4716
     34 H5'1       -1.1769    2.0503    0.6369 H         1 ATP         0.0452
     35 H5'2       -0.2081    3.2815    1.4877 H         1 ATP         0.0452
     36 H4'         0.0403    1.7078    3.4343 H         1 ATP         0.0998
     37 H3'         1.5906    1.4859    1.1353 H         1 ATP         0.0544
     38 HO3'        2.1521    0.9800    3.3017 H         1 ATP         0.3961
     39 H2'        -0.0017    0.0018    0.0005 H         1 ATP         0.0499
     40 HO2'        0.9369   -2.0558    0.0825 H         1 ATP         0.4045
     41 H1'        -0.1998   -1.6319    2.6178 H         1 ATP         0.0912
     42 H8         -3.0558    0.0252    0.8256 H         1 ATP         0.1090
     43 HN62       -4.7047   -5.5592   -0.9421 H         1 ATP         0.3694
     44 H2         -0.6372   -5.9505    1.0077 H         1 ATP         0.0371
     45 H45        -2.6338   -6.3155   -0.0469 H         1 ATP         0.4283
@<TRIPOS>BOND
     1    1    2 2
     2    1    3 1
     3    1    4 1
     4    1    8 1
     5    4   32 1
     6    5    6 2
     7    5    7 1
     8    5    8 1
     9    5   12 1
    10    7   33 1
    11    9   10 2
    12    9   11 1
    13    9   12 1
    14    9   13 1
    15   13   14 1
    16   14   15 1
    17   14   34 1
    18   14   35 1
    19   15   16 1
    20   15   17 1
    21   15   36 1
    22   16   21 1
    23   17   18 1
    24   17   19 1
    25   17   37 1
    26   18   38 1
    27   19   20 1
    28   19   21 1
    29   19   39 1
    30   20   40 1
    31   21   22 1
    32   21   41 1
    33   22   23 ar
    34   22   31 ar
    35   23   24 ar
    36   23   42 1
    37   24   25 ar
    38   25   26 ar
    39   25   31 ar
    40   26   27 2
    41   26   28 ar
    42   27   43 1
    43   28   29 ar
    44   28   45 1
    45   29   30 ar
    46   29   44 1
    47   30   31 ar
@<TRIPOS>SUBSTRUCTURE
     1 ATP         1 GROUP 0 A     ****
@<TRIPOS>MOLECULE
[[[3,4-dihydroxy-5-(6-imino-1~{H}-purin-9-yl)tetrahydrofuran-2-yl]methoxy-oxido-phosphoryl]oxy-hydroxy-phosphoryl] hydrogen phosphate
   45    47     1     0     0
SMALL
USER_CHARGES

@<TRIPOS>ATOM
      1 PG          1.1463    7.8966    4.7449 P.3       1 ATP         1.5496
      2 O1G         0.4031    8.6139    5.8498 O.co2     1 ATP        -0.8494
      3 O2G         1.7210    8.6597    3.5724 O.co2     1 ATP        -0.8494
      4 O3G         2.3371    7.0036    5.4161 O.3       1 ATP        -0.7845
      5 PB         -1.1858    6.7202    3.3754 P.3       1 ATP         1.9068
      6 O1B        -2.3191    7.3943    4.0906 O.2       1 ATP        -0.8942
      7 O2B        -0.7884    7.3741    1.9513 O.3       1 ATP        -0.8166
      8 O3B         0.2137    6.6820    4.1833 O.3       1 ATP        -0.8194
      9 PA         -2.5400    4.4094    2.1394 P.3       1 ATP         1.5903
     10 O1A        -2.3768    4.8333    0.6960 O.co2     1 ATP        -0.8519
     11 O2A        -3.8714    4.5574    2.8431 O.co2     1 ATP        -0.8519
     12 O3A        -1.3993    5.1547    3.0391 O.3       1 ATP        -0.8093
     13 O5'        -2.0402    2.8619    2.3130 O.3       1 ATP        -0.5649
     14 C5'        -0.8811    2.4285    1.6206 C.3       1 ATP         0.1979
     15 C4'        -0.1994    1.3333    2.4288 C.3       1 ATP         0.1179
     16 O4'        -1.1285    0.2356    2.5840 O.3       1 ATP        -0.3878
     17 C3'         1.0324    0.7610    1.7344 C.3       1 ATP         0.1185
     18 O3'         1.9175    0.2377    2.7247 O.3       1 ATP        -0.5544
     19 C2'         0.4468   -0.3802    0.9263 C.3       1 ATP         0.0542
     20 O2'         1.3993   -1.3703    0.5961 O.3       1 ATP        -0.5831
     21 C1'        -0.6159   -0.9100    1.8769 C.3       1 ATP         0.2222
     22 N9         -1.7127   -1.6108    1.2130 N.pl3     1 ATP        -0.1887
     23 C8         -1.7690   -2.9583    0.9549 C.ar      1 ATP         0.4447
     24 N7         -2.8827   -3.3076    0.3418 N.2       1 ATP        -0.6159
     25 C5         -3.5683   -2.1351    0.2017 C.ar      1 ATP         0.2195
     26 C6         -4.8617   -1.9185   -0.4044 C.ar      1 ATP         0.6144
     27 N6         -5.5166   -2.9094   -0.8994 N.2       1 ATP        -0.8160
     28 N1         -5.1836   -0.5701   -0.3344 N.pl3     1 ATP        -0.8611
     29 C2         -4.3821    0.4180    0.2330 C.ar      1 ATP         0.6141
     30 N3         -3.2117    0.2488    0.7860 N.2       1 ATP        -0.5913
     31 C4         -2.8672   -1.0657    0.7327 C.ar      1 ATP         0.0067
     32 HOG3        2.9139    6.4748    4.8247 H         1 ATP         0.4313
     33 HOB2       -0.4971    8.3104    1.9238 H         1 ATP         0.4716
     34 H5'1       -1.1769    2.0503    0.6369 H         1 ATP         0.0452
     35 H5'2       -0.2081    3.2815    1.4877 H         1 ATP         0.0452
     36 H4'         0.0403    1.7078    3.4343 H         1 ATP         0.0998
     37 H3'         1.5906    1.4859    1.1353 H         1 ATP         0.0544
     38 HO3'        2.6839   -0.1150    2.2479 H         1 ATP         0.3961
     39 H2'        -0.0017    0.0018    0.0005 H         1 ATP         0.0499
     40 HO2'        0.9369   -2.0558    0.0825 H         1 ATP         0.4045
     41 H1'        -0.1998   -1.6319    2.6178 H         1 ATP         0.0912
     42 H8         -0.9697   -3.6300    1.2371 H         1 ATP         0.1090
     43 HN62       -6.4060   -2.5723   -1.2840 H         1 ATP         0.3694
     44 H2         -4.8409    1.4176    0.1757 H         1 ATP         0.0371
     45 H45        -6.0768   -0.2826   -0.7263 H         1 ATP         0.4283
@<TRIPOS>BOND
     1    1    2 2
     2    1    3 1
     3    1    4 1
     4    1    8 1
     5    4   32 1
     6    5    6 2
     7    5    7 1
     8    5    8 1
     9    5   12 1
    10    7   33 1
    11    9   10 2
    12    9   11 1
    13    9   12 1
    14    9   13 1
    15   13   14 1
    16   14   15 1
    17   14   34 1
    18   14   35 1
    19   15   16 1
    20   15   17 1
    21   15   36 1
    22   16   21 1
    23   17   18 1
    24   17   19 1
    25   17   37 1
    26   18   38 1
    27   19   20 1
    28   19   21 1
    29   19   39 1
    30   20   40 1
    31   21   22 1
    32   21   41 1
    33   22   23 ar
    34   22   31 ar
    35   23   24 ar
    36   23   42 1
    37   24   25 ar
    38   25   26 ar
    39   25   31 ar
    40   26   27 2
    41   26   28 ar
    42   27   43 1
    43   28   29 ar
    44   28   45 1
    45   29   30 ar
    46   29   44 1
    47   30   31 ar
@<TRIPOS>SUBSTRUCTURE
     1 ATP         1 GROUP 0 A     ****
@<TRIPOS>MOLECULE
[[[3,4-dihydroxy-5-(6-imino-1~{H}-purin-9-yl)tetrahydrofuran-2-yl]methoxy-oxido-phosphoryl]oxy-hydroxy-phosphoryl] hydrogen phosphate
   45    47     1     0     0
SMALL
USER_CHARGES

@<TRIPOS>ATOM
      1 PG         -0.1915    8.2578    4.1839 P.3       1 ATP         1.5496
      2 O1G         0.7077    7.5907    5.2009 O.co2     1 ATP        -0.8494
      3 O2G        -1.4203    9.0251    4.6182 O.co2     1 ATP        -0.8494
      4 O3G         0.7222    9.2312    3.2438 O.3       1 ATP        -0.7845
      5 PB         -1.5436    5.8374    3.1783 P.3       1 ATP         1.9068
      6 O1B        -1.0541    4.8019    4.1469 O.2       1 ATP        -0.8942
      7 O2B        -3.0168    6.4257    3.4903 O.3       1 ATP        -0.8166
      8 O3B        -0.6210    7.1591    3.0576 O.3       1 ATP        -0.8194
      9 PA         -0.4664    4.8322    0.6228 P.3       1 ATP         1.5903
     10 O1A         0.6558    5.8467    0.5865 O.co2     1 ATP        -0.8519
     11 O2A        -1.1276    4.3642   -0.6553 O.co2     1 ATP        -0.8519
     12 O3A        -1.6298    5.3702    1.6343 O.3       1 ATP        -0.8093
     13 O5'         0.0180    3.5131    1.4595 O.3       1 ATP        -0.5649
     14 C5'        -0.8811    2.4285    1.6206 C.3       1 ATP         0.1979
     15 C4'        -0.1994    1.3333    2.4288 C.3       1 ATP         0.1179
     16 O4'        -1.1285    0.2356    2.5840 O.3       1 ATP        -0.3878
     17 C3'         1.0324    0.7610    1.7344 C.3       1 ATP         0.1185
     18 O3'         1.9175    0.2377    2.7247 O.3       1 ATP        -0.5544
     19 C2'         0.4468   -0.3802    0.9263 C.3       1 ATP         0.0542
     20 O2'         1.3993   -1.3703    0.5961 O.3       1 ATP        -0.5831
     21 C1'        -0.6159   -0.9100    1.8769 C.3       1 ATP         0.2222
     22 N9         -1.7127   -1.6108    1.2130 N.pl3     1 ATP        -0.1887
     23 C8         -1.7690   -2.9583    0.9549 C.ar      1 ATP         0.4447
     24 N7         -2.8827   -3.3076    0.3418 N.2       1 ATP        -0.6159
     25 C5         -3.5683   -2.1351    0.2017 C.ar      1 ATP         0.2195
     26 C6         -4.8617   -1.9185   -0.4044 C.ar      1 ATP         0.6144
     27 N6         -5.5166   -2.9094   -0.8994 N.2       1 ATP        -0.8160
     28 N1         -5.1836   -0.5701   -0.3344 N.pl3     1 ATP        -0.8611
     29 C2         -4.3821    0.4180    0.2330 C.ar      1 ATP         0.6141
     30 N3         -3.2117    0.2488    0.7860 N.2       1 ATP        -0.5913
     31 C4         -2.8672   -1.0657    0.7327 C.ar      1 ATP         0.0067
     32 HOG3        0.2809    9.7385    2.5297 H         1 ATP         0.4313
     33 HOB2       -3.1753    6.8791    4.3456 H         1 ATP         0.4716
     34 H5'1       -1.7770    2.7851    2.1387 H         1 ATP         0.0452
     35 H5'2       -1.1653    2.0543    0.6320 H         1 ATP         0.0452
     36 H4'         0.0403    1.7078    3.4343 H         1 ATP         0.0998
     37 H3'         1.5906    1.4859    1.1353 H         1 ATP         0.0544
     38 HO3'        2.6839   -0.1150    2.2479 H         1 ATP         0.3961
     39 H2'        -0.0017    0.0018    0.0005 H         1 ATP         0.0499
     40 HO2'        2.0953   -0.9375    0.0709 H         1 ATP         0.4045
     41 H1'        -0.1998   -1.6319    2.6178 H         1 ATP         0.0912
     42 H8         -0.9697   -3.6300    1.2371 H         1 ATP         0.1090
     43 HN62       -6.4060   -2.5723   -1.2840 H         1 ATP         0.3694
     44 H2         -4.8409    1.4176    0.1757 H         1 ATP         0.0371
     45 H45        -6.0768   -0.2826   -0.7263 H         1 ATP         0.4283
@<TRIPOS>BOND
     1    1    2 2
     2    1    3 1
     3    1    4 1
     4    1    8 1
     5    4   32 1
     6    5    6 2
     7    5    7 1
     8    5    8 1
     9    5   12 1
    10    7   33 1
    11    9   10 2
    12    9   11 1
    13    9   12 1
    14    9   13 1
    15   13   14 1
    16   14   15 1
    17   14   34 1
    18   14   35 1
    19   15   16 1
    20   15   17 1
    21   15   36 1
    22   16   21 1
    23   17   18 1
    24   17   19 1
    25   17   37 1
    26   18   38 1
    27   19   20 1
    28   19   21 1
    29   19   39 1
    30   20   40 1
    31   21   22 1
    32   21   41 1
    33   22   23 ar
    34   22   31 ar
    35   23   24 ar
    36   23   42 1
    37   24   25 ar
    38   25   26 ar
    39   25   31 ar
    40   26   27 2
    41   26   28 ar
    42   27   43 1
    43   28   29 ar
    44   28   45 1
    45   29   30 ar
    46   29   44 1
    47   30   31 ar
@<TRIPOS>SUBSTRUCTURE
     1 ATP         1 GROUP 0 A     ****
@<TRIPOS>MOLECULE
[[[3,4-dihydroxy-5-(6-imino-1~{H}-purin-9-yl)tetrahydrofuran-2-yl]methoxy-oxido-phosphoryl]oxy-hydroxy-phosphoryl] hydrogen phosphate
   45    47     1     0     0
SMALL
USER_CHARGES

@<TRIPOS>ATOM
      1 PG         -4.8507    5.4931    0.9855 P.3       1 ATP         1.5496
      2 O1G        -5.8638    6.3142    1.7516 O.co2     1 ATP        -0.8494
      3 O2G        -4.2474    4.2439    1.5881 O.co2     1 ATP        -0.8494
      4 O3G        -5.4862    5.1118   -0.4695 O.3       1 ATP        -0.7845
      5 PB         -2.3937    6.1799   -0.4942 P.3       1 ATP         1.9068
      6 O1B        -2.7514    5.7368   -1.8820 O.2       1 ATP        -0.8942
      7 O2B        -1.5191    7.5370   -0.4121 O.3       1 ATP        -0.8166
      8 O3B        -3.6491    6.4737    0.4806 O.3       1 ATP        -0.8194
      9 PA         -0.0887    4.4443    0.1194 P.3       1 ATP         1.5903
     10 O1A         0.9662    5.5280    0.1728 O.co2     1 ATP        -0.8519
     11 O2A        -0.1996    3.5315   -1.0824 O.co2     1 ATP        -0.8519
     12 O3A        -1.5511    5.1197    0.3865 O.3       1 ATP        -0.8093
     13 O5'         0.0180    3.5131    1.4595 O.3       1 ATP        -0.5649
     14 C5'        -0.8811    2.4285    1.6206 C.3       1 ATP         0.1979
     15 C4'        -0.1994    1.3333    2.4288 C.3       1 ATP         0.1179
     16 O4'        -1.1285    0.2356    2.5840 O.3       1 ATP        -0.3878
     17 C3'         1.0324    0.7610    1.7344 C.3       1 ATP         0.1185
     18 O3'         1.9175    0.2377    2.7247 O.3       1 ATP        -0.5544
     19 C2'         0.4468   -0.3802    0.9263 C.3       1 ATP         0.0542
     20 O2'         1.3993   -1.3703    0.5961 O.3       1 ATP        -0.5831
     21 C1'        -0.6159   -0.9100    1.8769 C.3       1 ATP         0.2222
     22 N9         -1.7127   -1.6108    1.2130 N.pl3     1 ATP        -0.1887
     23 C8         -1.7690   -2.9583    0.9549 C.ar      1 ATP         0.4447
     24 N7         -2.8827   -3.3076    0.3418 N.2       1 ATP        -0.6159
     25 C5         -3.5683   -2.1351    0.2017 C.ar      1 ATP         0.2195
     26 C6         -4.8617   -1.9185   -0.4044 C.ar      1 ATP         0.6144
     27 N6         -5.5166   -2.9094   -0.8994 N.2       1 ATP        -0.8160
     28 N1         -5.1836   -0.5701   -0.3344 N.pl3     1 ATP        -0.8611
     29 C2         -4.3821    0.4180    0.2330 C.ar      1 ATP         0.6141
     30 N3         -3.2117    0.2488    0.7860 N.2       1 ATP        -0.5913
     31 C4         -2.8672   -1.0657    0.7327 C.ar      1 ATP         0.0067
     32 HOG3       -4.9461    4.5764   -1.0889 H         1 ATP         0.4313
     33 HOB2       -0.6414    7.5632   -0.8495 H         1 ATP         0.4716
     34 H5'1       -1.7770    2.7851    2.1387 H         1 ATP         0.0452
     35 H5'2       -1.1653    2.0543    0.6320 H         1 ATP         0.0452
     36 H4'         0.0403    1.7078    3.4343 H         1 ATP         0.0998
     37 H3'         1.5906    1.4859    1.1353 H         1 ATP         0.0544
     38 HO3'        2.6839   -0.1150    2.2479 H         1 ATP         0.3961
     39 H2'        -0.0017    0.0018    0.0005 H         1 ATP         0.0499
     40 HO2'        2.0953   -0.9375    0.0709 H         1 ATP         0.4045
     41 H1'        -0.1998   -1.6319    2.6178 H         1 ATP         0.0912
     42 H8         -0.9697   -3.6300    1.2371 H         1 ATP         0.1090
     43 HN62       -6.4060   -2.5723   -1.2840 H         1 ATP         0.3694
     44 H2         -4.8409    1.4176    0.1757 H         1 ATP         0.0371
     45 H45        -6.0768   -0.2826   -0.7263 H         1 ATP         0.4283
@<TRIPOS>BOND
     1    1    2 2
     2    1    3 1
     3    1    4 1
     4    1    8 1
     5    4   32 1
     6    5    6 2
     7    5    7 1
     8    5    8 1
     9    5   12 1
    10    7   33 1
    11    9   10 2
    12    9   11 1
    13    9   12 1
    14    9   13 1
    15   13   14 1
    16   14   15 1
    17   14   34 1
    18   14   35 1
    19   15   16 1
    20   15   17 1
    21   15   36 1
    22   16   21 1
    23   17   18 1
    24   17   19 1
    25   17   37 1
    26   18   38 1
    27   19   20 1
    28   19   21 1
    29   19   39 1
    30   20   40 1
    31   21   22 1
    32   21   41 1
    33   22   23 ar
    34   22   31 ar
    35   23   24 ar
    36   23   42 1
    37   24   25 ar
    38   25   26 ar
    39   25   31 ar
    40   26   27 2
    41   26   28 ar
    42   27   43 1
    43   28   29 ar
    44   28   45 1
    45   29   30 ar
    46   29   44 1
    47   30   31 ar
@<TRIPOS>SUBSTRUCTURE
     1 ATP         1 GROUP 0 A     ****
@<TRIPOS>MOLECULE
[[[3,4-dihydroxy-5-(6-imino-1~{H}-purin-9-yl)tetrahydrofuran-2-yl]methoxy-oxido-phosphoryl]oxy-hydroxy-phosphoryl] hydrogen phosphate
   45    47     1     0     0
SMALL
USER_CHARGES

@<TRIPOS>ATOM
      1 PG         -4.7802    7.0157   -0.4333 P.3       1 ATP         1.5496
      2 O1G        -4.3354    8.3452   -1.0009 O.co2     1 ATP        -0.8494
      3 O2G        -5.9470    6.9315    0.5253 O.co2     1 ATP        -0.8494
      4 O3G        -5.0522    5.9880   -1.6726 O.3       1 ATP        -0.7845
      5 PB         -2.6041    6.6540    1.5242 P.3       1 ATP         1.9068
      6 O1B        -1.9207    7.9877    1.4556 O.2       1 ATP        -0.8942
      7 O2B        -3.6297    6.4722    2.7606 O.3       1 ATP        -0.8166
      8 O3B        -3.4919    6.2670    0.2300 O.3       1 ATP        -0.8194
      9 PA         -0.4664    4.8322    0.6228 P.3       1 ATP         1.5903
     10 O1A         0.6558    5.8467    0.5865 O.co2     1 ATP        -0.8519
     11 O2A        -1.1276    4.3642   -0.6553 O.co2     1 ATP        -0.8519
     12 O3A        -1.6298    5.3702    1.6343 O.3       1 ATP        -0.8093
     13 O5'         0.0180    3.5131    1.4595 O.3       1 ATP        -0.5649
     14 C5'        -0.8811    2.4285    1.6206 C.3       1 ATP         0.1979
     15 C4'        -0.1994    1.3333    2.4288 C.3       1 ATP         0.1179
     16 O4'        -1.1285    0.2356    2.5840 O.3       1 ATP        -0.3878
     17 C3'         1.0324    0.7610    1.7344 C.3       1 ATP         0.1185
     18 O3'         1.9175    0.2377    2.7247 O.3       1 ATP        -0.5544
     19 C2'         0.4468   -0.3802    0.9263 C.3       1 ATP         0.0542
     20 O2'         1.3993   -1.3703    0.5961 O.3       1 ATP        -0.5831
     21 C1'        -0.6159   -0.9100    1.8769 C.3       1 ATP         0.2222
     22 N9         -1.7127   -1.6108    1.2130 N.pl3     1 ATP        -0.1887
     23 C8         -1.7690   -2.9583    0.9549 C.ar      1 ATP         0.4447
     24 N7         -2.8827   -3.3076    0.3418 N.2       1 ATP        -0.6159
     25 C5         -3.5683   -2.1351    0.2017 C.ar      1 ATP         0.2195
     26 C6         -4.8617   -1.9185   -0.4044 C.ar      1 ATP         0.6144
     27 N6         -5.5166   -2.9094   -0.8994 N.2       1 ATP        -0.8160
     28 N1         -5.1836   -0.5701   -0.3344 N.pl3     1 ATP        -0.8611
     29 C2         -4.3821    0.4180    0.2330 C.ar      1 ATP         0.6141
     30 N3         -3.2117    0.2488    0.7860 N.2       1 ATP        -0.5913
     31 C4         -2.8672   -1.0657    0.7327 C.ar      1 ATP         0.0067
     32 HOG3       -5.3494    5.0762   -1.4662 H         1 ATP         0.4313
     33 HOB2       -4.3962    7.0799    2.8345 H         1 ATP         0.4716
     34 H5'1       -1.7770    2.7851    2.1387 H         1 ATP         0.0452
     35 H5'2       -1.1653    2.0543    0.6320 H         1 ATP         0.0452
     36 H4'         0.0403    1.7078    3.4343 H         1 ATP         0.0998
     37 H3'         1.5906    1.4859    1.1353 H         1 ATP         0.0544
     38 HO3'        2.6839   -0.1150    2.2479 H         1 ATP         0.3961
     39 H2'        -0.0017    0.0018    0.0005 H         1 ATP         0.0499
     40 HO2'        2.0953   -0.9375    0.0709 H         1 ATP         0.4045
     41 H1'        -0.1998   -1.6319    2.6178 H         1 ATP         0.0912
     42 H8         -0.9697   -3.6300    1.2371 H         1 ATP         0.1090
     43 HN62       -6.4060   -2.5723   -1.2840 H         1 ATP         0.3694
     44 H2         -4.8409    1.4176    0.1757 H         1 ATP         0.0371
     45 H45        -6.0768   -0.2826   -0.7263 H         1 ATP         0.4283
@<TRIPOS>BOND
     1    1    2 2
     2    1    3 1
     3    1    4 1
     4    1    8 1
     5    4   32 1
     6    5    6 2
     7    5    7 1
     8    5    8 1
     9    5   12 1
    10    7   33 1
    11    9   10 2
    12    9   11 1
    13    9   12 1
    14    9   13 1
    15   13   14 1
    16   14   15 1
    17   14   34 1
    18   14   35 1
    19   15   16 1
    20   15   17 1
    21   15   36 1
    22   16   21 1
    23   17   18 1
    24   17   19 1
    25   17   37 1
    26   18   38 1
    27   19   20 1
    28   19   21 1
    29   19   39 1
    30   20   40 1
    31   21   22 1
    32   21   41 1
    33   22   23 ar
    34   22   31 ar
    35   23   24 ar
    36   23   42 1
    37   24   25 ar
    38   25   26 ar
    39   25   31 ar
    40   26   27 2
    41   26   28 ar
    42   27   43 1
    43   28   29 ar
    44   28   45 1
    45   29   30 ar
    46   29   44 1
    47   30   31 ar
@<TRIPOS>SUBSTRUCTURE
     1 ATP         1 GROUP 0 A     ****
@<TRIPOS>MOLECULE
[[[3,4-dihydroxy-5-(6-imino-1~{H}-purin-9-yl)tetrahydrofuran-2-yl]methoxy-oxido-phosphoryl]oxy-hydroxy-phosphoryl] hydrogen phosphate
   45    47     1     0     0
SMALL
USER_CHARGES

@<TRIPOS>ATOM
      1 PG         -6.6641    2.3901   -1.5860 P.3       1 ATP         1.5496
      2 O1G        -6.3976    2.9163   -2.9788 O.co2     1 ATP        -0.8494
      3 O2G        -7.9173    2.7802   -0.8346 O.co2     1 ATP        -0.8494
      4 O3G        -6.5663    0.7605   -1.6202 O.3       1 ATP        -0.7845
      5 PB         -4.7530    4.0980   -0.1270 P.3       1 ATP         1.9068
      6 O1B        -4.3248    5.0492   -1.2050 O.2       1 ATP        -0.8942
      7 O2B        -5.8895    4.6633    0.8741 O.3       1 ATP        -0.8166
      8 O3B        -5.3650    2.6957   -0.6484 O.3       1 ATP        -0.8194
      9 PA         -2.5926    4.4186    1.8557 P.3       1 ATP         1.5903
     10 O1A        -3.4218    5.0535    2.9508 O.co2     1 ATP        -0.8519
     11 O2A        -1.6628    5.2565    1.0052 O.co2     1 ATP        -0.8519
     12 O3A        -3.5835    3.5841    0.8618 O.3       1 ATP        -0.8093
     13 O5'        -1.7337    3.1724    2.4752 O.3       1 ATP        -0.5649
     14 C5'        -0.8811    2.4285    1.6206 C.3       1 ATP         0.1979
     15 C4'        -0.1994    1.3333    2.4288 C.3       1 ATP         0.1179
     16 O4'        -1.1285    0.2356    2.5840 O.3       1 ATP        -0.3878
     17 C3'         1.0324    0.7610    1.7344 C.3       1 ATP         0.1185
     18 O3'         1.9175    0.2377    2.7247 O.3       1 ATP        -0.5544
     19 C2'         0.4468   -0.3802    0.9263 C.3       1 ATP         0.0542
     20 O2'         1.3993   -1.3703    0.5961 O.3       1 ATP        -0.5831
     21 C1'        -0.6159   -0.9100    1.8769 C.3       1 ATP         0.2222
     22 N9         -1.7127   -1.6108    1.2130 N.pl3     1 ATP        -0.1887
     23 C8         -1.5982   -2.7455    0.4481 C.ar      1 ATP         0.4447
     24 N7         -2.7593   -3.1533   -0.0249 N.2       1 ATP        -0.6159
     25 C5         -3.6547   -2.2420    0.4573 C.ar      1 ATP         0.2195
     26 C6         -5.0842   -2.1942    0.2543 C.ar      1 ATP         0.6144
     27 N6         -5.6648   -3.0919   -0.4618 N.2       1 ATP        -0.8160
     28 N1         -5.6087   -1.0978    0.9248 N.pl3     1 ATP        -0.8611
     29 C2         -4.8689   -0.1873    1.6760 C.ar      1 ATP         0.6141
     30 N3         -3.5787   -0.2081    1.8745 N.2       1 ATP        -0.5913
     31 C4         -3.0344   -1.2737    1.2284 C.ar      1 ATP         0.0067
     32 HOG3       -6.7159    0.2664   -0.7861 H         1 ATP         0.4313
     33 HOB2       -5.7004    5.4697    1.3997 H         1 ATP         0.4716
     34 H5'1       -1.4801    1.9928    0.8147 H         1 ATP         0.0452
     35 H5'2       -0.1369    3.1041    1.1872 H         1 ATP         0.0452
     36 H4'         0.0403    1.7078    3.4343 H         1 ATP         0.0998
     37 H3'         1.5906    1.4859    1.1353 H         1 ATP         0.0544
     38 HO3'        2.6839   -0.1150    2.2479 H         1 ATP         0.3961
     39 H2'        -0.0017    0.0018    0.0005 H         1 ATP         0.0499
     40 HO2'        2.0953   -0.9375    0.0709 H         1 ATP         0.4045
     41 H1'        -0.1998   -1.6319    2.6178 H         1 ATP         0.0912
     42 H8         -0.6448   -3.2254    0.2735 H         1 ATP         0.1090
     43 HN62       -6.6723   -2.9015   -0.4966 H         1 ATP         0.3694
     44 H2         -5.4961    0.6026    2.1182 H         1 ATP         0.0371
     45 H45        -6.6130   -0.9504    0.8642 H         1 ATP         0.4283
@<TRIPOS>BOND
     1    1    2 2
     2    1    3 1
     3    1    4 1
     4    1    8 1
     5    4   32 1
     6    5    6 2
     7    5    7 1
     8    5    8 1
     9    5   12 1
    10    7   33 1
    11    9   10 2
    12    9   11 1
    13    9   12 1
    14    9   13 1
    15   13   14 1
    16   14   15 1
    17   14   34 1
    18   14   35 1
    19   15   16 1
    20   15   17 1
    21   15   36 1
    22   16   21 1
    23   17   18 1
    24   17   19 1
    25   17   37 1
    26   18   38 1
    27   19   20 1
    28   19   21 1
    29   19   39 1
    30   20   40 1
    31   21   22 1
    32   21   41 1
    33   22   23 ar
    34   22   31 ar
    35   23   24 ar
    36   23   42 1
    37   24   25 ar
    38   25   26 ar
    39   25   31 ar
    40   26   27 2
    41   26   28 ar
    42   27   43 1
    43   28   29 ar
    44   28   45 1
    45   29   30 ar
    46   29   44 1
    47   30   31 ar
@<TRIPOS>SUBSTRUCTURE
     1 ATP         1 GROUP 0 A     ****
@<TRIPOS>MOLECULE
[[[3,4-dihydroxy-5-(6-imino-1~{H}-purin-9-yl)tetrahydrofuran-2-yl]methoxy-oxido-phosphoryl]oxy-hydroxy-phosphoryl] hydrogen phosphate
   45    47     1     0     0
SMALL
USER_CHARGES

@<TRIPOS>ATOM
      1 PG         -2.9455    8.3881    5.0545 P.3       1 ATP         1.5496
      2 O1G        -1.8230    8.7884    5.9858 O.co2     1 ATP        -0.8494
      3 O2G        -4.3581    8.2196    5.5678 O.co2     1 ATP        -0.8494
      4 O3G        -2.9716    9.4291    3.7968 O.3       1 ATP        -0.7845
      5 PB         -1.1858    6.7202    3.3754 P.3       1 ATP         1.9068
      6 O1B        -0.9685    7.6177    2.1932 O.2       1 ATP        -0.8942
      7 O2B         0.0059    6.7252    4.4678 O.3       1 ATP        -0.8166
      8 O3B        -2.5078    7.0390    4.2491 O.3       1 ATP        -0.8194
      9 PA         -2.5400    4.4094    2.1394 P.3       1 ATP         1.5903
     10 O1A        -2.3768    4.8333    0.6960 O.co2     1 ATP        -0.8519
     11 O2A        -3.8714    4.5574    2.8431 O.co2     1 ATP        -0.8519
     12 O3A        -1.3993    5.1547    3.0391 O.3       1 ATP        -0.8093
     13 O5'        -2.0402    2.8619    2.3130 O.3       1 ATP        -0.5649
     14 C5'        -0.8811    2.4285    1.6206 C.3       1 ATP         0.1979
     15 C4'        -0.1994    1.3333    2.4288 C.3       1 ATP         0.1179
     16 O4'        -1.1285    0.2356    2.5840 O.3       1 ATP        -0.3878
     17 C3'         1.0324    0.7610    1.7344 C.3       1 ATP         0.1185
     18 O3'         1.9175    0.2377    2.7247 O.3       1 ATP        -0.5544
     19 C2'         0.4468   -0.3802    0.9263 C.3       1 ATP         0.0542
     20 O2'         1.3993   -1.3703    0.5961 O.3       1 ATP        -0.5831
     21 C1'        -0.6159   -0.9100    1.8769 C.3       1 ATP         0.2222
     22 N9         -1.7127   -1.6108    1.2130 N.pl3     1 ATP        -0.1887
     23 C8         -1.7690   -2.9583    0.9549 C.ar      1 ATP         0.4447
     24 N7         -2.8827   -3.3076    0.3418 N.2       1 ATP        -0.6159
     25 C5         -3.5683   -2.1351    0.2017 C.ar      1 ATP         0.2195
     26 C6         -4.8617   -1.9185   -0.4044 C.ar      1 ATP         0.6144
     27 N6         -5.5166   -2.9094   -0.8994 N.2       1 ATP        -0.8160
     28 N1         -5.1836   -0.5701   -0.3344 N.pl3     1 ATP        -0.8611
     29 C2         -4.3821    0.4180    0.2330 C.ar      1 ATP         0.6141
     30 N3         -3.2117    0.2488    0.7860 N.2       1 ATP        -0.5913
     31 C4         -2.8672   -1.0657    0.7327 C.ar      1 ATP         0.0067
     32 HOG3       -3.6497    9.3017    3.0996 H         1 ATP         0.4313
     33 HOB2        0.2385    7.5681    4.9124 H         1 ATP         0.4716
     34 H5'1       -1.1769    2.0503    0.6369 H         1 ATP         0.0452
     35 H5'2       -0.2081    3.2815    1.4877 H         1 ATP         0.0452
     36 H4'         0.0403    1.7078    3.4343 H         1 ATP         0.0998
     37 H3'         1.5906    1.4859    1.1353 H         1 ATP         0.0544
     38 HO3'        2.6839   -0.1150    2.2479 H         1 ATP         0.3961
     39 H2'        -0.0017    0.0018    0.0005 H         1 ATP         0.0499
     40 HO2'        2.0953   -0.9375    0.0709 H         1 ATP         0.4045
     41 H1'        -0.1998   -1.6319    2.6178 H         1 ATP         0.0912
     42 H8         -0.9697   -3.6300    1.2371 H         1 ATP         0.1090
     43 HN62       -6.4060   -2.5723   -1.2840 H         1 ATP         0.3694
     44 H2         -4.8409    1.4176    0.1757 H         1 ATP         0.0371
     45 H45        -6.0768   -0.2826   -0.7263 H         1 ATP         0.4283
@<TRIPOS>BOND
     1    1    2 2
     2    1    3 1
     3    1    4 1
     4    1    8 1
     5    4   32 1
     6    5    6 2
     7    5    7 1
     8    5    8 1
     9    5   12 1
    10    7   33 1
    11    9   10 2
    12    9   11 1
    13    9   12 1
    14    9   13 1
    15   13   14 1
    16   14   15 1
    17   14   34 1
    18   14   35 1
    19   15   16 1
    20   15   17 1
    21   15   36 1
    22   16   21 1
    23   17   18 1
    24   17   19 1
    25   17   37 1
    26   18   38 1
    27   19   20 1
    28   19   21 1
    29   19   39 1
    30   20   40 1
    31   21   22 1
    32   21   41 1
    33   22   23 ar
    34   22   31 ar
    35   23   24 ar
    36   23   42 1
    37   24   25 ar
    38   25   26 ar
    39   25   31 ar
    40   26   27 2
    41   26   28 ar
    42   27   43 1
    43   28   29 ar
    44   28   45 1
    45   29   30 ar
    46   29   44 1
    47   30   31 ar
@<TRIPOS>SUBSTRUCTURE
     1 ATP         1 GROUP 0 A     ****
@<TRIPOS>MOLECULE
[[[3,4-dihydroxy-5-(6-imino-1~{H}-purin-9-yl)tetrahydrofuran-2-yl]methoxy-oxido-phosphoryl]oxy-hydroxy-phosphoryl] hydrogen phosphate
   45    47     1     0     0
SMALL
USER_CHARGES

@<TRIPOS>ATOM
      1 PG          1.6606    6.0547    3.7670 P.3       1 ATP         1.5496
      2 O1G         2.2248    6.8500    2.6107 O.co2     1 ATP        -0.8494
      3 O2G         1.5414    4.5490    3.6895 O.co2     1 ATP        -0.8494
      4 O3G         2.4945    6.4399    5.1169 O.3       1 ATP        -0.7845
      5 PB         -1.1858    6.7202    3.3754 P.3       1 ATP         1.9068
      6 O1B        -2.3191    7.3943    4.0906 O.2       1 ATP        -0.8942
      7 O2B        -0.7884    7.3741    1.9513 O.3       1 ATP        -0.8166
      8 O3B         0.2137    6.6820    4.1833 O.3       1 ATP        -0.8194
      9 PA         -2.5400    4.4094    2.1394 P.3       1 ATP         1.5903
     10 O1A        -2.3768    4.8333    0.6960 O.co2     1 ATP        -0.8519
     11 O2A        -3.8714    4.5574    2.8431 O.co2     1 ATP        -0.8519
     12 O3A        -1.3993    5.1547    3.0391 O.3       1 ATP        -0.8093
     13 O5'        -2.0402    2.8619    2.3130 O.3       1 ATP        -0.5649
     14 C5'        -0.8811    2.4285    1.6206 C.3       1 ATP         0.1979
     15 C4'        -0.1994    1.3333    2.4288 C.3       1 ATP         0.1179
     16 O4'        -1.1285    0.2356    2.5840 O.3       1 ATP        -0.3878
     17 C3'         1.0324    0.7610    1.7344 C.3       1 ATP         0.1185
     18 O3'         1.9175    0.2377    2.7247 O.3       1 ATP        -0.5544
     19 C2'         0.4468   -0.3802    0.9263 C.3       1 ATP         0.0542
     20 O2'         1.3993   -1.3703    0.5961 O.3       1 ATP        -0.5831
     21 C1'        -0.6159   -0.9100    1.8769 C.3       1 ATP         0.2222
     22 N9         -1.7127   -1.6108    1.2130 N.pl3     1 ATP        -0.1887
     23 C8         -2.8662   -1.0361    0.7388 C.ar      1 ATP         0.4447
     24 N7         -3.6774   -1.9166    0.1867 N.2       1 ATP        -0.6159
     25 C5         -3.0159   -3.1045    0.3123 C.ar      1 ATP         0.2195
     26 C6         -3.4377   -4.4169   -0.1199 C.ar      1 ATP         0.6144
     27 N6         -4.5720   -4.5691   -0.7080 N.2       1 ATP        -0.8160
     28 N1         -2.4600   -5.3463    0.2071 N.pl3     1 ATP        -0.8611
     29 C2         -1.2595   -5.0554    0.8515 C.ar      1 ATP         0.6141
     30 N3         -0.8555   -3.8803    1.2516 N.2       1 ATP        -0.5913
     31 C4         -1.7946   -2.9457    0.9448 C.ar      1 ATP         0.0067
     32 HOG3        2.2460    6.0035    5.9595 H         1 ATP         0.4313
     33 HOB2       -0.0544    6.9775    1.4353 H         1 ATP         0.4716
     34 H5'1       -1.1769    2.0503    0.6369 H         1 ATP         0.0452
     35 H5'2       -0.2081    3.2815    1.4877 H         1 ATP         0.0452
     36 H4'         0.0403    1.7078    3.4343 H         1 ATP         0.0998
     37 H3'         1.5906    1.4859    1.1353 H         1 ATP         0.0544
     38 HO3'        2.1521    0.9800    3.3017 H         1 ATP         0.3961
     39 H2'        -0.0017    0.0018    0.0005 H         1 ATP         0.0499
     40 HO2'        2.0953   -0.9375    0.0709 H         1 ATP         0.4045
     41 H1'        -0.1998   -1.6319    2.6178 H         1 ATP         0.0912
     42 H8         -3.0558    0.0252    0.8256 H         1 ATP         0.1090
     43 HN62       -4.7047   -5.5592   -0.9421 H         1 ATP         0.3694
     44 H2         -0.6372   -5.9505    1.0077 H         1 ATP         0.0371
     45 H45        -2.6338   -6.3155   -0.0469 H         1 ATP         0.4283
@<TRIPOS>BOND
     1    1    2 2
     2    1    3 1
     3    1    4 1
     4    1    8 1
     5    4   32 1
     6    5    6 2
     7    5    7 1
     8    5    8 1
     9    5   12 1
    10    7   33 1
    11    9   10 2
    12    9   11 1
    13    9   12 1
    14    9   13 1
    15   13   14 1
    16   14   15 1
    17   14   34 1
    18   14   35 1
    19   15   16 1
    20   15   17 1
    21   15   36 1
    22   16   21 1
    23   17   18 1
    24   17   19 1
    25   17   37 1
    26   18   38 1
    27   19   20 1
    28   19   21 1
    29   19   39 1
    30   20   40 1
    31   21   22 1
    32   21   41 1
    33   22   23 ar
    34   22   31 ar
    35   23   24 ar
    36   23   42 1
    37   24   25 ar
    38   25   26 ar
    39   25   31 ar
    40   26   27 2
    41   26   28 ar
    42   27   43 1
    43   28   29 ar
    44   28   45 1
    45   29   30 ar
    46   29   44 1
    47   30   31 ar
@<TRIPOS>SUBSTRUCTURE
     1 ATP         1 GROUP 0 A     ****
@<TRIPOS>MOLECULE
[[[3,4-dihydroxy-5-(6-imino-1~{H}-purin-9-yl)tetrahydrofuran-2-yl]methoxy-oxido-phosphoryl]oxy-hydroxy-phosphoryl] hydrogen phosphate
   45    47     1     0     0
SMALL
USER_CHARGES

@<TRIPOS>ATOM
      1 PG         -2.5683    5.5973   -2.1369 P.3       1 ATP         1.5496
      2 O1G        -2.1763    5.5132   -3.5953 O.co2     1 ATP        -0.8494
      3 O2G        -1.5165    5.6725   -1.0528 O.co2     1 ATP        -0.8494
      4 O3G        -3.5976    6.8508   -1.9484 O.3       1 ATP        -0.7845
      5 PB         -4.4459    4.0655   -0.4558 P.3       1 ATP         1.9068
      6 O1B        -5.4165    5.1343   -0.0483 O.2       1 ATP        -0.8942
      7 O2B        -5.1035    2.6180   -0.7488 O.3       1 ATP        -0.8166
      8 O3B        -3.5977    4.3792   -1.7956 O.3       1 ATP        -0.8194
      9 PA         -3.3346    3.2336    2.1469 P.3       1 ATP         1.5903
     10 O1A        -3.9078    1.8333    2.1683 O.co2     1 ATP        -0.8519
     11 O2A        -3.9474    4.3330    2.9871 O.co2     1 ATP        -0.8519
     12 O3A        -3.2643    3.7501    0.5996 O.3       1 ATP        -0.8093
     13 O5'        -1.7337    3.1724    2.4752 O.3       1 ATP        -0.5649
     14 C5'        -0.8811    2.4285    1.6206 C.3       1 ATP         0.1979
     15 C4'        -0.1994    1.3333    2.4288 C.3       1 ATP         0.1179
     16 O4'        -1.1285    0.2356    2.5840 O.3       1 ATP        -0.3878
     17 C3'         1.0324    0.7610    1.7344 C.3       1 ATP         0.1185
     18 O3'         1.9175    0.2377    2.7247 O.3       1 ATP        -0.5544
     19 C2'         0.4468   -0.3802    0.9263 C.3       1 ATP         0.0542
     20 O2'         1.3993   -1.3703    0.5961 O.3       1 ATP        -0.5831
     21 C1'        -0.6159   -0.9100    1.8769 C.3       1 ATP         0.2222
     22 N9         -1.7127   -1.6108    1.2130 N.pl3     1 ATP        -0.1887
     23 C8         -2.5485   -1.0808    0.2609 C.ar      1 ATP         0.4447
     24 N7         -3.4476   -1.9486   -0.1593 N.2       1 ATP        -0.6159
     25 C5         -3.1762   -3.0816    0.5530 C.ar      1 ATP         0.2195
     26 C6         -3.8510   -4.3579    0.5006 C.ar      1 ATP         0.6144
     27 N6         -4.8468   -4.5293   -0.2961 N.2       1 ATP        -0.8160
     28 N1         -3.2499   -5.2342    1.3937 N.pl3     1 ATP        -0.8611
     29 C2         -2.1646   -4.9275    2.2116 C.ar      1 ATP         0.6141
     30 N3         -1.5382   -3.7840    2.2778 N.2       1 ATP        -0.5913
     31 C4         -2.1054   -2.9018    1.4120 C.ar      1 ATP         0.0067
     32 HOG3       -3.9456    7.0380   -1.0506 H         1 ATP         0.4313
     33 HOB2       -5.5913    2.1640   -0.0289 H         1 ATP         0.4716
     34 H5'1       -1.4801    1.9928    0.8147 H         1 ATP         0.0452
     35 H5'2       -0.1369    3.1041    1.1872 H         1 ATP         0.0452
     36 H4'         0.0403    1.7078    3.4343 H         1 ATP         0.0998
     37 H3'         1.5906    1.4859    1.1353 H         1 ATP         0.0544
     38 HO3'        2.6839   -0.1150    2.2479 H         1 ATP         0.3961
     39 H2'        -0.0017    0.0018    0.0005 H         1 ATP         0.0499
     40 HO2'        2.0953   -0.9375    0.0709 H         1 ATP         0.4045
     41 H1'        -0.1998   -1.6319    2.6178 H         1 ATP         0.0912
     42 H8         -2.4515   -0.0599   -0.0829 H         1 ATP         0.1090
     43 HN62       -5.1990   -5.4882   -0.2004 H         1 ATP         0.3694
     44 H2         -1.8555   -5.7783    2.8388 H         1 ATP         0.0371
     45 H45        -3.6312   -6.1750    1.4526 H         1 ATP         0.4283
@<TRIPOS>BOND
     1    1    2 2
     2    1    3 1
     3    1    4 1
     4    1    8 1
     5    4   32 1
     6    5    6 2
     7    5    7 1
     8    5    8 1
     9    5   12 1
    10    7   33 1
    11    9   10 2
    12    9   11 1
    13    9   12 1
    14    9   13 1
    15   13   14 1
    16   14   15 1
    17   14   34 1
    18   14   35 1
    19   15   16 1
    20   15   17 1
    21   15   36 1
    22   16   21 1
    23   17   18 1
    24   17   19 1
    25   17   37 1
    26   18   38 1
    27   19   20 1
    28   19   21 1
    29   19   39 1
    30   20   40 1
    31   21   22 1
    32   21   41 1
    33   22   23 ar
    34   22   31 ar
    35   23   24 ar
    36   23   42 1
    37   24   25 ar
    38   25   26 ar
    39   25   31 ar
    40   26   27 2
    41   26   28 ar
    42   27   43 1
    43   28   29 ar
    44   28   45 1
    45   29   30 ar
    46   29   44 1
    47   30   31 ar
@<TRIPOS>SUBSTRUCTURE
     1 ATP         1 GROUP 0 A     ****
@<TRIPOS>MOLECULE
[[[3,4-dihydroxy-5-(6-imino-1~{H}-purin-9-yl)tetrahydrofuran-2-yl]methoxy-oxido-phosphoryl]oxy-hydroxy-phosphoryl] hydrogen phosphate
   45    47     1     0     0
SMALL
USER_CHARGES

@<TRIPOS>ATOM
      1 PG         -1.1474    7.0493    6.8454 P.3       1 ATP         1.5496
      2 O1G        -1.2606    8.4726    6.3463 O.co2     1 ATP        -0.8494
      3 O2G        -0.0266    6.6384    7.7741 O.co2     1 ATP        -0.8494
      4 O3G        -2.5685    6.6250    7.5285 O.3       1 ATP        -0.7845
      5 PB         -0.1097    5.8256    4.3708 P.3       1 ATP         1.9068
      6 O1B         0.1601    7.0397    3.5319 O.2       1 ATP        -0.8942
      7 O2B         1.1841    5.2067    5.1167 O.3       1 ATP        -0.8166
      8 O3B        -1.1765    6.0373    5.5666 O.3       1 ATP        -0.8194
      9 PA         -2.1560    4.4277    2.7709 P.3       1 ATP         1.5903
     10 O1A        -2.0925    5.3168    1.5480 O.co2     1 ATP        -0.8519
     11 O2A        -3.2979    4.5484    3.7564 O.co2     1 ATP        -0.8519
     12 O3A        -0.7523    4.5635    3.5939 O.3       1 ATP        -0.8093
     13 O5'        -2.0402    2.8619    2.3130 O.3       1 ATP        -0.5649
     14 C5'        -0.8811    2.4285    1.6206 C.3       1 ATP         0.1979
     15 C4'        -0.1994    1.3333    2.4288 C.3       1 ATP         0.1179
     16 O4'        -1.1285    0.2356    2.5840 O.3       1 ATP        -0.3878
     17 C3'         1.0324    0.7610    1.7344 C.3       1 ATP         0.1185
     18 O3'         1.9175    0.2377    2.7247 O.3       1 ATP        -0.5544
     19 C2'         0.4468   -0.3802    0.9263 C.3       1 ATP         0.0542
     20 O2'         1.3993   -1.3703    0.5961 O.3       1 ATP        -0.5831
     21 C1'        -0.6159   -0.9100    1.8769 C.3       1 ATP         0.2222
     22 N9         -1.7127   -1.6108    1.2130 N.pl3     1 ATP        -0.1887
     23 C8         -2.8662   -1.0361    0.7388 C.ar      1 ATP         0.4447
     24 N7         -3.6774   -1.9166    0.1867 N.2       1 ATP        -0.6159
     25 C5         -3.0159   -3.1045    0.3123 C.ar      1 ATP         0.2195
     26 C6         -3.4377   -4.4169   -0.1199 C.ar      1 ATP         0.6144
     27 N6         -4.5720   -4.5691   -0.7080 N.2       1 ATP        -0.8160
     28 N1         -2.4600   -5.3463    0.2071 N.pl3     1 ATP        -0.8611
     29 C2         -1.2595   -5.0554    0.8515 C.ar      1 ATP         0.6141
     30 N3         -0.8555   -3.8803    1.2516 N.2       1 ATP        -0.5913
     31 C4         -1.7946   -2.9457    0.9448 C.ar      1 ATP         0.0067
     32 HOG3       -2.6553    5.7227    7.9032 H         1 ATP         0.4313
     33 HOB2        1.6792    5.7672    5.7515 H         1 ATP         0.4716
     34 H5'1       -1.1769    2.0503    0.6369 H         1 ATP         0.0452
     35 H5'2       -0.2081    3.2815    1.4877 H         1 ATP         0.0452
     36 H4'         0.0403    1.7078    3.4343 H         1 ATP         0.0998
     37 H3'         1.5906    1.4859    1.1353 H         1 ATP         0.0544
     38 HO3'        2.6839   -0.1150    2.2479 H         1 ATP         0.3961
     39 H2'        -0.0017    0.0018    0.0005 H         1 ATP         0.0499
     40 HO2'        2.0953   -0.9375    0.0709 H         1 ATP         0.4045
     41 H1'        -0.1998   -1.6319    2.6178 H         1 ATP         0.0912
     42 H8         -3.0558    0.0252    0.8256 H         1 ATP         0.1090
     43 HN62       -4.7047   -5.5592   -0.9421 H         1 ATP         0.3694
     44 H2         -0.6372   -5.9505    1.0077 H         1 ATP         0.0371
     45 H45        -2.6338   -6.3155   -0.0469 H         1 ATP         0.4283
@<TRIPOS>BOND
     1    1    2 2
     2    1    3 1
     3    1    4 1
     4    1    8 1
     5    4   32 1
     6    5    6 2
     7    5    7 1
     8    5    8 1
     9    5   12 1
    10    7   33 1
    11    9   10 2
    12    9   11 1
    13    9   12 1
    14    9   13 1
    15   13   14 1
    16   14   15 1
    17   14   34 1
    18   14   35 1
    19   15   16 1
    20   15   17 1
    21   15   36 1
    22   16   21 1
    23   17   18 1
    24   17   19 1
    25   17   37 1
    26   18   38 1
    27   19   20 1
    28   19   21 1
    29   19   39 1
    30   20   40 1
    31   21   22 1
    32   21   41 1
    33   22   23 ar
    34   22   31 ar
    35   23   24 ar
    36   23   42 1
    37   24   25 ar
    38   25   26 ar
    39   25   31 ar
    40   26   27 2
    41   26   28 ar
    42   27   43 1
    43   28   29 ar
    44   28   45 1
    45   29   30 ar
    46   29   44 1
    47   30   31 ar
@<TRIPOS>SUBSTRUCTURE
     1 ATP         1 GROUP 0 A     ****
@<TRIPOS>MOLECULE
[[[3,4-dihydroxy-5-(6-imino-1~{H}-purin-9-yl)tetrahydrofuran-2-yl]methoxy-oxido-phosphoryl]oxy-hydroxy-phosphoryl] hydrogen phosphate
   45    47     1     0     0
SMALL
USER_CHARGES

@<TRIPOS>ATOM
      1 PG          2.7522    5.9210    2.8893 P.3       1 ATP         1.5496
      2 O1G         2.3805    4.5084    3.2819 O.co2     1 ATP        -0.8494
      3 O2G         2.8964    7.0052    3.9338 O.co2     1 ATP        -0.8494
      4 O3G         4.1228    5.8690    2.0033 O.3       1 ATP        -0.7845
      5 PB          0.1422    6.7440    1.7899 P.3       1 ATP         1.9068
      6 O1B        -0.2631    7.8131    2.7609 O.2       1 ATP        -0.8942
      7 O2B        -0.2515    7.0329    0.2487 O.3       1 ATP        -0.8166
      8 O3B         1.7274    6.4335    1.7286 O.3       1 ATP        -0.8194
      9 PA         -2.0037    4.7527    2.1524 P.3       1 ATP         1.5903
     10 O1A        -2.6321    4.8875    0.7824 O.co2     1 ATP        -0.8519
     11 O2A        -2.6546    5.3784    3.3667 O.co2     1 ATP        -0.8519
     12 O3A        -0.4573    5.2714    2.0756 O.3       1 ATP        -0.8093
     13 O5'        -1.7337    3.1724    2.4752 O.3       1 ATP        -0.5649
     14 C5'        -0.8811    2.4285    1.6206 C.3       1 ATP         0.1979
     15 C4'        -0.1994    1.3333    2.4288 C.3       1 ATP         0.1179
     16 O4'        -1.1285    0.2356    2.5840 O.3       1 ATP        -0.3878
     17 C3'         1.0324    0.7610    1.7344 C.3       1 ATP         0.1185
     18 O3'         1.9175    0.2377    2.7247 O.3       1 ATP        -0.5544
     19 C2'         0.4468   -0.3802    0.9263 C.3       1 ATP         0.0542
     20 O2'         1.3993   -1.3703    0.5961 O.3       1 ATP        -0.5831
     21 C1'        -0.6159   -0.9100    1.8769 C.3       1 ATP         0.2222
     22 N9         -1.7127   -1.6108    1.2130 N.pl3     1 ATP        -0.1887
     23 C8         -2.8662   -1.0361    0.7388 C.ar      1 ATP         0.4447
     24 N7         -3.6774   -1.9166    0.1867 N.2       1 ATP        -0.6159
     25 C5         -3.0159   -3.1045    0.3123 C.ar      1 ATP         0.2195
     26 C6         -3.4377   -4.4169   -0.1199 C.ar      1 ATP         0.6144
     27 N6         -4.5720   -4.5691   -0.7080 N.2       1 ATP        -0.8160
     28 N1         -2.4600   -5.3463    0.2071 N.pl3     1 ATP        -0.8611
     29 C2         -1.2595   -5.0554    0.8515 C.ar      1 ATP         0.6141
     30 N3         -0.8555   -3.8803    1.2516 N.2       1 ATP        -0.5913
     31 C4         -1.7946   -2.9457    0.9448 C.ar      1 ATP         0.0067
     32 HOG3        4.4957    6.7130    1.6706 H         1 ATP         0.4313
     33 HOB2       -1.1967    7.1505    0.0145 H         1 ATP         0.4716
     34 H5'1       -1.4801    1.9928    0.8147 H         1 ATP         0.0452
     35 H5'2       -0.1369    3.1041    1.1872 H         1 ATP         0.0452
     36 H4'         0.0403    1.7078    3.4343 H         1 ATP         0.0998
     37 H3'         1.5906    1.4859    1.1353 H         1 ATP         0.0544
     38 HO3'        2.1521    0.9800    3.3017 H         1 ATP         0.3961
     39 H2'        -0.0017    0.0018    0.0005 H         1 ATP         0.0499
     40 HO2'        2.0953   -0.9375    0.0709 H         1 ATP         0.4045
     41 H1'        -0.1998   -1.6319    2.6178 H         1 ATP         0.0912
     42 H8         -3.0558    0.0252    0.8256 H         1 ATP         0.1090
     43 HN62       -4.7047   -5.5592   -0.9421 H         1 ATP         0.3694
     44 H2         -0.6372   -5.9505    1.0077 H         1 ATP         0.0371
     45 H45        -2.6338   -6.3155   -0.0469 H         1 ATP         0.4283
@<TRIPOS>BOND
     1    1    2 2
     2    1    3 1
     3    1    4 1
     4    1    8 1
     5    4   32 1
     6    5    6 2
     7    5    7 1
     8    5    8 1
     9    5   12 1
    10    7   33 1
    11    9   10 2
    12    9   11 1
    13    9   12 1
    14    9   13 1
    15   13   14 1
    16   14   15 1
    17   14   34 1
    18   14   35 1
    19   15   16 1
    20   15   17 1
    21   15   36 1
    22   16   21 1
    23   17   18 1
    24   17   19 1
    25   17   37 1
    26   18   38 1
    27   19   20 1
    28   19   21 1
    29   19   39 1
    30   20   40 1
    31   21   22 1
    32   21   41 1
    33   22   23 ar
    34   22   31 ar
    35   23   24 ar
    36   23   42 1
    37   24   25 ar
    38   25   26 ar
    39   25   31 ar
    40   26   27 2
    41   26   28 ar
    42   27   43 1
    43   28   29 ar
    44   28   45 1
    45   29   30 ar
    46   29   44 1
    47   30   31 ar
@<TRIPOS>SUBSTRUCTURE
     1 ATP         1 GROUP 0 A     ****
@<TRIPOS>MOLECULE
[[[3,4-dihydroxy-5-(6-imino-1~{H}-purin-9-yl)tetrahydrofuran-2-yl]methoxy-oxido-phosphoryl]oxy-hydroxy-phosphoryl] hydrogen phosphate
   45    47     1     0     0
SMALL
USER_CHARGES

@<TRIPOS>ATOM
      1 PG         -1.4894    6.0394   -1.8642 P.3       1 ATP         1.5496
      2 O1G        -1.2561    4.5575   -1.6709 O.co2     1 ATP        -0.8494
      3 O2G        -0.3277    7.0042   -1.9490 O.co2     1 ATP        -0.8494
      4 O3G        -2.4337    6.2481   -3.1798 O.3       1 ATP        -0.7845
      5 PB         -2.3658    6.6802    0.8779 P.3       1 ATP         1.9068
      6 O1B        -1.2550    7.5756    1.3411 O.2       1 ATP        -0.8942
      7 O2B        -3.8417    7.0993    1.3875 O.3       1 ATP        -0.8166
      8 O3B        -2.5333    6.5626   -0.7255 O.3       1 ATP        -0.8194
      9 PA         -2.1560    4.4277    2.7709 P.3       1 ATP         1.5903
     10 O1A        -3.4707    4.6479    3.4869 O.co2     1 ATP        -0.8519
     11 O2A        -0.8473    4.8292    3.4158 O.co2     1 ATP        -0.8519
     12 O3A        -2.2360    5.1255    1.2968 O.3       1 ATP        -0.8093
     13 O5'        -2.0402    2.8619    2.3130 O.3       1 ATP        -0.5649
     14 C5'        -0.8811    2.4285    1.6206 C.3       1 ATP         0.1979
     15 C4'        -0.1994    1.3333    2.4288 C.3       1 ATP         0.1179
     16 O4'        -1.1285    0.2356    2.5840 O.3       1 ATP        -0.3878
     17 C3'         1.0324    0.7610    1.7344 C.3       1 ATP         0.1185
     18 O3'         1.9175    0.2377    2.7247 O.3       1 ATP        -0.5544
     19 C2'         0.4468   -0.3802    0.9263 C.3       1 ATP         0.0542
     20 O2'         1.3993   -1.3703    0.5961 O.3       1 ATP        -0.5831
     21 C1'        -0.6159   -0.9100    1.8769 C.3       1 ATP         0.2222
     22 N9         -1.7127   -1.6108    1.2130 N.pl3     1 ATP        -0.1887
     23 C8         -1.7690   -2.9583    0.9549 C.ar      1 ATP         0.4447
     24 N7         -2.8827   -3.3076    0.3418 N.2       1 ATP        -0.6159
     25 C5         -3.5683   -2.1351    0.2017 C.ar      1 ATP         0.2195
     26 C6         -4.8617   -1.9185   -0.4044 C.ar      1 ATP         0.6144
     27 N6         -5.5166   -2.9094   -0.8994 N.2       1 ATP        -0.8160
     28 N1         -5.1836   -0.5701   -0.3344 N.pl3     1 ATP        -0.8611
     29 C2         -4.3821    0.4180    0.2330 C.ar      1 ATP         0.6141
     30 N3         -3.2117    0.2488    0.7860 N.2       1 ATP        -0.5913
     31 C4         -2.8672   -1.0657    0.7327 C.ar      1 ATP         0.0067
     32 HOG3       -2.6770    7.1622   -3.4394 H         1 ATP         0.4313
     33 HOB2       -4.0186    7.1343    2.3517 H         1 ATP         0.4716
     34 H5'1       -1.1769    2.0503    0.6369 H         1 ATP         0.0452
     35 H5'2       -0.2081    3.2815    1.4877 H         1 ATP         0.0452
     36 H4'         0.0403    1.7078    3.4343 H         1 ATP         0.0998
     37 H3'         1.5906    1.4859    1.1353 H         1 ATP         0.0544
     38 HO3'        2.6839   -0.1150    2.2479 H         1 ATP         0.3961
     39 H2'        -0.0017    0.0018    0.0005 H         1 ATP         0.0499
     40 HO2'        2.0953   -0.9375    0.0709 H         1 ATP         0.4045
     41 H1'        -0.1998   -1.6319    2.6178 H         1 ATP         0.0912
     42 H8         -0.9697   -3.6300    1.2371 H         1 ATP         0.1090
     43 HN62       -6.4060   -2.5723   -1.2840 H         1 ATP         0.3694
     44 H2         -4.8409    1.4176    0.1757 H         1 ATP         0.0371
     45 H45        -6.0768   -0.2826   -0.7263 H         1 ATP         0.4283
@<TRIPOS>BOND
     1    1    2 2
     2    1    3 1
     3    1    4 1
     4    1    8 1
     5    4   32 1
     6    5    6 2
     7    5    7 1
     8    5    8 1
     9    5   12 1
    10    7   33 1
    11    9   10 2
    12    9   11 1
    13    9   12 1
    14    9   13 1
    15   13   14 1
    16   14   15 1
    17   14   34 1
    18   14   35 1
    19   15   16 1
    20   15   17 1
    21   15   36 1
    22   16   21 1
    23   17   18 1
    24   17   19 1
    25   17   37 1
    26   18   38 1
    27   19   20 1
    28   19   21 1
    29   19   39 1
    30   20   40 1
    31   21   22 1
    32   21   41 1
    33   22   23 ar
    34   22   31 ar
    35   23   24 ar
    36   23   42 1
    37   24   25 ar
    38   25   26 ar
    39   25   31 ar
    40   26   27 2
    41   26   28 ar
    42   27   43 1
    43   28   29 ar
    44   28   45 1
    45   29   30 ar
    46   29   44 1
    47   30   31 ar
@<TRIPOS>SUBSTRUCTURE
     1 ATP         1 GROUP 0 A     ****
@<TRIPOS>MOLECULE
[[[3,4-dihydroxy-5-(6-imino-1~{H}-purin-9-yl)tetrahydrofuran-2-yl]methoxy-oxido-phosphoryl]oxy-hydroxy-phosphoryl] hydrogen phosphate
   45    47     1     0     0
SMALL
USER_CHARGES

@<TRIPOS>ATOM
      1 PG         -6.0906    3.0173   -1.9820 P.3       1 ATP         1.5496
      2 O1G        -6.5875    1.6221   -2.2889 O.co2     1 ATP        -0.8494
      3 O2G        -5.4301    3.8594   -3.0507 O.co2     1 ATP        -0.8494
      4 O3G        -7.3197    3.8742   -1.3329 O.3       1 ATP        -0.7845
      5 PB         -5.3690    2.3333    0.7946 P.3       1 ATP         1.9068
      6 O1B        -6.5162    2.9318    1.5536 O.2       1 ATP        -0.8942
      7 O2B        -5.4815    0.7435    0.5237 O.3       1 ATP        -0.8166
      8 O3B        -5.1159    2.9554   -0.6757 O.3       1 ATP        -0.8194
      9 PA         -3.0798    3.8626    1.8537 P.3       1 ATP         1.5903
     10 O1A        -3.8221    4.5966    2.9492 O.co2     1 ATP        -0.8519
     11 O2A        -2.6992    4.5683    0.5704 O.co2     1 ATP        -0.8519
     12 O3A        -3.9117    2.5115    1.4682 O.3       1 ATP        -0.8093
     13 O5'        -1.7337    3.1724    2.4752 O.3       1 ATP        -0.5649
     14 C5'        -0.8811    2.4285    1.6206 C.3       1 ATP         0.1979
     15 C4'        -0.1994    1.3333    2.4288 C.3       1 ATP         0.1179
     16 O4'        -1.1285    0.2356    2.5840 O.3       1 ATP        -0.3878
     17 C3'         1.0324    0.7610    1.7344 C.3       1 ATP         0.1185
     18 O3'         1.9175    0.2377    2.7247 O.3       1 ATP        -0.5544
     19 C2'         0.4468   -0.3802    0.9263 C.3       1 ATP         0.0542
     20 O2'         1.3993   -1.3703    0.5961 O.3       1 ATP        -0.5831
     21 C1'        -0.6159   -0.9100    1.8769 C.3       1 ATP         0.2222
     22 N9         -1.7127   -1.6108    1.2130 N.pl3     1 ATP        -0.1887
     23 C8         -2.8662   -1.0361    0.7388 C.ar      1 ATP         0.4447
     24 N7         -3.6774   -1.9166    0.1867 N.2       1 ATP        -0.6159
     25 C5         -3.0159   -3.1045    0.3123 C.ar      1 ATP         0.2195
     26 C6         -3.4377   -4.4169   -0.1199 C.ar      1 ATP         0.6144
     27 N6         -4.5720   -4.5691   -0.7080 N.2       1 ATP        -0.8160
     28 N1         -2.4600   -5.3463    0.2071 N.pl3     1 ATP        -0.8611
     29 C2         -1.2595   -5.0554    0.8515 C.ar      1 ATP         0.6141
     30 N3         -0.8555   -3.8803    1.2516 N.2       1 ATP        -0.5913
     31 C4         -1.7946   -2.9457    0.9448 C.ar      1 ATP         0.0067
     32 HOG3       -7.1547    4.8068   -1.0775 H         1 ATP         0.4313
     33 HOB2       -6.2445    0.4024    0.0101 H         1 ATP         0.4716
     34 H5'1       -1.4801    1.9928    0.8147 H         1 ATP         0.0452
     35 H5'2       -0.1369    3.1041    1.1872 H         1 ATP         0.0452
     36 H4'         0.0403    1.7078    3.4343 H         1 ATP         0.0998
     37 H3'         1.5906    1.4859    1.1353 H         1 ATP         0.0544
     38 HO3'        2.1521    0.9800    3.3017 H         1 ATP         0.3961
     39 H2'        -0.0017    0.0018    0.0005 H         1 ATP         0.0499
     40 HO2'        1.7495   -1.7243    1.4324 H         1 ATP         0.4045
     41 H1'        -0.1998   -1.6319    2.6178 H         1 ATP         0.0912
     42 H8         -3.0558    0.0252    0.8256 H         1 ATP         0.1090
     43 HN62       -4.7047   -5.5592   -0.9421 H         1 ATP         0.3694
     44 H2         -0.6372   -5.9505    1.0077 H         1 ATP         0.0371
     45 H45        -2.6338   -6.3155   -0.0469 H         1 ATP         0.4283
@<TRIPOS>BOND
     1    1    2 2
     2    1    3 1
     3    1    4 1
     4    1    8 1
     5    4   32 1
     6    5    6 2
     7    5    7 1
     8    5    8 1
     9    5   12 1
    10    7   33 1
    11    9   10 2
    12    9   11 1
    13    9   12 1
    14    9   13 1
    15   13   14 1
    16   14   15 1
    17   14   34 1
    18   14   35 1
    19   15   16 1
    20   15   17 1
    21   15   36 1
    22   16   21 1
    23   17   18 1
    24   17   19 1
    25   17   37 1
    26   18   38 1
    27   19   20 1
    28   19   21 1
    29   19   39 1
    30   20   40 1
    31   21   22 1
    32   21   41 1
    33   22   23 ar
    34   22   31 ar
    35   23   24 ar
    36   23   42 1
    37   24   25 ar
    38   25   26 ar
    39   25   31 ar
    40   26   27 2
    41   26   28 ar
    42   27   43 1
    43   28   29 ar
    44   28   45 1
    45   29   30 ar
    46   29   44 1
    47   30   31 ar
@<TRIPOS>SUBSTRUCTURE
     1 ATP         1 GROUP 0 A     ****
@<TRIPOS>MOLECULE
[[[3,4-dihydroxy-5-(6-imino-1~{H}-purin-9-yl)tetrahydrofuran-2-yl]methoxy-oxido-phosphoryl]oxy-hydroxy-phosphoryl] hydrogen phosphate
   45    47     1     0     0
SMALL
USER_CHARGES

@<TRIPOS>ATOM
      1 PG          0.8538    6.6842    6.1199 P.3       1 ATP         1.5496
      2 O1G         1.7569    5.5880    6.6399 O.co2     1 ATP        -0.8494
      3 O2G        -0.1524    7.3574    7.0265 O.co2     1 ATP        -0.8494
      4 O3G         1.7822    7.8366    5.4297 O.3       1 ATP        -0.7845
      5 PB         -1.0209    4.9885    4.6007 P.3       1 ATP         1.9068
      6 O1B        -0.5875    3.6164    5.0246 O.2       1 ATP        -0.8942
      7 O2B        -2.3131    5.5700    5.3790 O.3       1 ATP        -0.8166
      8 O3B         0.0898    6.1489    4.7821 O.3       1 ATP        -0.8194
      9 PA         -2.5400    4.4094    2.1394 P.3       1 ATP         1.5903
     10 O1A        -2.3768    4.8333    0.6960 O.co2     1 ATP        -0.8519
     11 O2A        -3.8714    4.5574    2.8431 O.co2     1 ATP        -0.8519
     12 O3A        -1.3993    5.1547    3.0391 O.3       1 ATP        -0.8093
     13 O5'        -2.0402    2.8619    2.3130 O.3       1 ATP        -0.5649
     14 C5'        -0.8811    2.4285    1.6206 C.3       1 ATP         0.1979
     15 C4'        -0.1994    1.3333    2.4288 C.3       1 ATP         0.1179
     16 O4'        -1.1285    0.2356    2.5840 O.3       1 ATP        -0.3878
     17 C3'         1.0324    0.7610    1.7344 C.3       1 ATP         0.1185
     18 O3'         1.9175    0.2377    2.7247 O.3       1 ATP        -0.5544
     19 C2'         0.4468   -0.3802    0.9263 C.3       1 ATP         0.0542
     20 O2'         1.3993   -1.3703    0.5961 O.3       1 ATP        -0.5831
     21 C1'        -0.6159   -0.9100    1.8769 C.3       1 ATP         0.2222
     22 N9         -1.7127   -1.6108    1.2130 N.pl3     1 ATP        -0.1887
     23 C8         -2.5485   -1.0808    0.2609 C.ar      1 ATP         0.4447
     24 N7         -3.4476   -1.9486   -0.1593 N.2       1 ATP        -0.6159
     25 C5         -3.1762   -3.0816    0.5530 C.ar      1 ATP         0.2195
     26 C6         -3.8510   -4.3579    0.5006 C.ar      1 ATP         0.6144
     27 N6         -4.8468   -4.5293   -0.2961 N.2       1 ATP        -0.8160
     28 N1         -3.2499   -5.2342    1.3937 N.pl3     1 ATP        -0.8611
     29 C2         -2.1646   -4.9275    2.2116 C.ar      1 ATP         0.6141
     30 N3         -1.5382   -3.7840    2.2778 N.2       1 ATP        -0.5913
     31 C4         -2.1054   -2.9018    1.4120 C.ar      1 ATP         0.0067
     32 HOG3        1.3401    8.6216    5.0417 H         1 ATP         0.4313
     33 HOB2       -3.1609    5.0798    5.3231 H         1 ATP         0.4716
     34 H5'1       -1.1769    2.0503    0.6369 H         1 ATP         0.0452
     35 H5'2       -0.2081    3.2815    1.4877 H         1 ATP         0.0452
     36 H4'         0.0403    1.7078    3.4343 H         1 ATP         0.0998
     37 H3'         1.5906    1.4859    1.1353 H         1 ATP         0.0544
     38 HO3'        2.6839   -0.1150    2.2479 H         1 ATP         0.3961
     39 H2'        -0.0017    0.0018    0.0005 H         1 ATP         0.0499
     40 HO2'        2.0953   -0.9375    0.0709 H         1 ATP         0.4045
     41 H1'        -0.1998   -1.6319    2.6178 H         1 ATP         0.0912
     42 H8         -2.4515   -0.0599   -0.0829 H         1 ATP         0.1090
     43 HN62       -5.1990   -5.4882   -0.2004 H         1 ATP         0.3694
     44 H2         -1.8555   -5.7783    2.8388 H         1 ATP         0.0371
     45 H45        -3.6312   -6.1750    1.4526 H         1 ATP         0.4283
@<TRIPOS>BOND
     1    1    2 2
     2    1    3 1
     3    1    4 1
     4    1    8 1
     5    4   32 1
     6    5    6 2
     7    5    7 1
     8    5    8 1
     9    5   12 1
    10    7   33 1
    11    9   10 2
    12    9   11 1
    13    9   12 1
    14    9   13 1
    15   13   14 1
    16   14   15 1
    17   14   34 1
    18   14   35 1
    19   15   16 1
    20   15   17 1
    21   15   36 1
    22   16   21 1
    23   17   18 1
    24   17   19 1
    25   17   37 1
    26   18   38 1
    27   19   20 1
    28   19   21 1
    29   19   39 1
    30   20   40 1
    31   21   22 1
    32   21   41 1
    33   22   23 ar
    34   22   31 ar
    35   23   24 ar
    36   23   42 1
    37   24   25 ar
    38   25   26 ar
    39   25   31 ar
    40   26   27 2
    41   26   28 ar
    42   27   43 1
    43   28   29 ar
    44   28   45 1
    45   29   30 ar
    46   29   44 1
    47   30   31 ar
@<TRIPOS>SUBSTRUCTURE
     1 ATP         1 GROUP 0 A     ****
@<TRIPOS>MOLECULE
[[[3,4-dihydroxy-5-(6-imino-1~{H}-purin-9-yl)tetrahydrofuran-2-yl]methoxy-oxido-phosphoryl]oxy-hydroxy-phosphoryl] hydrogen phosphate
   45    47     1     0     0
SMALL
USER_CHARGES

@<TRIPOS>ATOM
      1 PG         -5.6438    7.7587    0.9315 P.3       1 ATP         1.5496
      2 O1G        -4.8661    9.0408    0.7335 O.co2     1 ATP        -0.8494
      3 O2G        -6.6963    7.6474    2.0119 O.co2     1 ATP        -0.8494
      4 O3G        -6.3178    7.3360   -0.4944 O.3       1 ATP        -0.7845
      5 PB         -3.3718    6.0572    0.1309 P.3       1 ATP         1.9068
      6 O1B        -3.7594    5.6876   -1.2703 O.2       1 ATP        -0.8942
      7 O2B        -2.3095    7.2699    0.2509 O.3       1 ATP        -0.8166
      8 O3B        -4.5922    6.5214    1.0839 O.3       1 ATP        -0.8194
      9 PA         -3.3161    3.4232    1.4577 P.3       1 ATP         1.5903
     10 O1A        -3.5062    2.5741    0.2197 O.co2     1 ATP        -0.8519
     11 O2A        -4.4618    3.6582    2.4178 O.co2     1 ATP        -0.8519
     12 O3A        -2.7142    4.8745    1.0132 O.3       1 ATP        -0.8093
     13 O5'        -2.0402    2.8619    2.3130 O.3       1 ATP        -0.5649
     14 C5'        -0.8811    2.4285    1.6206 C.3       1 ATP         0.1979
     15 C4'        -0.1994    1.3333    2.4288 C.3       1 ATP         0.1179
     16 O4'        -1.1285    0.2356    2.5840 O.3       1 ATP        -0.3878
     17 C3'         1.0324    0.7610    1.7344 C.3       1 ATP         0.1185
     18 O3'         1.9175    0.2377    2.7247 O.3       1 ATP        -0.5544
     19 C2'         0.4468   -0.3802    0.9263 C.3       1 ATP         0.0542
     20 O2'         1.3993   -1.3703    0.5961 O.3       1 ATP        -0.5831
     21 C1'        -0.6159   -0.9100    1.8769 C.3       1 ATP         0.2222
     22 N9         -1.7127   -1.6108    1.2130 N.pl3     1 ATP        -0.1887
     23 C8         -2.8662   -1.0361    0.7388 C.ar      1 ATP         0.4447
     24 N7         -3.6774   -1.9166    0.1867 N.2       1 ATP        -0.6159
     25 C5         -3.0159   -3.1045    0.3123 C.ar      1 ATP         0.2195
     26 C6         -3.4377   -4.4169   -0.1199 C.ar      1 ATP         0.6144
     27 N6         -4.5720   -4.5691   -0.7080 N.2       1 ATP        -0.8160
     28 N1         -2.4600   -5.3463    0.2071 N.pl3     1 ATP        -0.8611
     29 C2         -1.2595   -5.0554    0.8515 C.ar      1 ATP         0.6141
     30 N3         -0.8555   -3.8803    1.2516 N.2       1 ATP        -0.5913
     31 C4         -1.7946   -2.9457    0.9448 C.ar      1 ATP         0.0067
     32 HOG3       -6.8591    6.5187   -0.5307 H         1 ATP         0.4313
     33 HOB2       -2.5483    8.1479   -0.1156 H         1 ATP         0.4716
     34 H5'1       -1.1769    2.0503    0.6369 H         1 ATP         0.0452
     35 H5'2       -0.2081    3.2815    1.4877 H         1 ATP         0.0452
     36 H4'         0.0403    1.7078    3.4343 H         1 ATP         0.0998
     37 H3'         1.5906    1.4859    1.1353 H         1 ATP         0.0544
     38 HO3'        2.6839   -0.1150    2.2479 H         1 ATP         0.3961
     39 H2'        -0.0017    0.0018    0.0005 H         1 ATP         0.0499
     40 HO2'        2.0953   -0.9375    0.0709 H         1 ATP         0.4045
     41 H1'        -0.1998   -1.6319    2.6178 H         1 ATP         0.0912
     42 H8         -3.0558    0.0252    0.8256 H         1 ATP         0.1090
     43 HN62       -4.7047   -5.5592   -0.9421 H         1 ATP         0.3694
     44 H2         -0.6372   -5.9505    1.0077 H         1 ATP         0.0371
     45 H45        -2.6338   -6.3155   -0.0469 H         1 ATP         0.4283
@<TRIPOS>BOND
     1    1    2 2
     2    1    3 1
     3    1    4 1
     4    1    8 1
     5    4   32 1
     6    5    6 2
     7    5    7 1
     8    5    8 1
     9    5   12 1
    10    7   33 1
    11    9   10 2
    12    9   11 1
    13    9   12 1
    14    9   13 1
    15   13   14 1
    16   14   15 1
    17   14   34 1
    18   14   35 1
    19   15   16 1
    20   15   17 1
    21   15   36 1
    22   16   21 1
    23   17   18 1
    24   17   19 1
    25   17   37 1
    26   18   38 1
    27   19   20 1
    28   19   21 1
    29   19   39 1
    30   20   40 1
    31   21   22 1
    32   21   41 1
    33   22   23 ar
    34   22   31 ar
    35   23   24 ar
    36   23   42 1
    37   24   25 ar
    38   25   26 ar
    39   25   31 ar
    40   26   27 2
    41   26   28 ar
    42   27   43 1
    43   28   29 ar
    44   28   45 1
    45   29   30 ar
    46   29   44 1
    47   30   31 ar
@<TRIPOS>SUBSTRUCTURE
     1 ATP         1 GROUP 0 A     ****
@<TRIPOS>MOLECULE
[[[3,4-dihydroxy-5-(6-imino-1~{H}-purin-9-yl)tetrahydrofuran-2-yl]methoxy-oxido-phosphoryl]oxy-hydroxy-phosphoryl] hydrogen phosphate
   45    47     1     0     0
SMALL
USER_CHARGES

@<TRIPOS>ATOM
      1 PG          4.4247    2.2809   -6.3747 P.3       1 ATP         1.5496
      2 O1G         5.2703    1.1107   -6.8258 O.co2     1 ATP        -0.8494
      3 O2G         4.5542    3.6342   -7.0376 O.co2     1 ATP        -0.8494
      4 O3G         2.8553    1.8321   -6.4147 O.3       1 ATP        -0.7845
      5 PB          5.8709    2.8975   -3.8795 P.3       1 ATP         1.9068
      6 O1B         7.0678    2.0016   -4.0030 O.2       1 ATP        -0.8942
      7 O2B         6.1209    4.4375   -4.3030 O.3       1 ATP        -0.8166
      8 O3B         4.5891    2.4607   -4.7620 O.3       1 ATP        -0.8194
      9 PA          5.8654    3.5045   -0.9929 P.3       1 ATP         1.5903
     10 O1A         6.1808    4.9806   -1.1005 O.co2     1 ATP        -0.8519
     11 O2A         6.9315    2.5141   -0.5777 O.co2     1 ATP        -0.8519
     12 O3A         5.2192    2.9999   -2.4049 O.3       1 ATP        -0.8093
     13 O5'         4.5669    3.2939   -0.0211 O.3       1 ATP        -0.5649
     14 C5'         4.0922    1.9801    0.2227 C.3       1 ATP         0.1979
     15 C4'         2.5944    2.0310    0.4653 C.3       1 ATP         0.1179
     16 O4'         1.9327    2.5740   -0.6889 O.3       1 ATP        -0.3878
     17 C3'         1.9685    0.6634    0.6767 C.3       1 ATP         0.1185
     18 O3'         2.1425    0.1975    1.9977 O.3       1 ATP        -0.5544
     19 C2'         0.5176    0.9128    0.3099 C.3       1 ATP         0.0542
     20 O2'        -0.2103    1.4454    1.4152 O.3       1 ATP        -0.5831
     21 C1'         0.6219    1.9765   -0.7844 C.3       1 ATP         0.2222
     22 N9          0.4237    1.4496   -2.1357 N.pl3     1 ATP        -0.1887
     23 C8          1.4069    0.9710   -2.9662 C.ar      1 ATP         0.4447
     24 N7          0.9316    0.5623   -4.1260 N.2       1 ATP        -0.6159
     25 C5         -0.4120    0.7884   -4.0344 C.ar      1 ATP         0.2195
     26 C6         -1.4353    0.5283   -5.0204 C.ar      1 ATP         0.6144
     27 N6         -1.1199    0.0176   -6.1586 N.2       1 ATP        -0.8160
     28 N1         -2.6704    0.9095   -4.5147 N.pl3     1 ATP        -0.8611
     29 C2         -2.8863    1.4571   -3.2520 C.ar      1 ATP         0.6141
     30 N3         -1.9805    1.7017   -2.3442 N.2       1 ATP        -0.5913
     31 C4         -0.7561    1.3381   -2.8112 C.ar      1 ATP         0.0067
     32 HOG3        2.1756    2.4871   -6.1477 H         1 ATP         0.4313
     33 HOB2        6.7964    4.9590   -3.8193 H         1 ATP         0.4716
     34 H5'1        4.3180    1.3550   -0.6470 H         1 ATP         0.0452
     35 H5'2        4.6084    1.5739    1.0983 H         1 ATP         0.0452
     36 H4'         2.3751    2.7029    1.3156 H         1 ATP         0.0998
     37 H3'         2.4336   -0.1217   -0.0015 H         1 ATP         0.0544
     38 HO3'        3.0987    0.1465    2.1461 H         1 ATP         0.3961
     39 H2'         0.0316    0.0155   -0.0339 H         1 ATP         0.0499
     40 HO2'       -1.1270    1.5823    1.1180 H         1 ATP         0.4045
     41 H1'        -0.1474    2.7798   -0.6651 H         1 ATP         0.0912
     42 H8          2.4466    0.9468   -2.6694 H         1 ATP         0.1090
     43 HN62       -1.9661   -0.0965   -6.7275 H         1 ATP         0.3694
     44 H2         -3.9481    1.6825   -3.0660 H         1 ATP         0.0371
     45 H45        -3.4814    0.7753   -5.1133 H         1 ATP         0.4283
@<TRIPOS>BOND
     1    1    2 2
     2    1    3 1
     3    1    4 1
     4    1    8 1
     5    4   32 1
     6    5    6 2
     7    5    7 1
     8    5    8 1
     9    5   12 1
    10    7   33 1
    11    9   10 2
    12    9   11 1
    13    9   12 1
    14    9   13 1
    15   13   14 1
    16   14   15 1
    17   14   34 1
    18   14   35 1
    19   15   16 1
    20   15   17 1
    21   15   36 1
    22   16   21 1
    23   17   18 1
    24   17   19 1
    25   17   37 1
    26   18   38 1
    27   19   20 1
    28   19   21 1
    29   19   39 1
    30   20   40 1
    31   21   22 1
    32   21   41 1
    33   22   23 ar
    34   22   31 ar
    35   23   24 ar
    36   23   42 1
    37   24   25 ar
    38   25   26 ar
    39   25   31 ar
    40   26   27 2
    41   26   28 ar
    42   27   43 1
    43   28   29 ar
    44   28   45 1
    45   29   30 ar
    46   29   44 1
    47   30   31 ar
@<TRIPOS>SUBSTRUCTURE
     1 ATP         1 GROUP 0 A     ****
@<TRIPOS>MOLECULE
[[[3,4-dihydroxy-5-(6-imino-1~{H}-purin-9-yl)tetrahydrofuran-2-yl]methoxy-oxido-phosphoryl]oxy-hydroxy-phosphoryl] hydrogen phosphate
   45    47     1     0     0
SMALL
USER_CHARGES

@<TRIPOS>ATOM
      1 PG         -4.6749    7.4039    2.7680 P.3       1 ATP         1.5496
      2 O1G        -5.2106    7.2486    4.1740 O.co2     1 ATP        -0.8494
      3 O2G        -5.5676    7.1819    1.5676 O.co2     1 ATP        -0.8494
      4 O3G        -3.9857    8.8782    2.6360 O.3       1 ATP        -0.7845
      5 PB         -1.9874    6.4367    3.5029 P.3       1 ATP         1.9068
      6 O1B        -1.2220    7.7244    3.5827 O.2       1 ATP        -0.8942
      7 O2B        -2.4921    5.8503    4.9224 O.3       1 ATP        -0.8166
      8 O3B        -3.3337    6.4893    2.6098 O.3       1 ATP        -0.8194
      9 PA         -0.5789    5.0299    1.3262 P.3       1 ATP         1.5903
     10 O1A         0.5634    6.0091    1.1644 O.co2     1 ATP        -0.8519
     11 O2A        -1.7206    5.0026    0.3335 O.co2     1 ATP        -0.8519
     12 O3A        -1.2065    5.1960    2.8244 O.3       1 ATP        -0.8093
     13 O5'         0.0180    3.5131    1.4595 O.3       1 ATP        -0.5649
     14 C5'        -0.8811    2.4285    1.6206 C.3       1 ATP         0.1979
     15 C4'        -0.1994    1.3333    2.4288 C.3       1 ATP         0.1179
     16 O4'        -1.1285    0.2356    2.5840 O.3       1 ATP        -0.3878
     17 C3'         1.0324    0.7610    1.7344 C.3       1 ATP         0.1185
     18 O3'         1.9175    0.2377    2.7247 O.3       1 ATP        -0.5544
     19 C2'         0.4468   -0.3802    0.9263 C.3       1 ATP         0.0542
     20 O2'         1.3993   -1.3703    0.5961 O.3       1 ATP        -0.5831
     21 C1'        -0.6159   -0.9100    1.8769 C.3       1 ATP         0.2222
     22 N9         -1.7127   -1.6108    1.2130 N.pl3     1 ATP        -0.1887
     23 C8         -2.8662   -1.0361    0.7388 C.ar      1 ATP         0.4447
     24 N7         -3.6774   -1.9166    0.1867 N.2       1 ATP        -0.6159
     25 C5         -3.0159   -3.1045    0.3123 C.ar      1 ATP         0.2195
     26 C6         -3.4377   -4.4169   -0.1199 C.ar      1 ATP         0.6144
     27 N6         -4.5720   -4.5691   -0.7080 N.2       1 ATP        -0.8160
     28 N1         -2.4600   -5.3463    0.2071 N.pl3     1 ATP        -0.8611
     29 C2         -1.2595   -5.0554    0.8515 C.ar      1 ATP         0.6141
     30 N3         -0.8555   -3.8803    1.2516 N.2       1 ATP        -0.5913
     31 C4         -1.7946   -2.9457    0.9448 C.ar      1 ATP         0.0067
     32 HOG3       -3.5883    9.1323    1.7759 H         1 ATP         0.4313
     33 HOB2       -3.0956    6.3936    5.4727 H         1 ATP         0.4716
     34 H5'1       -1.7770    2.7851    2.1387 H         1 ATP         0.0452
     35 H5'2       -1.1653    2.0543    0.6320 H         1 ATP         0.0452
     36 H4'         0.0403    1.7078    3.4343 H         1 ATP         0.0998
     37 H3'         1.5906    1.4859    1.1353 H         1 ATP         0.0544
     38 HO3'        2.6839   -0.1150    2.2479 H         1 ATP         0.3961
     39 H2'        -0.0017    0.0018    0.0005 H         1 ATP         0.0499
     40 HO2'        2.0953   -0.9375    0.0709 H         1 ATP         0.4045
     41 H1'        -0.1998   -1.6319    2.6178 H         1 ATP         0.0912
     42 H8         -3.0558    0.0252    0.8256 H         1 ATP         0.1090
     43 HN62       -4.7047   -5.5592   -0.9421 H         1 ATP         0.3694
     44 H2         -0.6372   -5.9505    1.0077 H         1 ATP         0.0371
     45 H45        -2.6338   -6.3155   -0.0469 H         1 ATP         0.4283
@<TRIPOS>BOND
     1    1    2 2
     2    1    3 1
     3    1    4 1
     4    1    8 1
     5    4   32 1
     6    5    6 2
     7    5    7 1
     8    5    8 1
     9    5   12 1
    10    7   33 1
    11    9   10 2
    12    9   11 1
    13    9   12 1
    14    9   13 1
    15   13   14 1
    16   14   15 1
    17   14   34 1
    18   14   35 1
    19   15   16 1
    20   15   17 1
    21   15   36 1
    22   16   21 1
    23   17   18 1
    24   17   19 1
    25   17   37 1
    26   18   38 1
    27   19   20 1
    28   19   21 1
    29   19   39 1
    30   20   40 1
    31   21   22 1
    32   21   41 1
    33   22   23 ar
    34   22   31 ar
    35   23   24 ar
    36   23   42 1
    37   24   25 ar
    38   25   26 ar
    39   25   31 ar
    40   26   27 2
    41   26   28 ar
    42   27   43 1
    43   28   29 ar
    44   28   45 1
    45   29   30 ar
    46   29   44 1
    47   30   31 ar
@<TRIPOS>SUBSTRUCTURE
     1 ATP         1 GROUP 0 A     ****
@<TRIPOS>MOLECULE
[[[3,4-dihydroxy-5-(6-imino-1~{H}-purin-9-yl)tetrahydrofuran-2-yl]methoxy-oxido-phosphoryl]oxy-hydroxy-phosphoryl] hydrogen phosphate
   45    47     1     0     0
SMALL
USER_CHARGES

@<TRIPOS>ATOM
      1 PG          6.6085    5.7181   -2.4347 P.3       1 ATP         1.5496
      2 O1G         7.3402    5.2254   -1.2060 O.co2     1 ATP        -0.8494
      3 O2G         5.3229    6.5050   -2.3100 O.co2     1 ATP        -0.8494
      4 O3G         7.6536    6.5744   -3.3516 O.3       1 ATP        -0.7845
      5 PB          5.4431    3.1444   -3.2807 P.3       1 ATP         1.9068
      6 O1B         3.9780    3.4097   -3.0982 O.2       1 ATP        -0.8942
      7 O2B         5.8216    2.2474   -4.5714 O.3       1 ATP        -0.8166
      8 O3B         6.3667    4.4608   -3.4450 O.3       1 ATP        -0.8194
      9 PA          5.8978    0.9308   -1.3849 P.3       1 ATP         1.5903
     10 O1A         6.7865    0.7713   -0.1705 O.co2     1 ATP        -0.8519
     11 O2A         5.9016   -0.1054   -2.4876 O.co2     1 ATP        -0.8519
     12 O3A         6.1792    2.3930   -2.0547 O.3       1 ATP        -0.8093
     13 O5'         4.3515    1.1574   -0.9027 O.3       1 ATP        -0.5649
     14 C5'         4.0922    1.9801    0.2227 C.3       1 ATP         0.1979
     15 C4'         2.5944    2.0310    0.4653 C.3       1 ATP         0.1179
     16 O4'         1.9327    2.5740   -0.6889 O.3       1 ATP        -0.3878
     17 C3'         1.9685    0.6634    0.6767 C.3       1 ATP         0.1185
     18 O3'         2.1425    0.1975    1.9977 O.3       1 ATP        -0.5544
     19 C2'         0.5176    0.9128    0.3099 C.3       1 ATP         0.0542
     20 O2'        -0.2103    1.4454    1.4152 O.3       1 ATP        -0.5831
     21 C1'         0.6219    1.9765   -0.7844 C.3       1 ATP         0.2222
     22 N9          0.4237    1.4496   -2.1357 N.pl3     1 ATP        -0.1887
     23 C8          1.4069    0.9710   -2.9662 C.ar      1 ATP         0.4447
     24 N7          0.9316    0.5623   -4.1260 N.2       1 ATP        -0.6159
     25 C5         -0.4120    0.7884   -4.0344 C.ar      1 ATP         0.2195
     26 C6         -1.4353    0.5283   -5.0204 C.ar      1 ATP         0.6144
     27 N6         -1.1199    0.0176   -6.1586 N.2       1 ATP        -0.8160
     28 N1         -2.6704    0.9095   -4.5147 N.pl3     1 ATP        -0.8611
     29 C2         -2.8863    1.4571   -3.2520 C.ar      1 ATP         0.6141
     30 N3         -1.9805    1.7017   -2.3442 N.2       1 ATP        -0.5913
     31 C4         -0.7561    1.3381   -2.8112 C.ar      1 ATP         0.0067
     32 HOG3        7.3274    6.9641   -4.1906 H         1 ATP         0.4313
     33 HOB2        5.4563    1.3397   -4.6420 H         1 ATP         0.4716
     34 H5'1        4.6070    1.5617    1.0934 H         1 ATP         0.0452
     35 H5'2        4.4825    2.9836    0.0252 H         1 ATP         0.0452
     36 H4'         2.3751    2.7029    1.3156 H         1 ATP         0.0998
     37 H3'         2.4336   -0.1217   -0.0015 H         1 ATP         0.0544
     38 HO3'        1.7160   -0.6716    2.0397 H         1 ATP         0.3961
     39 H2'         0.0316    0.0155   -0.0339 H         1 ATP         0.0499
     40 HO2'       -0.1608    0.7921    2.1351 H         1 ATP         0.4045
     41 H1'        -0.1474    2.7798   -0.6651 H         1 ATP         0.0912
     42 H8          2.4466    0.9468   -2.6694 H         1 ATP         0.1090
     43 HN62       -1.9661   -0.0965   -6.7275 H         1 ATP         0.3694
     44 H2         -3.9481    1.6825   -3.0660 H         1 ATP         0.0371
     45 H45        -3.4814    0.7753   -5.1133 H         1 ATP         0.4283
@<TRIPOS>BOND
     1    1    2 2
     2    1    3 1
     3    1    4 1
     4    1    8 1
     5    4   32 1
     6    5    6 2
     7    5    7 1
     8    5    8 1
     9    5   12 1
    10    7   33 1
    11    9   10 2
    12    9   11 1
    13    9   12 1
    14    9   13 1
    15   13   14 1
    16   14   15 1
    17   14   34 1
    18   14   35 1
    19   15   16 1
    20   15   17 1
    21   15   36 1
    22   16   21 1
    23   17   18 1
    24   17   19 1
    25   17   37 1
    26   18   38 1
    27   19   20 1
    28   19   21 1
    29   19   39 1
    30   20   40 1
    31   21   22 1
    32   21   41 1
    33   22   23 ar
    34   22   31 ar
    35   23   24 ar
    36   23   42 1
    37   24   25 ar
    38   25   26 ar
    39   25   31 ar
    40   26   27 2
    41   26   28 ar
    42   27   43 1
    43   28   29 ar
    44   28   45 1
    45   29   30 ar
    46   29   44 1
    47   30   31 ar
@<TRIPOS>SUBSTRUCTURE
     1 ATP         1 GROUP 0 A     ****
@<TRIPOS>MOLECULE
[[[3,4-dihydroxy-5-(6-imino-1~{H}-purin-9-yl)tetrahydrofuran-2-yl]methoxy-oxido-phosphoryl]oxy-hydroxy-phosphoryl] hydrogen phosphate
   45    47     1     0     0
SMALL
USER_CHARGES

@<TRIPOS>ATOM
      1 PG         -4.0957    4.6623   -3.3227 P.3       1 ATP         1.5496
      2 O1G        -4.8438    5.9764   -3.3582 O.co2     1 ATP        -0.8494
      3 O2G        -4.7146    3.4005   -3.8815 O.co2     1 ATP        -0.8494
      4 O3G        -2.6362    4.8777   -4.0225 O.3       1 ATP        -0.7845
      5 PB         -4.4459    4.0655   -0.4558 P.3       1 ATP         1.9068
      6 O1B        -5.4165    5.1343   -0.0483 O.2       1 ATP        -0.8942
      7 O2B        -5.1035    2.6180   -0.7488 O.3       1 ATP        -0.8166
      8 O3B        -3.5977    4.3792   -1.7956 O.3       1 ATP        -0.8194
      9 PA         -3.3346    3.2336    2.1469 P.3       1 ATP         1.5903
     10 O1A        -3.9078    1.8333    2.1683 O.co2     1 ATP        -0.8519
     11 O2A        -3.9474    4.3330    2.9871 O.co2     1 ATP        -0.8519
     12 O3A        -3.2643    3.7501    0.5996 O.3       1 ATP        -0.8093
     13 O5'        -1.7337    3.1724    2.4752 O.3       1 ATP        -0.5649
     14 C5'        -0.8811    2.4285    1.6206 C.3       1 ATP         0.1979
     15 C4'        -0.1994    1.3333    2.4288 C.3       1 ATP         0.1179
     16 O4'        -1.1285    0.2356    2.5840 O.3       1 ATP        -0.3878
     17 C3'         1.0324    0.7610    1.7344 C.3       1 ATP         0.1185
     18 O3'         1.9175    0.2377    2.7247 O.3       1 ATP        -0.5544
     19 C2'         0.4468   -0.3802    0.9263 C.3       1 ATP         0.0542
     20 O2'         1.3993   -1.3703    0.5961 O.3       1 ATP        -0.5831
     21 C1'        -0.6159   -0.9100    1.8769 C.3       1 ATP         0.2222
     22 N9         -1.7127   -1.6108    1.2130 N.pl3     1 ATP        -0.1887
     23 C8         -2.5485   -1.0808    0.2609 C.ar      1 ATP         0.4447
     24 N7         -3.4476   -1.9486   -0.1593 N.2       1 ATP        -0.6159
     25 C5         -3.1762   -3.0816    0.5530 C.ar      1 ATP         0.2195
     26 C6         -3.8510   -4.3579    0.5006 C.ar      1 ATP         0.6144
     27 N6         -4.8468   -4.5293   -0.2961 N.2       1 ATP        -0.8160
     28 N1         -3.2499   -5.2342    1.3937 N.pl3     1 ATP        -0.8611
     29 C2         -2.1646   -4.9275    2.2116 C.ar      1 ATP         0.6141
     30 N3         -1.5382   -3.7840    2.2778 N.2       1 ATP        -0.5913
     31 C4         -2.1054   -2.9018    1.4120 C.ar      1 ATP         0.0067
     32 HOG3       -2.0272    4.1108   -4.0774 H         1 ATP         0.4313
     33 HOB2       -5.5913    2.1640   -0.0289 H         1 ATP         0.4716
     34 H5'1       -1.4801    1.9928    0.8147 H         1 ATP         0.0452
     35 H5'2       -0.1369    3.1041    1.1872 H         1 ATP         0.0452
     36 H4'         0.0403    1.7078    3.4343 H         1 ATP         0.0998
     37 H3'         1.5906    1.4859    1.1353 H         1 ATP         0.0544
     38 HO3'        2.6839   -0.1150    2.2479 H         1 ATP         0.3961
     39 H2'        -0.0017    0.0018    0.0005 H         1 ATP         0.0499
     40 HO2'        2.0953   -0.9375    0.0709 H         1 ATP         0.4045
     41 H1'        -0.1998   -1.6319    2.6178 H         1 ATP         0.0912
     42 H8         -2.4515   -0.0599   -0.0829 H         1 ATP         0.1090
     43 HN62       -5.1990   -5.4882   -0.2004 H         1 ATP         0.3694
     44 H2         -1.8555   -5.7783    2.8388 H         1 ATP         0.0371
     45 H45        -3.6312   -6.1750    1.4526 H         1 ATP         0.4283
@<TRIPOS>BOND
     1    1    2 2
     2    1    3 1
     3    1    4 1
     4    1    8 1
     5    4   32 1
     6    5    6 2
     7    5    7 1
     8    5    8 1
     9    5   12 1
    10    7   33 1
    11    9   10 2
    12    9   11 1
    13    9   12 1
    14    9   13 1
    15   13   14 1
    16   14   15 1
    17   14   34 1
    18   14   35 1
    19   15   16 1
    20   15   17 1
    21   15   36 1
    22   16   21 1
    23   17   18 1
    24   17   19 1
    25   17   37 1
    26   18   38 1
    27   19   20 1
    28   19   21 1
    29   19   39 1
    30   20   40 1
    31   21   22 1
    32   21   41 1
    33   22   23 ar
    34   22   31 ar
    35   23   24 ar
    36   23   42 1
    37   24   25 ar
    38   25   26 ar
    39   25   31 ar
    40   26   27 2
    41   26   28 ar
    42   27   43 1
    43   28   29 ar
    44   28   45 1
    45   29   30 ar
    46   29   44 1
    47   30   31 ar
@<TRIPOS>SUBSTRUCTURE
     1 ATP         1 GROUP 0 A     ****
@<TRIPOS>MOLECULE
[[[3,4-dihydroxy-5-(6-imino-1~{H}-purin-9-yl)tetrahydrofuran-2-yl]methoxy-oxido-phosphoryl]oxy-hydroxy-phosphoryl] hydrogen phosphate
   45    47     1     0     0
SMALL
USER_CHARGES

@<TRIPOS>ATOM
      1 PG          0.3477    8.4408    0.1706 P.3       1 ATP         1.5496
      2 O1G        -0.0870    9.6422    0.9801 O.co2     1 ATP        -0.8494
      3 O2G         0.2096    8.4274   -1.3354 O.co2     1 ATP        -0.8494
      4 O3G         1.8964    8.0914    0.5524 O.3       1 ATP        -0.7845
      5 PB         -1.9194    6.6676    0.8141 P.3       1 ATP         1.9068
      6 O1B        -2.8352    7.6102    1.5374 O.2       1 ATP        -0.8942
      7 O2B        -2.2802    6.4207   -0.7423 O.3       1 ATP        -0.8166
      8 O3B        -0.3641    7.1066    0.7818 O.3       1 ATP        -0.8194
      9 PA         -2.9646    4.0417    1.6588 P.3       1 ATP         1.5903
     10 O1A        -3.4784    3.5899    0.3091 O.co2     1 ATP        -0.8519
     11 O2A        -3.9189    4.5387    2.7228 O.co2     1 ATP        -0.8519
     12 O3A        -1.8146    5.1782    1.4307 O.3       1 ATP        -0.8093
     13 O5'        -2.0402    2.8619    2.3130 O.3       1 ATP        -0.5649
     14 C5'        -0.8811    2.4285    1.6206 C.3       1 ATP         0.1979
     15 C4'        -0.1994    1.3333    2.4288 C.3       1 ATP         0.1179
     16 O4'        -1.1285    0.2356    2.5840 O.3       1 ATP        -0.3878
     17 C3'         1.0324    0.7610    1.7344 C.3       1 ATP         0.1185
     18 O3'         1.9175    0.2377    2.7247 O.3       1 ATP        -0.5544
     19 C2'         0.4468   -0.3802    0.9263 C.3       1 ATP         0.0542
     20 O2'         1.3993   -1.3703    0.5961 O.3       1 ATP        -0.5831
     21 C1'        -0.6159   -0.9100    1.8769 C.3       1 ATP         0.2222
     22 N9         -1.7127   -1.6108    1.2130 N.pl3     1 ATP        -0.1887
     23 C8         -1.7690   -2.9583    0.9549 C.ar      1 ATP         0.4447
     24 N7         -2.8827   -3.3076    0.3418 N.2       1 ATP        -0.6159
     25 C5         -3.5683   -2.1351    0.2017 C.ar      1 ATP         0.2195
     26 C6         -4.8617   -1.9185   -0.4044 C.ar      1 ATP         0.6144
     27 N6         -5.5166   -2.9094   -0.8994 N.2       1 ATP        -0.8160
     28 N1         -5.1836   -0.5701   -0.3344 N.pl3     1 ATP        -0.8611
     29 C2         -4.3821    0.4180    0.2330 C.ar      1 ATP         0.6141
     30 N3         -3.2117    0.2488    0.7860 N.2       1 ATP        -0.5913
     31 C4         -2.8672   -1.0657    0.7327 C.ar      1 ATP         0.0067
     32 HOG3        2.3266    7.3307    0.1071 H         1 ATP         0.4313
     33 HOB2       -3.1565    6.0446   -0.9724 H         1 ATP         0.4716
     34 H5'1       -1.1769    2.0503    0.6369 H         1 ATP         0.0452
     35 H5'2       -0.2081    3.2815    1.4877 H         1 ATP         0.0452
     36 H4'         0.0403    1.7078    3.4343 H         1 ATP         0.0998
     37 H3'         1.5906    1.4859    1.1353 H         1 ATP         0.0544
     38 HO3'        2.6839   -0.1150    2.2479 H         1 ATP         0.3961
     39 H2'        -0.0017    0.0018    0.0005 H         1 ATP         0.0499
     40 HO2'        2.0953   -0.9375    0.0709 H         1 ATP         0.4045
     41 H1'        -0.1998   -1.6319    2.6178 H         1 ATP         0.0912
     42 H8         -0.9697   -3.6300    1.2371 H         1 ATP         0.1090
     43 HN62       -6.4060   -2.5723   -1.2840 H         1 ATP         0.3694
     44 H2         -4.8409    1.4176    0.1757 H         1 ATP         0.0371
     45 H45        -6.0768   -0.2826   -0.7263 H         1 ATP         0.4283
@<TRIPOS>BOND
     1    1    2 2
     2    1    3 1
     3    1    4 1
     4    1    8 1
     5    4   32 1
     6    5    6 2
     7    5    7 1
     8    5    8 1
     9    5   12 1
    10    7   33 1
    11    9   10 2
    12    9   11 1
    13    9   12 1
    14    9   13 1
    15   13   14 1
    16   14   15 1
    17   14   34 1
    18   14   35 1
    19   15   16 1
    20   15   17 1
    21   15   36 1
    22   16   21 1
    23   17   18 1
    24   17   19 1
    25   17   37 1
    26   18   38 1
    27   19   20 1
    28   19   21 1
    29   19   39 1
    30   20   40 1
    31   21   22 1
    32   21   41 1
    33   22   23 ar
    34   22   31 ar
    35   23   24 ar
    36   23   42 1
    37   24   25 ar
    38   25   26 ar
    39   25   31 ar
    40   26   27 2
    41   26   28 ar
    42   27   43 1
    43   28   29 ar
    44   28   45 1
    45   29   30 ar
    46   29   44 1
    47   30   31 ar
@<TRIPOS>SUBSTRUCTURE
     1 ATP         1 GROUP 0 A     ****
@<TRIPOS>MOLECULE
[[[3,4-dihydroxy-5-(6-imino-1~{H}-purin-9-yl)tetrahydrofuran-2-yl]methoxy-oxido-phosphoryl]oxy-hydroxy-phosphoryl] hydrogen phosphate
   45    47     1     0     0
SMALL
USER_CHARGES

@<TRIPOS>ATOM
      1 PG         -7.1914    2.7776    2.6619 P.3       1 ATP         1.5496
      2 O1G        -8.0294    2.2229    1.5315 O.co2     1 ATP        -0.8494
      3 O2G        -7.7266    3.8680    3.5631 O.co2     1 ATP        -0.8494
      4 O3G        -6.6901    1.5342    3.5940 O.3       1 ATP        -0.7845
      5 PB         -4.6623    2.4262    1.1862 P.3       1 ATP         1.9068
      6 O1B        -4.1151    1.1864    1.8295 O.2       1 ATP        -0.8942
      7 O2B        -5.4172    2.1907   -0.2238 O.3       1 ATP        -0.8166
      8 O3B        -5.7444    3.2405    2.0687 O.3       1 ATP        -0.8194
      9 PA         -2.5926    4.4186    1.8557 P.3       1 ATP         1.5903
     10 O1A        -3.4218    5.0535    2.9508 O.co2     1 ATP        -0.8519
     11 O2A        -1.6628    5.2565    1.0052 O.co2     1 ATP        -0.8519
     12 O3A        -3.5835    3.5841    0.8618 O.3       1 ATP        -0.8093
     13 O5'        -1.7337    3.1724    2.4752 O.3       1 ATP        -0.5649
     14 C5'        -0.8811    2.4285    1.6206 C.3       1 ATP         0.1979
     15 C4'        -0.1994    1.3333    2.4288 C.3       1 ATP         0.1179
     16 O4'        -1.1285    0.2356    2.5840 O.3       1 ATP        -0.3878
     17 C3'         1.0324    0.7610    1.7344 C.3       1 ATP         0.1185
     18 O3'         1.9175    0.2377    2.7247 O.3       1 ATP        -0.5544
     19 C2'         0.4468   -0.3802    0.9263 C.3       1 ATP         0.0542
     20 O2'         1.3993   -1.3703    0.5961 O.3       1 ATP        -0.5831
     21 C1'        -0.6159   -0.9100    1.8769 C.3       1 ATP         0.2222
     22 N9         -1.7127   -1.6108    1.2130 N.pl3     1 ATP        -0.1887
     23 C8         -2.5485   -1.0808    0.2609 C.ar      1 ATP         0.4447
     24 N7         -3.4476   -1.9486   -0.1593 N.2       1 ATP        -0.6159
     25 C5         -3.1762   -3.0816    0.5530 C.ar      1 ATP         0.2195
     26 C6         -3.8510   -4.3579    0.5006 C.ar      1 ATP         0.6144
     27 N6         -4.8468   -4.5293   -0.2961 N.2       1 ATP        -0.8160
     28 N1         -3.2499   -5.2342    1.3937 N.pl3     1 ATP        -0.8611
     29 C2         -2.1646   -4.9275    2.2116 C.ar      1 ATP         0.6141
     30 N3         -1.5382   -3.7840    2.2778 N.2       1 ATP        -0.5913
     31 C4         -2.1054   -2.9018    1.4120 C.ar      1 ATP         0.0067
     32 HOG3       -6.1411    0.8336    3.1817 H         1 ATP         0.4313
     33 HOB2       -6.2028    1.6038   -0.2493 H         1 ATP         0.4716
     34 H5'1       -1.4801    1.9928    0.8147 H         1 ATP         0.0452
     35 H5'2       -0.1369    3.1041    1.1872 H         1 ATP         0.0452
     36 H4'         0.0403    1.7078    3.4343 H         1 ATP         0.0998
     37 H3'         1.5906    1.4859    1.1353 H         1 ATP         0.0544
     38 HO3'        2.6839   -0.1150    2.2479 H         1 ATP         0.3961
     39 H2'        -0.0017    0.0018    0.0005 H         1 ATP         0.0499
     40 HO2'        2.0953   -0.9375    0.0709 H         1 ATP         0.4045
     41 H1'        -0.1998   -1.6319    2.6178 H         1 ATP         0.0912
     42 H8         -2.4515   -0.0599   -0.0829 H         1 ATP         0.1090
     43 HN62       -5.1990   -5.4882   -0.2004 H         1 ATP         0.3694
     44 H2         -1.8555   -5.7783    2.8388 H         1 ATP         0.0371
     45 H45        -3.6312   -6.1750    1.4526 H         1 ATP         0.4283
@<TRIPOS>BOND
     1    1    2 2
     2    1    3 1
     3    1    4 1
     4    1    8 1
     5    4   32 1
     6    5    6 2
     7    5    7 1
     8    5    8 1
     9    5   12 1
    10    7   33 1
    11    9   10 2
    12    9   11 1
    13    9   12 1
    14    9   13 1
    15   13   14 1
    16   14   15 1
    17   14   34 1
    18   14   35 1
    19   15   16 1
    20   15   17 1
    21   15   36 1
    22   16   21 1
    23   17   18 1
    24   17   19 1
    25   17   37 1
    26   18   38 1
    27   19   20 1
    28   19   21 1
    29   19   39 1
    30   20   40 1
    31   21   22 1
    32   21   41 1
    33   22   23 ar
    34   22   31 ar
    35   23   24 ar
    36   23   42 1
    37   24   25 ar
    38   25   26 ar
    39   25   31 ar
    40   26   27 2
    41   26   28 ar
    42   27   43 1
    43   28   29 ar
    44   28   45 1
    45   29   30 ar
    46   29   44 1
    47   30   31 ar
@<TRIPOS>SUBSTRUCTURE
     1 ATP         1 GROUP 0 A     ****
@<TRIPOS>MOLECULE
[[[3,4-dihydroxy-5-(6-imino-1~{H}-purin-9-yl)tetrahydrofuran-2-yl]methoxy-oxido-phosphoryl]oxy-hydroxy-phosphoryl] hydrogen phosphate
   45    47     1     0     0
SMALL
USER_CHARGES

@<TRIPOS>ATOM
      1 PG          0.7952    7.0401   -3.6228 P.3       1 ATP         1.5496
      2 O1G         1.0020    6.2359   -4.8870 O.co2     1 ATP        -0.8494
      3 O2G         1.8512    8.0070   -3.1356 O.co2     1 ATP        -0.8494
      4 O3G        -0.6235    7.8394   -3.7433 O.3       1 ATP        -0.7845
      5 PB         -0.7539    4.9000   -2.3121 P.3       1 ATP         1.9068
      6 O1B        -2.1556    5.4100   -2.4721 O.2       1 ATP        -0.8942
      7 O2B        -0.3008    3.7894   -3.3960 O.3       1 ATP        -0.8166
      8 O3B         0.4037    6.0240   -2.4085 O.3       1 ATP        -0.8194
      9 PA         -0.4664    4.8322    0.6228 P.3       1 ATP         1.5903
     10 O1A        -1.9047    5.1495    0.9699 O.co2     1 ATP        -0.8519
     11 O2A         0.6096    5.8893    0.7433 O.co2     1 ATP        -0.8519
     12 O3A        -0.4131    4.2167   -0.8886 O.3       1 ATP        -0.8093
     13 O5'         0.0180    3.5131    1.4595 O.3       1 ATP        -0.5649
     14 C5'        -0.8811    2.4285    1.6206 C.3       1 ATP         0.1979
     15 C4'        -0.1994    1.3333    2.4288 C.3       1 ATP         0.1179
     16 O4'        -1.1285    0.2356    2.5840 O.3       1 ATP        -0.3878
     17 C3'         1.0324    0.7610    1.7344 C.3       1 ATP         0.1185
     18 O3'         1.9175    0.2377    2.7247 O.3       1 ATP        -0.5544
     19 C2'         0.4468   -0.3802    0.9263 C.3       1 ATP         0.0542
     20 O2'         1.3993   -1.3703    0.5961 O.3       1 ATP        -0.5831
     21 C1'        -0.6159   -0.9100    1.8769 C.3       1 ATP         0.2222
     22 N9         -1.7127   -1.6108    1.2130 N.pl3     1 ATP        -0.1887
     23 C8         -1.7690   -2.9583    0.9549 C.ar      1 ATP         0.4447
     24 N7         -2.8827   -3.3076    0.3418 N.2       1 ATP        -0.6159
     25 C5         -3.5683   -2.1351    0.2017 C.ar      1 ATP         0.2195
     26 C6         -4.8617   -1.9185   -0.4044 C.ar      1 ATP         0.6144
     27 N6         -5.5166   -2.9094   -0.8994 N.2       1 ATP        -0.8160
     28 N1         -5.1836   -0.5701   -0.3344 N.pl3     1 ATP        -0.8611
     29 C2         -4.3821    0.4180    0.2330 C.ar      1 ATP         0.6141
     30 N3         -3.2117    0.2488    0.7860 N.2       1 ATP        -0.5913
     31 C4         -2.8672   -1.0657    0.7327 C.ar      1 ATP         0.0067
     32 HOG3       -0.9026    8.4102   -2.9960 H         1 ATP         0.4313
     33 HOB2       -0.3071    4.0254   -4.3482 H         1 ATP         0.4716
     34 H5'1       -1.7770    2.7851    2.1387 H         1 ATP         0.0452
     35 H5'2       -1.1653    2.0543    0.6320 H         1 ATP         0.0452
     36 H4'         0.0403    1.7078    3.4343 H         1 ATP         0.0998
     37 H3'         1.5906    1.4859    1.1353 H         1 ATP         0.0544
     38 HO3'        2.6839   -0.1150    2.2479 H         1 ATP         0.3961
     39 H2'        -0.0017    0.0018    0.0005 H         1 ATP         0.0499
     40 HO2'        2.0953   -0.9375    0.0709 H         1 ATP         0.4045
     41 H1'        -0.1998   -1.6319    2.6178 H         1 ATP         0.0912
     42 H8         -0.9697   -3.6300    1.2371 H         1 ATP         0.1090
     43 HN62       -6.4060   -2.5723   -1.2840 H         1 ATP         0.3694
     44 H2         -4.8409    1.4176    0.1757 H         1 ATP         0.0371
     45 H45        -6.0768   -0.2826   -0.7263 H         1 ATP         0.4283
@<TRIPOS>BOND
     1    1    2 2
     2    1    3 1
     3    1    4 1
     4    1    8 1
     5    4   32 1
     6    5    6 2
     7    5    7 1
     8    5    8 1
     9    5   12 1
    10    7   33 1
    11    9   10 2
    12    9   11 1
    13    9   12 1
    14    9   13 1
    15   13   14 1
    16   14   15 1
    17   14   34 1
    18   14   35 1
    19   15   16 1
    20   15   17 1
    21   15   36 1
    22   16   21 1
    23   17   18 1
    24   17   19 1
    25   17   37 1
    26   18   38 1
    27   19   20 1
    28   19   21 1
    29   19   39 1
    30   20   40 1
    31   21   22 1
    32   21   41 1
    33   22   23 ar
    34   22   31 ar
    35   23   24 ar
    36   23   42 1
    37   24   25 ar
    38   25   26 ar
    39   25   31 ar
    40   26   27 2
    41   26   28 ar
    42   27   43 1
    43   28   29 ar
    44   28   45 1
    45   29   30 ar
    46   29   44 1
    47   30   31 ar
@<TRIPOS>SUBSTRUCTURE
     1 ATP         1 GROUP 0 A     ****
@<TRIPOS>MOLECULE
[[[3,4-dihydroxy-5-(6-imino-1~{H}-purin-9-yl)tetrahydrofuran-2-yl]methoxy-oxido-phosphoryl]oxy-hydroxy-phosphoryl] hydrogen phosphate
   45    47     1     0     0
SMALL
USER_CHARGES

@<TRIPOS>ATOM
      1 PG          1.7258    4.7371    4.2520 P.3       1 ATP         1.5496
      2 O1G         1.2886    5.1093    5.6513 O.co2     1 ATP        -0.8494
      3 O2G         2.9221    5.4025    3.6089 O.co2     1 ATP        -0.8494
      4 O3G         1.9358    3.1191    4.1878 O.3       1 ATP        -0.7845
      5 PB         -0.3904    6.1566    2.7672 P.3       1 ATP         1.9068
      6 O1B        -1.0492    6.9369    3.8660 O.2       1 ATP        -0.8942
      7 O2B         0.6721    6.9891    1.8775 O.3       1 ATP        -0.8166
      8 O3B         0.4458    4.8598    3.2486 O.3       1 ATP        -0.8194
      9 PA         -2.5926    4.4186    1.8557 P.3       1 ATP         1.5903
     10 O1A        -3.1163    4.0394    0.4875 O.co2     1 ATP        -0.8519
     11 O2A        -3.5304    4.9259    2.9295 O.co2     1 ATP        -0.8519
     12 O3A        -1.3857    5.5034    1.6753 O.3       1 ATP        -0.8093
     13 O5'        -1.7337    3.1724    2.4752 O.3       1 ATP        -0.5649
     14 C5'        -0.8811    2.4285    1.6206 C.3       1 ATP         0.1979
     15 C4'        -0.1994    1.3333    2.4288 C.3       1 ATP         0.1179
     16 O4'        -1.1285    0.2356    2.5840 O.3       1 ATP        -0.3878
     17 C3'         1.0324    0.7610    1.7344 C.3       1 ATP         0.1185
     18 O3'         1.9175    0.2377    2.7247 O.3       1 ATP        -0.5544
     19 C2'         0.4468   -0.3802    0.9263 C.3       1 ATP         0.0542
     20 O2'         1.3993   -1.3703    0.5961 O.3       1 ATP        -0.5831
     21 C1'        -0.6159   -0.9100    1.8769 C.3       1 ATP         0.2222
     22 N9         -1.7127   -1.6108    1.2130 N.pl3     1 ATP        -0.1887
     23 C8         -1.7690   -2.9583    0.9549 C.ar      1 ATP         0.4447
     24 N7         -2.8827   -3.3076    0.3418 N.2       1 ATP        -0.6159
     25 C5         -3.5683   -2.1351    0.2017 C.ar      1 ATP         0.2195
     26 C6         -4.8617   -1.9185   -0.4044 C.ar      1 ATP         0.6144
     27 N6         -5.5166   -2.9094   -0.8994 N.2       1 ATP        -0.8160
     28 N1         -5.1836   -0.5701   -0.3344 N.pl3     1 ATP        -0.8611
     29 C2         -4.3821    0.4180    0.2330 C.ar      1 ATP         0.6141
     30 N3         -3.2117    0.2488    0.7860 N.2       1 ATP        -0.5913
     31 C4         -2.8672   -1.0657    0.7327 C.ar      1 ATP         0.0067
     32 HOG3        2.2217    2.7188    3.3391 H         1 ATP         0.4313
     33 HOB2        1.4525    7.3866    2.3192 H         1 ATP         0.4716
     34 H5'1       -1.4801    1.9928    0.8147 H         1 ATP         0.0452
     35 H5'2       -0.1369    3.1041    1.1872 H         1 ATP         0.0452
     36 H4'         0.0403    1.7078    3.4343 H         1 ATP         0.0998
     37 H3'         1.5906    1.4859    1.1353 H         1 ATP         0.0544
     38 HO3'        2.6839   -0.1150    2.2479 H         1 ATP         0.3961
     39 H2'        -0.0017    0.0018    0.0005 H         1 ATP         0.0499
     40 HO2'        2.0953   -0.9375    0.0709 H         1 ATP         0.4045
     41 H1'        -0.1998   -1.6319    2.6178 H         1 ATP         0.0912
     42 H8         -0.9697   -3.6300    1.2371 H         1 ATP         0.1090
     43 HN62       -6.4060   -2.5723   -1.2840 H         1 ATP         0.3694
     44 H2         -4.8409    1.4176    0.1757 H         1 ATP         0.0371
     45 H45        -6.0768   -0.2826   -0.7263 H         1 ATP         0.4283
@<TRIPOS>BOND
     1    1    2 2
     2    1    3 1
     3    1    4 1
     4    1    8 1
     5    4   32 1
     6    5    6 2
     7    5    7 1
     8    5    8 1
     9    5   12 1
    10    7   33 1
    11    9   10 2
    12    9   11 1
    13    9   12 1
    14    9   13 1
    15   13   14 1
    16   14   15 1
    17   14   34 1
    18   14   35 1
    19   15   16 1
    20   15   17 1
    21   15   36 1
    22   16   21 1
    23   17   18 1
    24   17   19 1
    25   17   37 1
    26   18   38 1
    27   19   20 1
    28   19   21 1
    29   19   39 1
    30   20   40 1
    31   21   22 1
    32   21   41 1
    33   22   23 ar
    34   22   31 ar
    35   23   24 ar
    36   23   42 1
    37   24   25 ar
    38   25   26 ar
    39   25   31 ar
    40   26   27 2
    41   26   28 ar
    42   27   43 1
    43   28   29 ar
    44   28   45 1
    45   29   30 ar
    46   29   44 1
    47   30   31 ar
@<TRIPOS>SUBSTRUCTURE
     1 ATP         1 GROUP 0 A     ****
@<TRIPOS>MOLECULE
[[[3,4-dihydroxy-5-(6-imino-1~{H}-purin-9-yl)tetrahydrofuran-2-yl]methoxy-oxido-phosphoryl]oxy-hydroxy-phosphoryl] hydrogen phosphate
   45    47     1     0     0
SMALL
USER_CHARGES

@<TRIPOS>ATOM
      1 PG         -6.1296    5.7958    0.1573 P.3       1 ATP         1.5496
      2 O1G        -6.7625    4.4649   -0.1830 O.co2     1 ATP        -0.8494
      3 O2G        -6.0375    6.8986   -0.8736 O.co2     1 ATP        -0.8494
      4 O3G        -6.8609    6.3918    1.4901 O.3       1 ATP        -0.7845
      5 PB         -3.3087    4.9369    0.1038 P.3       1 ATP         1.9068
      6 O1B        -3.4338    3.5474   -0.4475 O.2       1 ATP        -0.8942
      7 O2B        -2.8948    6.0675   -0.9749 O.3       1 ATP        -0.8166
      8 O3B        -4.6483    5.5307    0.7863 O.3       1 ATP        -0.8194
      9 PA         -2.1560    4.4277    2.7709 P.3       1 ATP         1.5903
     10 O1A        -3.4707    4.6479    3.4869 O.co2     1 ATP        -0.8519
     11 O2A        -0.8473    4.8292    3.4158 O.co2     1 ATP        -0.8519
     12 O3A        -2.2360    5.1255    1.2968 O.3       1 ATP        -0.8093
     13 O5'        -2.0402    2.8619    2.3130 O.3       1 ATP        -0.5649
     14 C5'        -0.8811    2.4285    1.6206 C.3       1 ATP         0.1979
     15 C4'        -0.1994    1.3333    2.4288 C.3       1 ATP         0.1179
     16 O4'        -1.1285    0.2356    2.5840 O.3       1 ATP        -0.3878
     17 C3'         1.0324    0.7610    1.7344 C.3       1 ATP         0.1185
     18 O3'         1.9175    0.2377    2.7247 O.3       1 ATP        -0.5544
     19 C2'         0.4468   -0.3802    0.9263 C.3       1 ATP         0.0542
     20 O2'         1.3993   -1.3703    0.5961 O.3       1 ATP        -0.5831
     21 C1'        -0.6159   -0.9100    1.8769 C.3       1 ATP         0.2222
     22 N9         -1.7127   -1.6108    1.2130 N.pl3     1 ATP        -0.1887
     23 C8         -1.7690   -2.9583    0.9549 C.ar      1 ATP         0.4447
     24 N7         -2.8827   -3.3076    0.3418 N.2       1 ATP        -0.6159
     25 C5         -3.5683   -2.1351    0.2017 C.ar      1 ATP         0.2195
     26 C6         -4.8617   -1.9185   -0.4044 C.ar      1 ATP         0.6144
     27 N6         -5.5166   -2.9094   -0.8994 N.2       1 ATP        -0.8160
     28 N1         -5.1836   -0.5701   -0.3344 N.pl3     1 ATP        -0.8611
     29 C2         -4.3821    0.4180    0.2330 C.ar      1 ATP         0.6141
     30 N3         -3.2117    0.2488    0.7860 N.2       1 ATP        -0.5913
     31 C4         -2.8672   -1.0657    0.7327 C.ar      1 ATP         0.0067
     32 HOG3       -6.5598    7.2573    1.8401 H         1 ATP         0.4313
     33 HOB2       -3.4798    6.2239   -1.7467 H         1 ATP         0.4716
     34 H5'1       -1.1769    2.0503    0.6369 H         1 ATP         0.0452
     35 H5'2       -0.2081    3.2815    1.4877 H         1 ATP         0.0452
     36 H4'         0.0403    1.7078    3.4343 H         1 ATP         0.0998
     37 H3'         1.5906    1.4859    1.1353 H         1 ATP         0.0544
     38 HO3'        2.6839   -0.1150    2.2479 H         1 ATP         0.3961
     39 H2'        -0.0017    0.0018    0.0005 H         1 ATP         0.0499
     40 HO2'        2.0953   -0.9375    0.0709 H         1 ATP         0.4045
     41 H1'        -0.1998   -1.6319    2.6178 H         1 ATP         0.0912
     42 H8         -0.9697   -3.6300    1.2371 H         1 ATP         0.1090
     43 HN62       -6.4060   -2.5723   -1.2840 H         1 ATP         0.3694
     44 H2         -4.8409    1.4176    0.1757 H         1 ATP         0.0371
     45 H45        -6.0768   -0.2826   -0.7263 H         1 ATP         0.4283
@<TRIPOS>BOND
     1    1    2 2
     2    1    3 1
     3    1    4 1
     4    1    8 1
     5    4   32 1
     6    5    6 2
     7    5    7 1
     8    5    8 1
     9    5   12 1
    10    7   33 1
    11    9   10 2
    12    9   11 1
    13    9   12 1
    14    9   13 1
    15   13   14 1
    16   14   15 1
    17   14   34 1
    18   14   35 1
    19   15   16 1
    20   15   17 1
    21   15   36 1
    22   16   21 1
    23   17   18 1
    24   17   19 1
    25   17   37 1
    26   18   38 1
    27   19   20 1
    28   19   21 1
    29   19   39 1
    30   20   40 1
    31   21   22 1
    32   21   41 1
    33   22   23 ar
    34   22   31 ar
    35   23   24 ar
    36   23   42 1
    37   24   25 ar
    38   25   26 ar
    39   25   31 ar
    40   26   27 2
    41   26   28 ar
    42   27   43 1
    43   28   29 ar
    44   28   45 1
    45   29   30 ar
    46   29   44 1
    47   30   31 ar
@<TRIPOS>SUBSTRUCTURE
     1 ATP         1 GROUP 0 A     ****
@<TRIPOS>MOLECULE
[[[3,4-dihydroxy-5-(6-imino-1~{H}-purin-9-yl)tetrahydrofuran-2-yl]methoxy-oxido-phosphoryl]oxy-hydroxy-phosphoryl] hydrogen phosphate
   45    47     1     0     0
SMALL
USER_CHARGES

@<TRIPOS>ATOM
      1 PG          0.4511    3.6192    6.9031 P.3       1 ATP         1.5496
      2 O1G         0.0595    2.3683    6.1483 O.co2     1 ATP        -0.8494
      3 O2G        -0.3153    4.0575    8.1312 O.co2     1 ATP        -0.8494
      4 O3G         2.0344    3.5173    7.2890 O.3       1 ATP        -0.7845
      5 PB         -0.6302    5.6014    5.0059 P.3       1 ATP         1.9068
      6 O1B        -1.7186    6.2303    5.8245 O.2       1 ATP        -0.8942
      7 O2B         0.1811    6.6192    4.0469 O.3       1 ATP        -0.8166
      8 O3B         0.5324    4.8654    5.8541 O.3       1 ATP        -0.8194
      9 PA         -2.1560    4.4277    2.7709 P.3       1 ATP         1.5903
     10 O1A        -1.6129    5.3159    1.6726 O.co2     1 ATP        -0.8519
     11 O2A        -3.5422    4.6538    3.3339 O.co2     1 ATP        -0.8519
     12 O3A        -1.0946    4.4160    4.0116 O.3       1 ATP        -0.8093
     13 O5'        -2.0402    2.8619    2.3130 O.3       1 ATP        -0.5649
     14 C5'        -0.8811    2.4285    1.6206 C.3       1 ATP         0.1979
     15 C4'        -0.1994    1.3333    2.4288 C.3       1 ATP         0.1179
     16 O4'        -1.1285    0.2356    2.5840 O.3       1 ATP        -0.3878
     17 C3'         1.0324    0.7610    1.7344 C.3       1 ATP         0.1185
     18 O3'         1.9175    0.2377    2.7247 O.3       1 ATP        -0.5544
     19 C2'         0.4468   -0.3802    0.9263 C.3       1 ATP         0.0542
     20 O2'         1.3993   -1.3703    0.5961 O.3       1 ATP        -0.5831
     21 C1'        -0.6159   -0.9100    1.8769 C.3       1 ATP         0.2222
     22 N9         -1.7127   -1.6108    1.2130 N.pl3     1 ATP        -0.1887
     23 C8         -1.7690   -2.9583    0.9549 C.ar      1 ATP         0.4447
     24 N7         -2.8827   -3.3076    0.3418 N.2       1 ATP        -0.6159
     25 C5         -3.5683   -2.1351    0.2017 C.ar      1 ATP         0.2195
     26 C6         -4.8617   -1.9185   -0.4044 C.ar      1 ATP         0.6144
     27 N6         -5.5166   -2.9094   -0.8994 N.2       1 ATP        -0.8160
     28 N1         -5.1836   -0.5701   -0.3344 N.pl3     1 ATP        -0.8611
     29 C2         -4.3821    0.4180    0.2330 C.ar      1 ATP         0.6141
     30 N3         -3.2117    0.2488    0.7860 N.2       1 ATP        -0.5913
     31 C4         -2.8672   -1.0657    0.7327 C.ar      1 ATP         0.0067
     32 HOG3        2.4425    4.2586    7.7851 H         1 ATP         0.4313
     33 HOB2       -0.3099    7.1146    3.3573 H         1 ATP         0.4716
     34 H5'1       -1.1769    2.0503    0.6369 H         1 ATP         0.0452
     35 H5'2       -0.2081    3.2815    1.4877 H         1 ATP         0.0452
     36 H4'         0.0403    1.7078    3.4343 H         1 ATP         0.0998
     37 H3'         1.5906    1.4859    1.1353 H         1 ATP         0.0544
     38 HO3'        2.6839   -0.1150    2.2479 H         1 ATP         0.3961
     39 H2'        -0.0017    0.0018    0.0005 H         1 ATP         0.0499
     40 HO2'        2.0953   -0.9375    0.0709 H         1 ATP         0.4045
     41 H1'        -0.1998   -1.6319    2.6178 H         1 ATP         0.0912
     42 H8         -0.9697   -3.6300    1.2371 H         1 ATP         0.1090
     43 HN62       -6.4060   -2.5723   -1.2840 H         1 ATP         0.3694
     44 H2         -4.8409    1.4176    0.1757 H         1 ATP         0.0371
     45 H45        -6.0768   -0.2826   -0.7263 H         1 ATP         0.4283
@<TRIPOS>BOND
     1    1    2 2
     2    1    3 1
     3    1    4 1
     4    1    8 1
     5    4   32 1
     6    5    6 2
     7    5    7 1
     8    5    8 1
     9    5   12 1
    10    7   33 1
    11    9   10 2
    12    9   11 1
    13    9   12 1
    14    9   13 1
    15   13   14 1
    16   14   15 1
    17   14   34 1
    18   14   35 1
    19   15   16 1
    20   15   17 1
    21   15   36 1
    22   16   21 1
    23   17   18 1
    24   17   19 1
    25   17   37 1
    26   18   38 1
    27   19   20 1
    28   19   21 1
    29   19   39 1
    30   20   40 1
    31   21   22 1
    32   21   41 1
    33   22   23 ar
    34   22   31 ar
    35   23   24 ar
    36   23   42 1
    37   24   25 ar
    38   25   26 ar
    39   25   31 ar
    40   26   27 2
    41   26   28 ar
    42   27   43 1
    43   28   29 ar
    44   28   45 1
    45   29   30 ar
    46   29   44 1
    47   30   31 ar
@<TRIPOS>SUBSTRUCTURE
     1 ATP         1 GROUP 0 A     ****
@<TRIPOS>MOLECULE
[[[3,4-dihydroxy-5-(6-imino-1~{H}-purin-9-yl)tetrahydrofuran-2-yl]methoxy-oxido-phosphoryl]oxy-hydroxy-phosphoryl] hydrogen phosphate
   45    47     1     0     0
SMALL
USER_CHARGES

@<TRIPOS>ATOM
      1 PG         -1.3635    7.9637    1.1456 P.3       1 ATP         1.5496
      2 O1G        -0.3804    8.8928    0.4688 O.co2     1 ATP        -0.8494
      3 O2G        -0.9212    7.0440    2.2619 O.co2     1 ATP        -0.8494
      4 O3G        -2.6319    8.8464    1.6730 O.3       1 ATP        -0.7845
      5 PB         -3.3718    6.0572    0.1309 P.3       1 ATP         1.9068
      6 O1B        -4.6398    6.6478    0.6731 O.2       1 ATP        -0.8942
      7 O2B        -3.4914    5.4188   -1.3495 O.3       1 ATP        -0.8166
      8 O3B        -2.1310    7.0855    0.0055 O.3       1 ATP        -0.8194
      9 PA         -3.3161    3.4232    1.4577 P.3       1 ATP         1.5903
     10 O1A        -3.5062    2.5741    0.2197 O.co2     1 ATP        -0.8519
     11 O2A        -4.4618    3.6582    2.4178 O.co2     1 ATP        -0.8519
     12 O3A        -2.7142    4.8745    1.0132 O.3       1 ATP        -0.8093
     13 O5'        -2.0402    2.8619    2.3130 O.3       1 ATP        -0.5649
     14 C5'        -0.8811    2.4285    1.6206 C.3       1 ATP         0.1979
     15 C4'        -0.1994    1.3333    2.4288 C.3       1 ATP         0.1179
     16 O4'        -1.1285    0.2356    2.5840 O.3       1 ATP        -0.3878
     17 C3'         1.0324    0.7610    1.7344 C.3       1 ATP         0.1185
     18 O3'         1.9175    0.2377    2.7247 O.3       1 ATP        -0.5544
     19 C2'         0.4468   -0.3802    0.9263 C.3       1 ATP         0.0542
     20 O2'         1.3993   -1.3703    0.5961 O.3       1 ATP        -0.5831
     21 C1'        -0.6159   -0.9100    1.8769 C.3       1 ATP         0.2222
     22 N9         -1.7127   -1.6108    1.2130 N.pl3     1 ATP        -0.1887
     23 C8         -2.5485   -1.0808    0.2609 C.ar      1 ATP         0.4447
     24 N7         -3.4476   -1.9486   -0.1593 N.2       1 ATP        -0.6159
     25 C5         -3.1762   -3.0816    0.5530 C.ar      1 ATP         0.2195
     26 C6         -3.8510   -4.3579    0.5006 C.ar      1 ATP         0.6144
     27 N6         -4.8468   -4.5293   -0.2961 N.2       1 ATP        -0.8160
     28 N1         -3.2499   -5.2342    1.3937 N.pl3     1 ATP        -0.8611
     29 C2         -2.1646   -4.9275    2.2116 C.ar      1 ATP         0.6141
     30 N3         -1.5382   -3.7840    2.2778 N.2       1 ATP        -0.5913
     31 C4         -2.1054   -2.9018    1.4120 C.ar      1 ATP         0.0067
     32 HOG3       -3.3615    8.3838    2.1376 H         1 ATP         0.4313
     33 HOB2       -4.1208    4.6813   -1.4988 H         1 ATP         0.4716
     34 H5'1       -1.1769    2.0503    0.6369 H         1 ATP         0.0452
     35 H5'2       -0.2081    3.2815    1.4877 H         1 ATP         0.0452
     36 H4'         0.0403    1.7078    3.4343 H         1 ATP         0.0998
     37 H3'         1.5906    1.4859    1.1353 H         1 ATP         0.0544
     38 HO3'        2.6839   -0.1150    2.2479 H         1 ATP         0.3961
     39 H2'        -0.0017    0.0018    0.0005 H         1 ATP         0.0499
     40 HO2'        2.0953   -0.9375    0.0709 H         1 ATP         0.4045
     41 H1'        -0.1998   -1.6319    2.6178 H         1 ATP         0.0912
     42 H8         -2.4515   -0.0599   -0.0829 H         1 ATP         0.1090
     43 HN62       -5.1990   -5.4882   -0.2004 H         1 ATP         0.3694
     44 H2         -1.8555   -5.7783    2.8388 H         1 ATP         0.0371
     45 H45        -3.6312   -6.1750    1.4526 H         1 ATP         0.4283
@<TRIPOS>BOND
     1    1    2 2
     2    1    3 1
     3    1    4 1
     4    1    8 1
     5    4   32 1
     6    5    6 2
     7    5    7 1
     8    5    8 1
     9    5   12 1
    10    7   33 1
    11    9   10 2
    12    9   11 1
    13    9   12 1
    14    9   13 1
    15   13   14 1
    16   14   15 1
    17   14   34 1
    18   14   35 1
    19   15   16 1
    20   15   17 1
    21   15   36 1
    22   16   21 1
    23   17   18 1
    24   17   19 1
    25   17   37 1
    26   18   38 1
    27   19   20 1
    28   19   21 1
    29   19   39 1
    30   20   40 1
    31   21   22 1
    32   21   41 1
    33   22   23 ar
    34   22   31 ar
    35   23   24 ar
    36   23   42 1
    37   24   25 ar
    38   25   26 ar
    39   25   31 ar
    40   26   27 2
    41   26   28 ar
    42   27   43 1
    43   28   29 ar
    44   28   45 1
    45   29   30 ar
    46   29   44 1
    47   30   31 ar
@<TRIPOS>SUBSTRUCTURE
     1 ATP         1 GROUP 0 A     ****
@<TRIPOS>MOLECULE
[[[3,4-dihydroxy-5-(6-imino-1~{H}-purin-9-yl)tetrahydrofuran-2-yl]methoxy-oxido-phosphoryl]oxy-hydroxy-phosphoryl] hydrogen phosphate
   45    47     1     0     0
SMALL
USER_CHARGES

@<TRIPOS>ATOM
      1 PG         -0.2977    8.7514    1.2397 P.3       1 ATP         1.5496
      2 O1G        -0.2821    9.1158   -0.2282 O.co2     1 ATP        -0.8494
      3 O2G         0.9622    8.8284    2.0728 O.co2     1 ATP        -0.8494
      4 O3G        -1.4621    9.6259    1.9784 O.3       1 ATP        -0.7845
      5 PB         -2.3658    6.6802    0.8779 P.3       1 ATP         1.9068
      6 O1B        -3.5871    7.3916    1.3806 O.2       1 ATP        -0.8942
      7 O2B        -2.1938    6.6664   -0.7295 O.3       1 ATP        -0.8166
      8 O3B        -0.9574    7.2694    1.4089 O.3       1 ATP        -0.8194
      9 PA         -2.1560    4.4277    2.7709 P.3       1 ATP         1.5903
     10 O1A        -3.4707    4.6479    3.4869 O.co2     1 ATP        -0.8519
     11 O2A        -0.8473    4.8292    3.4158 O.co2     1 ATP        -0.8519
     12 O3A        -2.2360    5.1255    1.2968 O.3       1 ATP        -0.8093
     13 O5'        -2.0402    2.8619    2.3130 O.3       1 ATP        -0.5649
     14 C5'        -0.8811    2.4285    1.6206 C.3       1 ATP         0.1979
     15 C4'        -0.1994    1.3333    2.4288 C.3       1 ATP         0.1179
     16 O4'        -1.1285    0.2356    2.5840 O.3       1 ATP        -0.3878
     17 C3'         1.0324    0.7610    1.7344 C.3       1 ATP         0.1185
     18 O3'         1.9175    0.2377    2.7247 O.3       1 ATP        -0.5544
     19 C2'         0.4468   -0.3802    0.9263 C.3       1 ATP         0.0542
     20 O2'         1.3993   -1.3703    0.5961 O.3       1 ATP        -0.5831
     21 C1'        -0.6159   -0.9100    1.8769 C.3       1 ATP         0.2222
     22 N9         -1.7127   -1.6108    1.2130 N.pl3     1 ATP        -0.1887
     23 C8         -2.8662   -1.0361    0.7388 C.ar      1 ATP         0.4447
     24 N7         -3.6774   -1.9166    0.1867 N.2       1 ATP        -0.6159
     25 C5         -3.0159   -3.1045    0.3123 C.ar      1 ATP         0.2195
     26 C6         -3.4377   -4.4169   -0.1199 C.ar      1 ATP         0.6144
     27 N6         -4.5720   -4.5691   -0.7080 N.2       1 ATP        -0.8160
     28 N1         -2.4600   -5.3463    0.2071 N.pl3     1 ATP        -0.8611
     29 C2         -1.2595   -5.0554    0.8515 C.ar      1 ATP         0.6141
     30 N3         -0.8555   -3.8803    1.2516 N.2       1 ATP        -0.5913
     31 C4         -1.7946   -2.9457    0.9448 C.ar      1 ATP         0.0067
     32 HOG3       -1.5984    9.5020    2.9419 H         1 ATP         0.4313
     33 HOB2       -2.1230    7.5207   -1.2065 H         1 ATP         0.4716
     34 H5'1       -1.1769    2.0503    0.6369 H         1 ATP         0.0452
     35 H5'2       -0.2081    3.2815    1.4877 H         1 ATP         0.0452
     36 H4'         0.0403    1.7078    3.4343 H         1 ATP         0.0998
     37 H3'         1.5906    1.4859    1.1353 H         1 ATP         0.0544
     38 HO3'        2.6839   -0.1150    2.2479 H         1 ATP         0.3961
     39 H2'        -0.0017    0.0018    0.0005 H         1 ATP         0.0499
     40 HO2'        2.0953   -0.9375    0.0709 H         1 ATP         0.4045
     41 H1'        -0.1998   -1.6319    2.6178 H         1 ATP         0.0912
     42 H8         -3.0558    0.0252    0.8256 H         1 ATP         0.1090
     43 HN62       -4.7047   -5.5592   -0.9421 H         1 ATP         0.3694
     44 H2         -0.6372   -5.9505    1.0077 H         1 ATP         0.0371
     45 H45        -2.6338   -6.3155   -0.0469 H         1 ATP         0.4283
@<TRIPOS>BOND
     1    1    2 2
     2    1    3 1
     3    1    4 1
     4    1    8 1
     5    4   32 1
     6    5    6 2
     7    5    7 1
     8    5    8 1
     9    5   12 1
    10    7   33 1
    11    9   10 2
    12    9   11 1
    13    9   12 1
    14    9   13 1
    15   13   14 1
    16   14   15 1
    17   14   34 1
    18   14   35 1
    19   15   16 1
    20   15   17 1
    21   15   36 1
    22   16   21 1
    23   17   18 1
    24   17   19 1
    25   17   37 1
    26   18   38 1
    27   19   20 1
    28   19   21 1
    29   19   39 1
    30   20   40 1
    31   21   22 1
    32   21   41 1
    33   22   23 ar
    34   22   31 ar
    35   23   24 ar
    36   23   42 1
    37   24   25 ar
    38   25   26 ar
    39   25   31 ar
    40   26   27 2
    41   26   28 ar
    42   27   43 1
    43   28   29 ar
    44   28   45 1
    45   29   30 ar
    46   29   44 1
    47   30   31 ar
@<TRIPOS>SUBSTRUCTURE
     1 ATP         1 GROUP 0 A     ****
@<TRIPOS>MOLECULE
[[[3,4-dihydroxy-5-(6-imino-1~{H}-purin-9-yl)tetrahydrofuran-2-yl]methoxy-oxido-phosphoryl]oxy-hydroxy-phosphoryl] hydrogen phosphate
   45    47     1     0     0
SMALL
USER_CHARGES

@<TRIPOS>ATOM
      1 PG         -3.6249    5.6587   -3.1229 P.3       1 ATP         1.5496
      2 O1G        -5.0048    6.0640   -2.6544 O.co2     1 ATP        -0.8494
      3 O2G        -3.4442    4.5715   -4.1586 O.co2     1 ATP        -0.8494
      4 O3G        -2.8370    6.9954   -3.6316 O.3       1 ATP        -0.7845
      5 PB         -2.3937    6.1799   -0.4942 P.3       1 ATP         1.9068
      6 O1B        -1.7273    7.5016   -0.7373 O.2       1 ATP        -0.8942
      7 O2B        -3.8234    6.2609    0.2561 O.3       1 ATP        -0.8166
      8 O3B        -2.7061    5.3111   -1.8210 O.3       1 ATP        -0.8194
      9 PA         -0.0887    4.4443    0.1194 P.3       1 ATP         1.5903
     10 O1A         0.9662    5.5280    0.1728 O.co2     1 ATP        -0.8519
     11 O2A        -0.1996    3.5315   -1.0824 O.co2     1 ATP        -0.8519
     12 O3A        -1.5511    5.1197    0.3865 O.3       1 ATP        -0.8093
     13 O5'         0.0180    3.5131    1.4595 O.3       1 ATP        -0.5649
     14 C5'        -0.8811    2.4285    1.6206 C.3       1 ATP         0.1979
     15 C4'        -0.1994    1.3333    2.4288 C.3       1 ATP         0.1179
     16 O4'        -1.1285    0.2356    2.5840 O.3       1 ATP        -0.3878
     17 C3'         1.0324    0.7610    1.7344 C.3       1 ATP         0.1185
     18 O3'         1.9175    0.2377    2.7247 O.3       1 ATP        -0.5544
     19 C2'         0.4468   -0.3802    0.9263 C.3       1 ATP         0.0542
     20 O2'         1.3993   -1.3703    0.5961 O.3       1 ATP        -0.5831
     21 C1'        -0.6159   -0.9100    1.8769 C.3       1 ATP         0.2222
     22 N9         -1.7127   -1.6108    1.2130 N.pl3     1 ATP        -0.1887
     23 C8         -2.8662   -1.0361    0.7388 C.ar      1 ATP         0.4447
     24 N7         -3.6774   -1.9166    0.1867 N.2       1 ATP        -0.6159
     25 C5         -3.0159   -3.1045    0.3123 C.ar      1 ATP         0.2195
     26 C6         -3.4377   -4.4169   -0.1199 C.ar      1 ATP         0.6144
     27 N6         -4.5720   -4.5691   -0.7080 N.2       1 ATP        -0.8160
     28 N1         -2.4600   -5.3463    0.2071 N.pl3     1 ATP        -0.8611
     29 C2         -1.2595   -5.0554    0.8515 C.ar      1 ATP         0.6141
     30 N3         -0.8555   -3.8803    1.2516 N.2       1 ATP        -0.5913
     31 C4         -1.7946   -2.9457    0.9448 C.ar      1 ATP         0.0067
     32 HOG3       -1.9212    6.8973   -3.9689 H         1 ATP         0.4313
     33 HOB2       -4.5525    6.7640   -0.1652 H         1 ATP         0.4716
     34 H5'1       -1.7770    2.7851    2.1387 H         1 ATP         0.0452
     35 H5'2       -1.1653    2.0543    0.6320 H         1 ATP         0.0452
     36 H4'         0.0403    1.7078    3.4343 H         1 ATP         0.0998
     37 H3'         1.5906    1.4859    1.1353 H         1 ATP         0.0544
     38 HO3'        2.6839   -0.1150    2.2479 H         1 ATP         0.3961
     39 H2'        -0.0017    0.0018    0.0005 H         1 ATP         0.0499
     40 HO2'        0.9369   -2.0558    0.0825 H         1 ATP         0.4045
     41 H1'        -0.1998   -1.6319    2.6178 H         1 ATP         0.0912
     42 H8         -3.0558    0.0252    0.8256 H         1 ATP         0.1090
     43 HN62       -4.7047   -5.5592   -0.9421 H         1 ATP         0.3694
     44 H2         -0.6372   -5.9505    1.0077 H         1 ATP         0.0371
     45 H45        -2.6338   -6.3155   -0.0469 H         1 ATP         0.4283
@<TRIPOS>BOND
     1    1    2 2
     2    1    3 1
     3    1    4 1
     4    1    8 1
     5    4   32 1
     6    5    6 2
     7    5    7 1
     8    5    8 1
     9    5   12 1
    10    7   33 1
    11    9   10 2
    12    9   11 1
    13    9   12 1
    14    9   13 1
    15   13   14 1
    16   14   15 1
    17   14   34 1
    18   14   35 1
    19   15   16 1
    20   15   17 1
    21   15   36 1
    22   16   21 1
    23   17   18 1
    24   17   19 1
    25   17   37 1
    26   18   38 1
    27   19   20 1
    28   19   21 1
    29   19   39 1
    30   20   40 1
    31   21   22 1
    32   21   41 1
    33   22   23 ar
    34   22   31 ar
    35   23   24 ar
    36   23   42 1
    37   24   25 ar
    38   25   26 ar
    39   25   31 ar
    40   26   27 2
    41   26   28 ar
    42   27   43 1
    43   28   29 ar
    44   28   45 1
    45   29   30 ar
    46   29   44 1
    47   30   31 ar
@<TRIPOS>SUBSTRUCTURE
     1 ATP         1 GROUP 0 A     ****
@<TRIPOS>MOLECULE
[[[3,4-dihydroxy-5-(6-imino-1~{H}-purin-9-yl)tetrahydrofuran-2-yl]methoxy-oxido-phosphoryl]oxy-hydroxy-phosphoryl] hydrogen phosphate
   45    47     1     0     0
SMALL
USER_CHARGES

@<TRIPOS>ATOM
      1 PG          0.7804    2.8497   -4.5784 P.3       1 ATP         1.5496
      2 O1G         1.2428    1.4173   -4.4293 O.co2     1 ATP        -0.8494
      3 O2G         1.7178    3.9192   -5.0930 O.co2     1 ATP        -0.8494
      4 O3G        -0.5739    2.8648   -5.4904 O.3       1 ATP        -0.7845
      5 PB          0.8212    3.5954   -1.7253 P.3       1 ATP         1.9068
      6 O1B         1.4841    2.3955   -1.1161 O.2       1 ATP        -0.8942
      7 O2B         1.7949    4.8604   -1.9808 O.3       1 ATP        -0.8166
      8 O3B         0.1324    3.3451   -3.1660 O.3       1 ATP        -0.8194
      9 PA         -0.4664    4.8322    0.6228 P.3       1 ATP         1.5903
     10 O1A        -1.9047    5.1495    0.9699 O.co2     1 ATP        -0.8519
     11 O2A         0.6096    5.8893    0.7433 O.co2     1 ATP        -0.8519
     12 O3A        -0.4131    4.2167   -0.8886 O.3       1 ATP        -0.8093
     13 O5'         0.0180    3.5131    1.4595 O.3       1 ATP        -0.5649
     14 C5'        -0.8811    2.4285    1.6206 C.3       1 ATP         0.1979
     15 C4'        -0.1994    1.3333    2.4288 C.3       1 ATP         0.1179
     16 O4'        -1.1285    0.2356    2.5840 O.3       1 ATP        -0.3878
     17 C3'         1.0324    0.7610    1.7344 C.3       1 ATP         0.1185
     18 O3'         1.9175    0.2377    2.7247 O.3       1 ATP        -0.5544
     19 C2'         0.4468   -0.3802    0.9263 C.3       1 ATP         0.0542
     20 O2'         1.3993   -1.3703    0.5961 O.3       1 ATP        -0.5831
     21 C1'        -0.6159   -0.9100    1.8769 C.3       1 ATP         0.2222
     22 N9         -1.7127   -1.6108    1.2130 N.pl3     1 ATP        -0.1887
     23 C8         -1.7690   -2.9583    0.9549 C.ar      1 ATP         0.4447
     24 N7         -2.8827   -3.3076    0.3418 N.2       1 ATP        -0.6159
     25 C5         -3.5683   -2.1351    0.2017 C.ar      1 ATP         0.2195
     26 C6         -4.8617   -1.9185   -0.4044 C.ar      1 ATP         0.6144
     27 N6         -5.5166   -2.9094   -0.8994 N.2       1 ATP        -0.8160
     28 N1         -5.1836   -0.5701   -0.3344 N.pl3     1 ATP        -0.8611
     29 C2         -4.3821    0.4180    0.2330 C.ar      1 ATP         0.6141
     30 N3         -3.2117    0.2488    0.7860 N.2       1 ATP        -0.5913
     31 C4         -2.8672   -1.0657    0.7327 C.ar      1 ATP         0.0067
     32 HOG3       -0.9997    3.7280   -5.6794 H         1 ATP         0.4313
     33 HOB2        2.2541    5.2679   -1.2157 H         1 ATP         0.4716
     34 H5'1       -1.7770    2.7851    2.1387 H         1 ATP         0.0452
     35 H5'2       -1.1653    2.0543    0.6320 H         1 ATP         0.0452
     36 H4'         0.0403    1.7078    3.4343 H         1 ATP         0.0998
     37 H3'         1.5906    1.4859    1.1353 H         1 ATP         0.0544
     38 HO3'        2.6839   -0.1150    2.2479 H         1 ATP         0.3961
     39 H2'        -0.0017    0.0018    0.0005 H         1 ATP         0.0499
     40 HO2'        2.0953   -0.9375    0.0709 H         1 ATP         0.4045
     41 H1'        -0.1998   -1.6319    2.6178 H         1 ATP         0.0912
     42 H8         -0.9697   -3.6300    1.2371 H         1 ATP         0.1090
     43 HN62       -6.4060   -2.5723   -1.2840 H         1 ATP         0.3694
     44 H2         -4.8409    1.4176    0.1757 H         1 ATP         0.0371
     45 H45        -6.0768   -0.2826   -0.7263 H         1 ATP         0.4283
@<TRIPOS>BOND
     1    1    2 2
     2    1    3 1
     3    1    4 1
     4    1    8 1
     5    4   32 1
     6    5    6 2
     7    5    7 1
     8    5    8 1
     9    5   12 1
    10    7   33 1
    11    9   10 2
    12    9   11 1
    13    9   12 1
    14    9   13 1
    15   13   14 1
    16   14   15 1
    17   14   34 1
    18   14   35 1
    19   15   16 1
    20   15   17 1
    21   15   36 1
    22   16   21 1
    23   17   18 1
    24   17   19 1
    25   17   37 1
    26   18   38 1
    27   19   20 1
    28   19   21 1
    29   19   39 1
    30   20   40 1
    31   21   22 1
    32   21   41 1
    33   22   23 ar
    34   22   31 ar
    35   23   24 ar
    36   23   42 1
    37   24   25 ar
    38   25   26 ar
    39   25   31 ar
    40   26   27 2
    41   26   28 ar
    42   27   43 1
    43   28   29 ar
    44   28   45 1
    45   29   30 ar
    46   29   44 1
    47   30   31 ar
@<TRIPOS>SUBSTRUCTURE
     1 ATP         1 GROUP 0 A     ****
@<TRIPOS>MOLECULE
[[[3,4-dihydroxy-5-(6-imino-1~{H}-purin-9-yl)tetrahydrofuran-2-yl]methoxy-oxido-phosphoryl]oxy-hydroxy-phosphoryl] hydrogen phosphate
   45    47     1     0     0
SMALL
USER_CHARGES

@<TRIPOS>ATOM
      1 PG         -3.5936    1.4945   -2.5414 P.3       1 ATP         1.5496
      2 O1G        -4.3206    0.3884   -3.2734 O.co2     1 ATP        -0.8494
      3 O2G        -2.3986    1.1916   -1.6652 O.co2     1 ATP        -0.8494
      4 O3G        -3.1653    2.6387   -3.6248 O.3       1 ATP        -0.7845
      5 PB         -4.4970    3.7294   -0.8423 P.3       1 ATP         1.9068
      6 O1B        -4.0308    4.9124   -1.6383 O.2       1 ATP        -0.8942
      7 O2B        -5.9243    3.9176   -0.1070 O.3       1 ATP        -0.8166
      8 O3B        -4.6767    2.3606   -1.6830 O.3       1 ATP        -0.8194
      9 PA         -2.9646    4.0417    1.6588 P.3       1 ATP         1.5903
     10 O1A        -4.1352    4.3308    2.5732 O.co2     1 ATP        -0.8519
     11 O2A        -2.0510    5.1559    1.1963 O.co2     1 ATP        -0.8519
     12 O3A        -3.5097    3.2459    0.3413 O.3       1 ATP        -0.8093
     13 O5'        -2.0402    2.8619    2.3130 O.3       1 ATP        -0.5649
     14 C5'        -0.8811    2.4285    1.6206 C.3       1 ATP         0.1979
     15 C4'        -0.1994    1.3333    2.4288 C.3       1 ATP         0.1179
     16 O4'        -1.1285    0.2356    2.5840 O.3       1 ATP        -0.3878
     17 C3'         1.0324    0.7610    1.7344 C.3       1 ATP         0.1185
     18 O3'         1.9175    0.2377    2.7247 O.3       1 ATP        -0.5544
     19 C2'         0.4468   -0.3802    0.9263 C.3       1 ATP         0.0542
     20 O2'         1.3993   -1.3703    0.5961 O.3       1 ATP        -0.5831
     21 C1'        -0.6159   -0.9100    1.8769 C.3       1 ATP         0.2222
     22 N9         -1.7127   -1.6108    1.2130 N.pl3     1 ATP        -0.1887
     23 C8         -1.6202   -2.3321    0.0482 C.ar      1 ATP         0.4447
     24 N7         -2.7754   -2.8539   -0.3142 N.2       1 ATP        -0.6159
     25 C5         -3.6439   -2.4502    0.6592 C.ar      1 ATP         0.2195
     26 C6         -5.0563   -2.7308    0.7745 C.ar      1 ATP         0.6144
     27 N6         -5.6468   -3.4480   -0.1158 N.2       1 ATP        -0.8160
     28 N1         -5.5549   -2.1241    1.9191 N.pl3     1 ATP        -0.8611
     29 C2         -4.8068   -1.3637    2.8153 C.ar      1 ATP         0.6141
     30 N3         -3.5318   -1.0957    2.7338 N.2       1 ATP        -0.5913
     31 C4         -3.0130   -1.6778    1.6196 C.ar      1 ATP         0.0067
     32 HOG3       -2.6813    3.4287   -3.3026 H         1 ATP         0.4313
     33 HOB2       -6.0282    4.6386    0.5501 H         1 ATP         0.4716
     34 H5'1       -1.1769    2.0503    0.6369 H         1 ATP         0.0452
     35 H5'2       -0.2081    3.2815    1.4877 H         1 ATP         0.0452
     36 H4'         0.0403    1.7078    3.4343 H         1 ATP         0.0998
     37 H3'         1.5906    1.4859    1.1353 H         1 ATP         0.0544
     38 HO3'        2.6839   -0.1150    2.2479 H         1 ATP         0.3961
     39 H2'        -0.0017    0.0018    0.0005 H         1 ATP         0.0499
     40 HO2'        2.0953   -0.9375    0.0709 H         1 ATP         0.4045
     41 H1'        -0.1998   -1.6319    2.6178 H         1 ATP         0.0912
     42 H8         -0.6865   -2.4395   -0.4871 H         1 ATP         0.1090
     43 HN62       -6.6394   -3.5426    0.1257 H         1 ATP         0.3694
     44 H2         -5.4125   -0.9811    3.6517 H         1 ATP         0.0371
     45 H45        -6.5442   -2.2475    2.1195 H         1 ATP         0.4283
@<TRIPOS>BOND
     1    1    2 2
     2    1    3 1
     3    1    4 1
     4    1    8 1
     5    4   32 1
     6    5    6 2
     7    5    7 1
     8    5    8 1
     9    5   12 1
    10    7   33 1
    11    9   10 2
    12    9   11 1
    13    9   12 1
    14    9   13 1
    15   13   14 1
    16   14   15 1
    17   14   34 1
    18   14   35 1
    19   15   16 1
    20   15   17 1
    21   15   36 1
    22   16   21 1
    23   17   18 1
    24   17   19 1
    25   17   37 1
    26   18   38 1
    27   19   20 1
    28   19   21 1
    29   19   39 1
    30   20   40 1
    31   21   22 1
    32   21   41 1
    33   22   23 ar
    34   22   31 ar
    35   23   24 ar
    36   23   42 1
    37   24   25 ar
    38   25   26 ar
    39   25   31 ar
    40   26   27 2
    41   26   28 ar
    42   27   43 1
    43   28   29 ar
    44   28   45 1
    45   29   30 ar
    46   29   44 1
    47   30   31 ar
@<TRIPOS>SUBSTRUCTURE
     1 ATP         1 GROUP 0 A     ****
@<TRIPOS>MOLECULE
[[[3,4-dihydroxy-5-(6-imino-1~{H}-purin-9-yl)tetrahydrofuran-2-yl]methoxy-oxido-phosphoryl]oxy-hydroxy-phosphoryl] hydrogen phosphate
   45    47     1     0     0
SMALL
USER_CHARGES

@<TRIPOS>ATOM
      1 PG         -4.3173    5.4179   -0.9526 P.3       1 ATP         1.5496
      2 O1G        -4.6564    5.1891    0.5036 O.co2     1 ATP        -0.8494
      3 O2G        -4.3746    4.2835   -1.9512 O.co2     1 ATP        -0.8494
      4 O3G        -5.2352    6.6474   -1.5114 O.3       1 ATP        -0.7845
      5 PB         -1.3860    5.5812   -0.6728 P.3       1 ATP         1.9068
      6 O1B        -0.9487    4.3648   -1.4340 O.2       1 ATP        -0.8942
      7 O2B        -0.4322    6.8755   -0.8426 O.3       1 ATP        -0.8166
      8 O3B        -2.8567    6.1373   -1.0479 O.3       1 ATP        -0.8194
      9 PA         -0.3961    4.9845    2.0411 P.3       1 ATP         1.5903
     10 O1A        -1.0788    4.8231    3.3819 O.co2     1 ATP        -0.8519
     11 O2A         0.7940    5.9060    1.8851 O.co2     1 ATP        -0.8519
     12 O3A        -1.5153    5.3999    0.9272 O.3       1 ATP        -0.8093
     13 O5'         0.0180    3.5131    1.4595 O.3       1 ATP        -0.5649
     14 C5'        -0.8811    2.4285    1.6206 C.3       1 ATP         0.1979
     15 C4'        -0.1994    1.3333    2.4288 C.3       1 ATP         0.1179
     16 O4'        -1.1285    0.2356    2.5840 O.3       1 ATP        -0.3878
     17 C3'         1.0324    0.7610    1.7344 C.3       1 ATP         0.1185
     18 O3'         1.9175    0.2377    2.7247 O.3       1 ATP        -0.5544
     19 C2'         0.4468   -0.3802    0.9263 C.3       1 ATP         0.0542
     20 O2'         1.3993   -1.3703    0.5961 O.3       1 ATP        -0.5831
     21 C1'        -0.6159   -0.9100    1.8769 C.3       1 ATP         0.2222
     22 N9         -1.7127   -1.6108    1.2130 N.pl3     1 ATP        -0.1887
     23 C8         -2.8662   -1.0361    0.7388 C.ar      1 ATP         0.4447
     24 N7         -3.6774   -1.9166    0.1867 N.2       1 ATP        -0.6159
     25 C5         -3.0159   -3.1045    0.3123 C.ar      1 ATP         0.2195
     26 C6         -3.4377   -4.4169   -0.1199 C.ar      1 ATP         0.6144
     27 N6         -4.5720   -4.5691   -0.7080 N.2       1 ATP        -0.8160
     28 N1         -2.4600   -5.3463    0.2071 N.pl3     1 ATP        -0.8611
     29 C2         -1.2595   -5.0554    0.8515 C.ar      1 ATP         0.6141
     30 N3         -0.8555   -3.8803    1.2516 N.2       1 ATP        -0.5913
     31 C4         -1.7946   -2.9457    0.9448 C.ar      1 ATP         0.0067
     32 HOG3       -5.1312    6.9190   -2.4482 H         1 ATP         0.4313
     33 HOB2        0.5078    6.8113   -0.5698 H         1 ATP         0.4716
     34 H5'1       -1.7770    2.7851    2.1387 H         1 ATP         0.0452
     35 H5'2       -1.1653    2.0543    0.6320 H         1 ATP         0.0452
     36 H4'         0.0403    1.7078    3.4343 H         1 ATP         0.0998
     37 H3'         1.5906    1.4859    1.1353 H         1 ATP         0.0544
     38 HO3'        2.6839   -0.1150    2.2479 H         1 ATP         0.3961
     39 H2'        -0.0017    0.0018    0.0005 H         1 ATP         0.0499
     40 HO2'        2.0953   -0.9375    0.0709 H         1 ATP         0.4045
     41 H1'        -0.1998   -1.6319    2.6178 H         1 ATP         0.0912
     42 H8         -3.0558    0.0252    0.8256 H         1 ATP         0.1090
     43 HN62       -4.7047   -5.5592   -0.9421 H         1 ATP         0.3694
     44 H2         -0.6372   -5.9505    1.0077 H         1 ATP         0.0371
     45 H45        -2.6338   -6.3155   -0.0469 H         1 ATP         0.4283
@<TRIPOS>BOND
     1    1    2 2
     2    1    3 1
     3    1    4 1
     4    1    8 1
     5    4   32 1
     6    5    6 2
     7    5    7 1
     8    5    8 1
     9    5   12 1
    10    7   33 1
    11    9   10 2
    12    9   11 1
    13    9   12 1
    14    9   13 1
    15   13   14 1
    16   14   15 1
    17   14   34 1
    18   14   35 1
    19   15   16 1
    20   15   17 1
    21   15   36 1
    22   16   21 1
    23   17   18 1
    24   17   19 1
    25   17   37 1
    26   18   38 1
    27   19   20 1
    28   19   21 1
    29   19   39 1
    30   20   40 1
    31   21   22 1
    32   21   41 1
    33   22   23 ar
    34   22   31 ar
    35   23   24 ar
    36   23   42 1
    37   24   25 ar
    38   25   26 ar
    39   25   31 ar
    40   26   27 2
    41   26   28 ar
    42   27   43 1
    43   28   29 ar
    44   28   45 1
    45   29   30 ar
    46   29   44 1
    47   30   31 ar
@<TRIPOS>SUBSTRUCTURE
     1 ATP         1 GROUP 0 A     ****
@<TRIPOS>MOLECULE
[[[3,4-dihydroxy-5-(6-imino-1~{H}-purin-9-yl)tetrahydrofuran-2-yl]methoxy-oxido-phosphoryl]oxy-hydroxy-phosphoryl] hydrogen phosphate
   45    47     1     0     0
SMALL
USER_CHARGES

@<TRIPOS>ATOM
      1 PG         -6.8417   -0.2043    0.4952 P.3       1 ATP         1.5496
      2 O1G        -8.0559    0.3121    1.2345 O.co2     1 ATP        -0.8494
      3 O2G        -6.4367   -1.6587    0.5869 O.co2     1 ATP        -0.8494
      4 O3G        -6.9861    0.1952   -1.0814 O.3       1 ATP        -0.7845
      5 PB         -5.3690    2.3333    0.7946 P.3       1 ATP         1.9068
      6 O1B        -5.5347    2.9334   -0.5702 O.2       1 ATP        -0.8942
      7 O2B        -6.3886    2.8927    1.9176 O.3       1 ATP        -0.8166
      8 O3B        -5.5583    0.7297    0.8700 O.3       1 ATP        -0.8194
      9 PA         -3.0798    3.8626    1.8537 P.3       1 ATP         1.5903
     10 O1A        -3.8221    4.5966    2.9492 O.co2     1 ATP        -0.8519
     11 O2A        -2.6992    4.5683    0.5704 O.co2     1 ATP        -0.8519
     12 O3A        -3.9117    2.5115    1.4682 O.3       1 ATP        -0.8093
     13 O5'        -1.7337    3.1724    2.4752 O.3       1 ATP        -0.5649
     14 C5'        -0.8811    2.4285    1.6206 C.3       1 ATP         0.1979
     15 C4'        -0.1994    1.3333    2.4288 C.3       1 ATP         0.1179
     16 O4'        -1.1285    0.2356    2.5840 O.3       1 ATP        -0.3878
     17 C3'         1.0324    0.7610    1.7344 C.3       1 ATP         0.1185
     18 O3'         1.9175    0.2377    2.7247 O.3       1 ATP        -0.5544
     19 C2'         0.4468   -0.3802    0.9263 C.3       1 ATP         0.0542
     20 O2'         1.3993   -1.3703    0.5961 O.3       1 ATP        -0.5831
     21 C1'        -0.6159   -0.9100    1.8769 C.3       1 ATP         0.2222
     22 N9         -1.7127   -1.6108    1.2130 N.pl3     1 ATP        -0.1887
     23 C8         -2.8662   -1.0361    0.7388 C.ar      1 ATP         0.4447
     24 N7         -3.6774   -1.9166    0.1867 N.2       1 ATP        -0.6159
     25 C5         -3.0159   -3.1045    0.3123 C.ar      1 ATP         0.2195
     26 C6         -3.4377   -4.4169   -0.1199 C.ar      1 ATP         0.6144
     27 N6         -4.5720   -4.5691   -0.7080 N.2       1 ATP        -0.8160
     28 N1         -2.4600   -5.3463    0.2071 N.pl3     1 ATP        -0.8611
     29 C2         -1.2595   -5.0554    0.8515 C.ar      1 ATP         0.6141
     30 N3         -0.8555   -3.8803    1.2516 N.2       1 ATP        -0.5913
     31 C4         -1.7946   -2.9457    0.9448 C.ar      1 ATP         0.0067
     32 HOG3       -7.0513    1.1449   -1.3181 H         1 ATP         0.4313
     33 HOB2       -7.3535    2.7819    1.7798 H         1 ATP         0.4716
     34 H5'1       -1.4801    1.9928    0.8147 H         1 ATP         0.0452
     35 H5'2       -0.1369    3.1041    1.1872 H         1 ATP         0.0452
     36 H4'         0.0403    1.7078    3.4343 H         1 ATP         0.0998
     37 H3'         1.5906    1.4859    1.1353 H         1 ATP         0.0544
     38 HO3'        2.6839   -0.1150    2.2479 H         1 ATP         0.3961
     39 H2'        -0.0017    0.0018    0.0005 H         1 ATP         0.0499
     40 HO2'        2.0953   -0.9375    0.0709 H         1 ATP         0.4045
     41 H1'        -0.1998   -1.6319    2.6178 H         1 ATP         0.0912
     42 H8         -3.0558    0.0252    0.8256 H         1 ATP         0.1090
     43 HN62       -4.7047   -5.5592   -0.9421 H         1 ATP         0.3694
     44 H2         -0.6372   -5.9505    1.0077 H         1 ATP         0.0371
     45 H45        -2.6338   -6.3155   -0.0469 H         1 ATP         0.4283
@<TRIPOS>BOND
     1    1    2 2
     2    1    3 1
     3    1    4 1
     4    1    8 1
     5    4   32 1
     6    5    6 2
     7    5    7 1
     8    5    8 1
     9    5   12 1
    10    7   33 1
    11    9   10 2
    12    9   11 1
    13    9   12 1
    14    9   13 1
    15   13   14 1
    16   14   15 1
    17   14   34 1
    18   14   35 1
    19   15   16 1
    20   15   17 1
    21   15   36 1
    22   16   21 1
    23   17   18 1
    24   17   19 1
    25   17   37 1
    26   18   38 1
    27   19   20 1
    28   19   21 1
    29   19   39 1
    30   20   40 1
    31   21   22 1
    32   21   41 1
    33   22   23 ar
    34   22   31 ar
    35   23   24 ar
    36   23   42 1
    37   24   25 ar
    38   25   26 ar
    39   25   31 ar
    40   26   27 2
    41   26   28 ar
    42   27   43 1
    43   28   29 ar
    44   28   45 1
    45   29   30 ar
    46   29   44 1
    47   30   31 ar
@<TRIPOS>SUBSTRUCTURE
     1 ATP         1 GROUP 0 A     ****
@<TRIPOS>MOLECULE
[[[3,4-dihydroxy-5-(6-imino-1~{H}-purin-9-yl)tetrahydrofuran-2-yl]methoxy-oxido-phosphoryl]oxy-hydroxy-phosphoryl] hydrogen phosphate
   45    47     1     0     0
SMALL
USER_CHARGES

@<TRIPOS>ATOM
      1 PG          0.6884    7.3681    2.0000 P.3       1 ATP         1.5496
      2 O1G         1.9722    7.9257    1.4268 O.co2     1 ATP        -0.8494
      3 O2G         0.7036    6.1579    2.9069 O.co2     1 ATP        -0.8494
      4 O3G        -0.1074    8.5750    2.7593 O.3       1 ATP        -0.7845
      5 PB         -1.9194    6.6676    0.8141 P.3       1 ATP         1.9068
      6 O1B        -2.8352    7.6102    1.5374 O.2       1 ATP        -0.8942
      7 O2B        -2.2802    6.4207   -0.7423 O.3       1 ATP        -0.8166
      8 O3B        -0.3641    7.1066    0.7818 O.3       1 ATP        -0.8194
      9 PA         -2.9646    4.0417    1.6588 P.3       1 ATP         1.5903
     10 O1A        -3.4784    3.5899    0.3091 O.co2     1 ATP        -0.8519
     11 O2A        -3.9189    4.5387    2.7228 O.co2     1 ATP        -0.8519
     12 O3A        -1.8146    5.1782    1.4307 O.3       1 ATP        -0.8093
     13 O5'        -2.0402    2.8619    2.3130 O.3       1 ATP        -0.5649
     14 C5'        -0.8811    2.4285    1.6206 C.3       1 ATP         0.1979
     15 C4'        -0.1994    1.3333    2.4288 C.3       1 ATP         0.1179
     16 O4'        -1.1285    0.2356    2.5840 O.3       1 ATP        -0.3878
     17 C3'         1.0324    0.7610    1.7344 C.3       1 ATP         0.1185
     18 O3'         1.9175    0.2377    2.7247 O.3       1 ATP        -0.5544
     19 C2'         0.4468   -0.3802    0.9263 C.3       1 ATP         0.0542
     20 O2'         1.3993   -1.3703    0.5961 O.3       1 ATP        -0.5831
     21 C1'        -0.6159   -0.9100    1.8769 C.3       1 ATP         0.2222
     22 N9         -1.7127   -1.6108    1.2130 N.pl3     1 ATP        -0.1887
     23 C8         -2.0868   -2.9137    1.4327 C.ar      1 ATP         0.4447
     24 N7         -3.1125   -3.2756    0.6878 N.2       1 ATP        -0.6159
     25 C5         -3.4079   -2.1580   -0.0391 C.ar      1 ATP         0.2195
     26 C6         -4.4483   -1.9775   -1.0249 C.ar      1 ATP         0.6144
     27 N6         -5.2418   -2.9492   -1.3113 N.2       1 ATP        -0.8160
     28 N1         -4.3937   -0.6823   -1.5211 N.pl3     1 ATP        -0.8611
     29 C2         -3.4770    0.2901   -1.1271 C.ar      1 ATP         0.6141
     30 N3         -2.5289    0.1525   -0.2403 N.2       1 ATP        -0.5913
     31 C4         -2.5564   -1.1096    0.2655 C.ar      1 ATP         0.0067
     32 HOG3       -0.9663    8.3711    3.1868 H         1 ATP         0.4313
     33 HOB2       -3.1565    6.0446   -0.9724 H         1 ATP         0.4716
     34 H5'1       -1.1769    2.0503    0.6369 H         1 ATP         0.0452
     35 H5'2       -0.2081    3.2815    1.4877 H         1 ATP         0.0452
     36 H4'         0.0403    1.7078    3.4343 H         1 ATP         0.0998
     37 H3'         1.5906    1.4859    1.1353 H         1 ATP         0.0544
     38 HO3'        2.6839   -0.1150    2.2479 H         1 ATP         0.3961
     39 H2'        -0.0017    0.0018    0.0005 H         1 ATP         0.0499
     40 HO2'        0.9369   -2.0558    0.0825 H         1 ATP         0.4045
     41 H1'        -0.1998   -1.6319    2.6178 H         1 ATP         0.0912
     42 H8         -1.5740   -3.5449    2.1457 H         1 ATP         0.1090
     43 HN62       -5.9117   -2.6433   -2.0256 H         1 ATP         0.3694
     44 H2         -3.6225    1.2454   -1.6553 H         1 ATP         0.0371
     45 H45        -5.0794   -0.4231   -2.2258 H         1 ATP         0.4283
@<TRIPOS>BOND
     1    1    2 2
     2    1    3 1
     3    1    4 1
     4    1    8 1
     5    4   32 1
     6    5    6 2
     7    5    7 1
     8    5    8 1
     9    5   12 1
    10    7   33 1
    11    9   10 2
    12    9   11 1
    13    9   12 1
    14    9   13 1
    15   13   14 1
    16   14   15 1
    17   14   34 1
    18   14   35 1
    19   15   16 1
    20   15   17 1
    21   15   36 1
    22   16   21 1
    23   17   18 1
    24   17   19 1
    25   17   37 1
    26   18   38 1
    27   19   20 1
    28   19   21 1
    29   19   39 1
    30   20   40 1
    31   21   22 1
    32   21   41 1
    33   22   23 ar
    34   22   31 ar
    35   23   24 ar
    36   23   42 1
    37   24   25 ar
    38   25   26 ar
    39   25   31 ar
    40   26   27 2
    41   26   28 ar
    42   27   43 1
    43   28   29 ar
    44   28   45 1
    45   29   30 ar
    46   29   44 1
    47   30   31 ar
@<TRIPOS>SUBSTRUCTURE
     1 ATP         1 GROUP 0 A     ****
@<TRIPOS>MOLECULE
[[[3,4-dihydroxy-5-(6-imino-1~{H}-purin-9-yl)tetrahydrofuran-2-yl]methoxy-oxido-phosphoryl]oxy-hydroxy-phosphoryl] hydrogen phosphate
   45    47     1     0     0
SMALL
USER_CHARGES

@<TRIPOS>ATOM
      1 PG         -3.3373    6.7191    5.6233 P.3       1 ATP         1.5496
      2 O1G        -2.9279    8.1733    5.6974 O.co2     1 ATP        -0.8494
      3 O2G        -3.5836    5.9163    6.8811 O.co2     1 ATP        -0.8494
      4 O3G        -4.6547    6.5998    4.6659 O.3       1 ATP        -0.7845
      5 PB         -0.7090    5.5862    4.9118 P.3       1 ATP         1.9068
      6 O1B         0.1817    6.7824    5.0742 O.2       1 ATP        -0.8942
      7 O2B        -0.7153    4.5618    6.1624 O.3       1 ATP        -0.8166
      8 O3B        -2.2739    5.9184    4.6808 O.3       1 ATP        -0.8194
      9 PA         -0.3961    4.9845    2.0411 P.3       1 ATP         1.5903
     10 O1A         0.7136    5.9718    1.7518 O.co2     1 ATP        -0.8519
     11 O2A        -1.8198    5.2756    1.6189 O.co2     1 ATP        -0.8519
     12 O3A        -0.3946    4.6439    3.6380 O.3       1 ATP        -0.8093
     13 O5'         0.0180    3.5131    1.4595 O.3       1 ATP        -0.5649
     14 C5'        -0.8811    2.4285    1.6206 C.3       1 ATP         0.1979
     15 C4'        -0.1994    1.3333    2.4288 C.3       1 ATP         0.1179
     16 O4'        -1.1285    0.2356    2.5840 O.3       1 ATP        -0.3878
     17 C3'         1.0324    0.7610    1.7344 C.3       1 ATP         0.1185
     18 O3'         1.9175    0.2377    2.7247 O.3       1 ATP        -0.5544
     19 C2'         0.4468   -0.3802    0.9263 C.3       1 ATP         0.0542
     20 O2'         1.3993   -1.3703    0.5961 O.3       1 ATP        -0.5831
     21 C1'        -0.6159   -0.9100    1.8769 C.3       1 ATP         0.2222
     22 N9         -1.7127   -1.6108    1.2130 N.pl3     1 ATP        -0.1887
     23 C8         -2.8662   -1.0361    0.7388 C.ar      1 ATP         0.4447
     24 N7         -3.6774   -1.9166    0.1867 N.2       1 ATP        -0.6159
     25 C5         -3.0159   -3.1045    0.3123 C.ar      1 ATP         0.2195
     26 C6         -3.4377   -4.4169   -0.1199 C.ar      1 ATP         0.6144
     27 N6         -4.5720   -4.5691   -0.7080 N.2       1 ATP        -0.8160
     28 N1         -2.4600   -5.3463    0.2071 N.pl3     1 ATP        -0.8611
     29 C2         -1.2595   -5.0554    0.8515 C.ar      1 ATP         0.6141
     30 N3         -0.8555   -3.8803    1.2516 N.2       1 ATP        -0.5913
     31 C4         -1.7946   -2.9457    0.9448 C.ar      1 ATP         0.0067
     32 HOG3       -5.0445    5.7120    4.5170 H         1 ATP         0.4313
     33 HOB2       -0.9993    4.8890    7.0425 H         1 ATP         0.4716
     34 H5'1       -1.7770    2.7851    2.1387 H         1 ATP         0.0452
     35 H5'2       -1.1653    2.0543    0.6320 H         1 ATP         0.0452
     36 H4'         0.0403    1.7078    3.4343 H         1 ATP         0.0998
     37 H3'         1.5906    1.4859    1.1353 H         1 ATP         0.0544
     38 HO3'        2.6839   -0.1150    2.2479 H         1 ATP         0.3961
     39 H2'        -0.0017    0.0018    0.0005 H         1 ATP         0.0499
     40 HO2'        2.0953   -0.9375    0.0709 H         1 ATP         0.4045
     41 H1'        -0.1998   -1.6319    2.6178 H         1 ATP         0.0912
     42 H8         -3.0558    0.0252    0.8256 H         1 ATP         0.1090
     43 HN62       -4.7047   -5.5592   -0.9421 H         1 ATP         0.3694
     44 H2         -0.6372   -5.9505    1.0077 H         1 ATP         0.0371
     45 H45        -2.6338   -6.3155   -0.0469 H         1 ATP         0.4283
@<TRIPOS>BOND
     1    1    2 2
     2    1    3 1
     3    1    4 1
     4    1    8 1
     5    4   32 1
     6    5    6 2
     7    5    7 1
     8    5    8 1
     9    5   12 1
    10    7   33 1
    11    9   10 2
    12    9   11 1
    13    9   12 1
    14    9   13 1
    15   13   14 1
    16   14   15 1
    17   14   34 1
    18   14   35 1
    19   15   16 1
    20   15   17 1
    21   15   36 1
    22   16   21 1
    23   17   18 1
    24   17   19 1
    25   17   37 1
    26   18   38 1
    27   19   20 1
    28   19   21 1
    29   19   39 1
    30   20   40 1
    31   21   22 1
    32   21   41 1
    33   22   23 ar
    34   22   31 ar
    35   23   24 ar
    36   23   42 1
    37   24   25 ar
    38   25   26 ar
    39   25   31 ar
    40   26   27 2
    41   26   28 ar
    42   27   43 1
    43   28   29 ar
    44   28   45 1
    45   29   30 ar
    46   29   44 1
    47   30   31 ar
@<TRIPOS>SUBSTRUCTURE
     1 ATP         1 GROUP 0 A     ****
@<TRIPOS>MOLECULE
[[[3,4-dihydroxy-5-(6-imino-1~{H}-purin-9-yl)tetrahydrofuran-2-yl]methoxy-oxido-phosphoryl]oxy-hydroxy-phosphoryl] hydrogen phosphate
   45    47     1     0     0
SMALL
USER_CHARGES

@<TRIPOS>ATOM
      1 PG         -6.8849    4.6431    1.3439 P.3       1 ATP         1.5496
      2 O1G        -7.2868    3.3354    1.9889 O.co2     1 ATP        -0.8494
      3 O2G        -7.4591    5.0593    0.0080 O.co2     1 ATP        -0.8494
      4 O3G        -7.1382    5.8489    2.4153 O.3       1 ATP        -0.7845
      5 PB         -4.2044    3.8379    0.4142 P.3       1 ATP         1.9068
      6 O1B        -4.2252    2.3643    0.6943 O.2       1 ATP        -0.8942
      7 O2B        -4.5174    4.2488   -1.1177 O.3       1 ATP        -0.8166
      8 O3B        -5.2573    4.7170    1.2694 O.3       1 ATP        -0.8194
      9 PA         -2.0037    4.7527    2.1524 P.3       1 ATP         1.5903
     10 O1A        -2.9379    5.3281    3.1946 O.co2     1 ATP        -0.8519
     11 O2A        -0.6720    5.4094    1.8606 O.co2     1 ATP        -0.8519
     12 O3A        -2.8171    4.5964    0.7452 O.3       1 ATP        -0.8093
     13 O5'        -1.7337    3.1724    2.4752 O.3       1 ATP        -0.5649
     14 C5'        -0.8811    2.4285    1.6206 C.3       1 ATP         0.1979
     15 C4'        -0.1994    1.3333    2.4288 C.3       1 ATP         0.1179
     16 O4'        -1.1285    0.2356    2.5840 O.3       1 ATP        -0.3878
     17 C3'         1.0324    0.7610    1.7344 C.3       1 ATP         0.1185
     18 O3'         1.9175    0.2377    2.7247 O.3       1 ATP        -0.5544
     19 C2'         0.4468   -0.3802    0.9263 C.3       1 ATP         0.0542
     20 O2'         1.3993   -1.3703    0.5961 O.3       1 ATP        -0.5831
     21 C1'        -0.6159   -0.9100    1.8769 C.3       1 ATP         0.2222
     22 N9         -1.7127   -1.6108    1.2130 N.pl3     1 ATP        -0.1887
     23 C8         -2.8662   -1.0361    0.7388 C.ar      1 ATP         0.4447
     24 N7         -3.6774   -1.9166    0.1867 N.2       1 ATP        -0.6159
     25 C5         -3.0159   -3.1045    0.3123 C.ar      1 ATP         0.2195
     26 C6         -3.4377   -4.4169   -0.1199 C.ar      1 ATP         0.6144
     27 N6         -4.5720   -4.5691   -0.7080 N.2       1 ATP        -0.8160
     28 N1         -2.4600   -5.3463    0.2071 N.pl3     1 ATP        -0.8611
     29 C2         -1.2595   -5.0554    0.8515 C.ar      1 ATP         0.6141
     30 N3         -0.8555   -3.8803    1.2516 N.2       1 ATP        -0.5913
     31 C4         -1.7946   -2.9457    0.9448 C.ar      1 ATP         0.0067
     32 HOG3       -6.9241    6.7669    2.1441 H         1 ATP         0.4313
     33 HOB2       -5.3799    3.9954   -1.5102 H         1 ATP         0.4716
     34 H5'1       -1.4801    1.9928    0.8147 H         1 ATP         0.0452
     35 H5'2       -0.1369    3.1041    1.1872 H         1 ATP         0.0452
     36 H4'         0.0403    1.7078    3.4343 H         1 ATP         0.0998
     37 H3'         1.5906    1.4859    1.1353 H         1 ATP         0.0544
     38 HO3'        2.1521    0.9800    3.3017 H         1 ATP         0.3961
     39 H2'        -0.0017    0.0018    0.0005 H         1 ATP         0.0499
     40 HO2'        0.9369   -2.0558    0.0825 H         1 ATP         0.4045
     41 H1'        -0.1998   -1.6319    2.6178 H         1 ATP         0.0912
     42 H8         -3.0558    0.0252    0.8256 H         1 ATP         0.1090
     43 HN62       -4.7047   -5.5592   -0.9421 H         1 ATP         0.3694
     44 H2         -0.6372   -5.9505    1.0077 H         1 ATP         0.0371
     45 H45        -2.6338   -6.3155   -0.0469 H         1 ATP         0.4283
@<TRIPOS>BOND
     1    1    2 2
     2    1    3 1
     3    1    4 1
     4    1    8 1
     5    4   32 1
     6    5    6 2
     7    5    7 1
     8    5    8 1
     9    5   12 1
    10    7   33 1
    11    9   10 2
    12    9   11 1
    13    9   12 1
    14    9   13 1
    15   13   14 1
    16   14   15 1
    17   14   34 1
    18   14   35 1
    19   15   16 1
    20   15   17 1
    21   15   36 1
    22   16   21 1
    23   17   18 1
    24   17   19 1
    25   17   37 1
    26   18   38 1
    27   19   20 1
    28   19   21 1
    29   19   39 1
    30   20   40 1
    31   21   22 1
    32   21   41 1
    33   22   23 ar
    34   22   31 ar
    35   23   24 ar
    36   23   42 1
    37   24   25 ar
    38   25   26 ar
    39   25   31 ar
    40   26   27 2
    41   26   28 ar
    42   27   43 1
    43   28   29 ar
    44   28   45 1
    45   29   30 ar
    46   29   44 1
    47   30   31 ar
@<TRIPOS>SUBSTRUCTURE
     1 ATP         1 GROUP 0 A     ****
@<TRIPOS>MOLECULE
[[[3,4-dihydroxy-5-(6-imino-1~{H}-purin-9-yl)tetrahydrofuran-2-yl]methoxy-oxido-phosphoryl]oxy-hydroxy-phosphoryl] hydrogen phosphate
   45    47     1     0     0
SMALL
USER_CHARGES

@<TRIPOS>ATOM
      1 PG         -3.0170    4.6616    5.6211 P.3       1 ATP         1.5496
      2 O1G        -2.9674    4.7124    7.1319 O.co2     1 ATP        -0.8494
      3 O2G        -2.6424    3.4014    4.8734 O.co2     1 ATP        -0.8494
      4 O3G        -4.5039    5.1299    5.1354 O.3       1 ATP        -0.7845
      5 PB         -1.9874    6.4367    3.5029 P.3       1 ATP         1.9068
      6 O1B        -3.2586    6.8564    2.8259 O.2       1 ATP        -0.8942
      7 O2B        -0.8603    7.5898    3.6199 O.3       1 ATP        -0.8166
      8 O3B        -2.1567    5.9110    5.0221 O.3       1 ATP        -0.8194
      9 PA         -0.5789    5.0299    1.3262 P.3       1 ATP         1.5903
     10 O1A         0.5634    6.0091    1.1644 O.co2     1 ATP        -0.8519
     11 O2A        -1.7206    5.0026    0.3335 O.co2     1 ATP        -0.8519
     12 O3A        -1.2065    5.1960    2.8244 O.3       1 ATP        -0.8093
     13 O5'         0.0180    3.5131    1.4595 O.3       1 ATP        -0.5649
     14 C5'        -0.8811    2.4285    1.6206 C.3       1 ATP         0.1979
     15 C4'        -0.1994    1.3333    2.4288 C.3       1 ATP         0.1179
     16 O4'        -1.1285    0.2356    2.5840 O.3       1 ATP        -0.3878
     17 C3'         1.0324    0.7610    1.7344 C.3       1 ATP         0.1185
     18 O3'         1.9175    0.2377    2.7247 O.3       1 ATP        -0.5544
     19 C2'         0.4468   -0.3802    0.9263 C.3       1 ATP         0.0542
     20 O2'         1.3993   -1.3703    0.5961 O.3       1 ATP        -0.5831
     21 C1'        -0.6159   -0.9100    1.8769 C.3       1 ATP         0.2222
     22 N9         -1.7127   -1.6108    1.2130 N.pl3     1 ATP        -0.1887
     23 C8         -1.7690   -2.9583    0.9549 C.ar      1 ATP         0.4447
     24 N7         -2.8827   -3.3076    0.3418 N.2       1 ATP        -0.6159
     25 C5         -3.5683   -2.1351    0.2017 C.ar      1 ATP         0.2195
     26 C6         -4.8617   -1.9185   -0.4044 C.ar      1 ATP         0.6144
     27 N6         -5.5166   -2.9094   -0.8994 N.2       1 ATP        -0.8160
     28 N1         -5.1836   -0.5701   -0.3344 N.pl3     1 ATP        -0.8611
     29 C2         -4.3821    0.4180    0.2330 C.ar      1 ATP         0.6141
     30 N3         -3.2117    0.2488    0.7860 N.2       1 ATP        -0.5913
     31 C4         -2.8672   -1.0657    0.7327 C.ar      1 ATP         0.0067
     32 HOG3       -4.6958    5.1504    4.1736 H         1 ATP         0.4313
     33 HOB2       -0.5102    7.9961    2.7986 H         1 ATP         0.4716
     34 H5'1       -1.7770    2.7851    2.1387 H         1 ATP         0.0452
     35 H5'2       -1.1653    2.0543    0.6320 H         1 ATP         0.0452
     36 H4'         0.0403    1.7078    3.4343 H         1 ATP         0.0998
     37 H3'         1.5906    1.4859    1.1353 H         1 ATP         0.0544
     38 HO3'        2.1521    0.9800    3.3017 H         1 ATP         0.3961
     39 H2'        -0.0017    0.0018    0.0005 H         1 ATP         0.0499
     40 HO2'        2.0953   -0.9375    0.0709 H         1 ATP         0.4045
     41 H1'        -0.1998   -1.6319    2.6178 H         1 ATP         0.0912
     42 H8         -0.9697   -3.6300    1.2371 H         1 ATP         0.1090
     43 HN62       -6.4060   -2.5723   -1.2840 H         1 ATP         0.3694
     44 H2         -4.8409    1.4176    0.1757 H         1 ATP         0.0371
     45 H45        -6.0768   -0.2826   -0.7263 H         1 ATP         0.4283
@<TRIPOS>BOND
     1    1    2 2
     2    1    3 1
     3    1    4 1
     4    1    8 1
     5    4   32 1
     6    5    6 2
     7    5    7 1
     8    5    8 1
     9    5   12 1
    10    7   33 1
    11    9   10 2
    12    9   11 1
    13    9   12 1
    14    9   13 1
    15   13   14 1
    16   14   15 1
    17   14   34 1
    18   14   35 1
    19   15   16 1
    20   15   17 1
    21   15   36 1
    22   16   21 1
    23   17   18 1
    24   17   19 1
    25   17   37 1
    26   18   38 1
    27   19   20 1
    28   19   21 1
    29   19   39 1
    30   20   40 1
    31   21   22 1
    32   21   41 1
    33   22   23 ar
    34   22   31 ar
    35   23   24 ar
    36   23   42 1
    37   24   25 ar
    38   25   26 ar
    39   25   31 ar
    40   26   27 2
    41   26   28 ar
    42   27   43 1
    43   28   29 ar
    44   28   45 1
    45   29   30 ar
    46   29   44 1
    47   30   31 ar
@<TRIPOS>SUBSTRUCTURE
     1 ATP         1 GROUP 0 A     ****
@<TRIPOS>MOLECULE
[[[3,4-dihydroxy-5-(6-imino-1~{H}-purin-9-yl)tetrahydrofuran-2-yl]methoxy-oxido-phosphoryl]oxy-hydroxy-phosphoryl] hydrogen phosphate
   45    47     1     0     0
SMALL
USER_CHARGES

@<TRIPOS>ATOM
      1 PG         -2.6813    5.5162   -2.1992 P.3       1 ATP         1.5496
      2 O1G        -3.2847    6.3249   -3.3260 O.co2     1 ATP        -0.8494
      3 O2G        -2.8115    4.0098   -2.1677 O.co2     1 ATP        -0.8494
      4 O3G        -1.0999    5.9027   -2.0729 O.3       1 ATP        -0.7845
      5 PB         -2.7678    5.7626    0.7385 P.3       1 ATP         1.9068
      6 O1B        -1.3179    5.9752    1.0595 O.2       1 ATP        -0.8942
      7 O2B        -3.8021    6.6132    1.6441 O.3       1 ATP        -0.8166
      8 O3B        -3.1984    6.1246   -0.7769 O.3       1 ATP        -0.8194
      9 PA         -3.3346    3.2336    2.1469 P.3       1 ATP         1.5903
     10 O1A        -3.8072    1.8724    1.6847 O.co2     1 ATP        -0.8519
     11 O2A        -4.0245    3.9444    3.2909 O.co2     1 ATP        -0.8519
     12 O3A        -3.2996    4.2424    0.8635 O.3       1 ATP        -0.8093
     13 O5'        -1.7337    3.1724    2.4752 O.3       1 ATP        -0.5649
     14 C5'        -0.8811    2.4285    1.6206 C.3       1 ATP         0.1979
     15 C4'        -0.1994    1.3333    2.4288 C.3       1 ATP         0.1179
     16 O4'        -1.1285    0.2356    2.5840 O.3       1 ATP        -0.3878
     17 C3'         1.0324    0.7610    1.7344 C.3       1 ATP         0.1185
     18 O3'         1.9175    0.2377    2.7247 O.3       1 ATP        -0.5544
     19 C2'         0.4468   -0.3802    0.9263 C.3       1 ATP         0.0542
     20 O2'         1.3993   -1.3703    0.5961 O.3       1 ATP        -0.5831
     21 C1'        -0.6159   -0.9100    1.8769 C.3       1 ATP         0.2222
     22 N9         -1.7127   -1.6108    1.2130 N.pl3     1 ATP        -0.1887
     23 C8         -2.5485   -1.0808    0.2609 C.ar      1 ATP         0.4447
     24 N7         -3.4476   -1.9486   -0.1593 N.2       1 ATP        -0.6159
     25 C5         -3.1762   -3.0816    0.5530 C.ar      1 ATP         0.2195
     26 C6         -3.8510   -4.3579    0.5006 C.ar      1 ATP         0.6144
     27 N6         -4.8468   -4.5293   -0.2961 N.2       1 ATP        -0.8160
     28 N1         -3.2499   -5.2342    1.3937 N.pl3     1 ATP        -0.8611
     29 C2         -2.1646   -4.9275    2.2116 C.ar      1 ATP         0.6141
     30 N3         -1.5382   -3.7840    2.2778 N.2       1 ATP        -0.5913
     31 C4         -2.1054   -2.9018    1.4120 C.ar      1 ATP         0.0067
     32 HOG3       -0.5647    5.4584   -1.3813 H         1 ATP         0.4313
     33 HOB2       -3.8034    6.4788    2.6158 H         1 ATP         0.4716
     34 H5'1       -1.4801    1.9928    0.8147 H         1 ATP         0.0452
     35 H5'2       -0.1369    3.1041    1.1872 H         1 ATP         0.0452
     36 H4'         0.0403    1.7078    3.4343 H         1 ATP         0.0998
     37 H3'         1.5906    1.4859    1.1353 H         1 ATP         0.0544
     38 HO3'        2.6839   -0.1150    2.2479 H         1 ATP         0.3961
     39 H2'        -0.0017    0.0018    0.0005 H         1 ATP         0.0499
     40 HO2'        2.0953   -0.9375    0.0709 H         1 ATP         0.4045
     41 H1'        -0.1998   -1.6319    2.6178 H         1 ATP         0.0912
     42 H8         -2.4515   -0.0599   -0.0829 H         1 ATP         0.1090
     43 HN62       -5.1990   -5.4882   -0.2004 H         1 ATP         0.3694
     44 H2         -1.8555   -5.7783    2.8388 H         1 ATP         0.0371
     45 H45        -3.6312   -6.1750    1.4526 H         1 ATP         0.4283
@<TRIPOS>BOND
     1    1    2 2
     2    1    3 1
     3    1    4 1
     4    1    8 1
     5    4   32 1
     6    5    6 2
     7    5    7 1
     8    5    8 1
     9    5   12 1
    10    7   33 1
    11    9   10 2
    12    9   11 1
    13    9   12 1
    14    9   13 1
    15   13   14 1
    16   14   15 1
    17   14   34 1
    18   14   35 1
    19   15   16 1
    20   15   17 1
    21   15   36 1
    22   16   21 1
    23   17   18 1
    24   17   19 1
    25   17   37 1
    26   18   38 1
    27   19   20 1
    28   19   21 1
    29   19   39 1
    30   20   40 1
    31   21   22 1
    32   21   41 1
    33   22   23 ar
    34   22   31 ar
    35   23   24 ar
    36   23   42 1
    37   24   25 ar
    38   25   26 ar
    39   25   31 ar
    40   26   27 2
    41   26   28 ar
    42   27   43 1
    43   28   29 ar
    44   28   45 1
    45   29   30 ar
    46   29   44 1
    47   30   31 ar
@<TRIPOS>SUBSTRUCTURE
     1 ATP         1 GROUP 0 A     ****
@<TRIPOS>MOLECULE
[[[3,4-dihydroxy-5-(6-imino-1~{H}-purin-9-yl)tetrahydrofuran-2-yl]methoxy-oxido-phosphoryl]oxy-hydroxy-phosphoryl] hydrogen phosphate
   45    47     1     0     0
SMALL
USER_CHARGES

@<TRIPOS>ATOM
      1 PG         -2.3670    4.7670   -1.7517 P.3       1 ATP         1.5496
      2 O1G        -1.4212    5.5538   -2.6315 O.co2     1 ATP        -0.8494
      3 O2G        -3.8595    5.0052   -1.8075 O.co2     1 ATP        -0.8494
      4 O3G        -2.0871    3.1751   -1.9836 O.3       1 ATP        -0.7845
      5 PB         -1.8166    6.1556    0.7912 P.3       1 ATP         1.9068
      6 O1B        -0.9633    7.2979    0.3250 O.2       1 ATP        -0.8942
      7 O2B        -3.3740    6.5169    1.0310 O.3       1 ATP        -0.8166
      8 O3B        -1.8675    4.8824   -0.2034 O.3       1 ATP        -0.8194
      9 PA          0.0330    4.7082    2.5759 P.3       1 ATP         1.5903
     10 O1A        -0.1147    4.1095    3.9578 O.co2     1 ATP        -0.8519
     11 O2A         1.1818    5.6395    2.2553 O.co2     1 ATP        -0.8519
     12 O3A        -1.3612    5.4575    2.1750 O.3       1 ATP        -0.8093
     13 O5'         0.0180    3.5131    1.4595 O.3       1 ATP        -0.5649
     14 C5'        -0.8811    2.4285    1.6206 C.3       1 ATP         0.1979
     15 C4'        -0.1994    1.3333    2.4288 C.3       1 ATP         0.1179
     16 O4'        -1.1285    0.2356    2.5840 O.3       1 ATP        -0.3878
     17 C3'         1.0324    0.7610    1.7344 C.3       1 ATP         0.1185
     18 O3'         1.9175    0.2377    2.7247 O.3       1 ATP        -0.5544
     19 C2'         0.4468   -0.3802    0.9263 C.3       1 ATP         0.0542
     20 O2'         1.3993   -1.3703    0.5961 O.3       1 ATP        -0.5831
     21 C1'        -0.6159   -0.9100    1.8769 C.3       1 ATP         0.2222
     22 N9         -1.7127   -1.6108    1.2130 N.pl3     1 ATP        -0.1887
     23 C8         -2.8662   -1.0361    0.7388 C.ar      1 ATP         0.4447
     24 N7         -3.6774   -1.9166    0.1867 N.2       1 ATP        -0.6159
     25 C5         -3.0159   -3.1045    0.3123 C.ar      1 ATP         0.2195
     26 C6         -3.4377   -4.4169   -0.1199 C.ar      1 ATP         0.6144
     27 N6         -4.5720   -4.5691   -0.7080 N.2       1 ATP        -0.8160
     28 N1         -2.4600   -5.3463    0.2071 N.pl3     1 ATP        -0.8611
     29 C2         -1.2595   -5.0554    0.8515 C.ar      1 ATP         0.6141
     30 N3         -0.8555   -3.8803    1.2516 N.2       1 ATP        -0.5913
     31 C4         -1.7946   -2.9457    0.9448 C.ar      1 ATP         0.0067
     32 HOG3       -2.6255    2.5283   -1.4796 H         1 ATP         0.4313
     33 HOB2       -3.9049    6.8522    0.2773 H         1 ATP         0.4716
     34 H5'1       -1.7770    2.7851    2.1387 H         1 ATP         0.0452
     35 H5'2       -1.1653    2.0543    0.6320 H         1 ATP         0.0452
     36 H4'         0.0403    1.7078    3.4343 H         1 ATP         0.0998
     37 H3'         1.5906    1.4859    1.1353 H         1 ATP         0.0544
     38 HO3'        2.6839   -0.1150    2.2479 H         1 ATP         0.3961
     39 H2'        -0.0017    0.0018    0.0005 H         1 ATP         0.0499
     40 HO2'        2.0953   -0.9375    0.0709 H         1 ATP         0.4045
     41 H1'        -0.1998   -1.6319    2.6178 H         1 ATP         0.0912
     42 H8         -3.0558    0.0252    0.8256 H         1 ATP         0.1090
     43 HN62       -4.7047   -5.5592   -0.9421 H         1 ATP         0.3694
     44 H2         -0.6372   -5.9505    1.0077 H         1 ATP         0.0371
     45 H45        -2.6338   -6.3155   -0.0469 H         1 ATP         0.4283
@<TRIPOS>BOND
     1    1    2 2
     2    1    3 1
     3    1    4 1
     4    1    8 1
     5    4   32 1
     6    5    6 2
     7    5    7 1
     8    5    8 1
     9    5   12 1
    10    7   33 1
    11    9   10 2
    12    9   11 1
    13    9   12 1
    14    9   13 1
    15   13   14 1
    16   14   15 1
    17   14   34 1
    18   14   35 1
    19   15   16 1
    20   15   17 1
    21   15   36 1
    22   16   21 1
    23   17   18 1
    24   17   19 1
    25   17   37 1
    26   18   38 1
    27   19   20 1
    28   19   21 1
    29   19   39 1
    30   20   40 1
    31   21   22 1
    32   21   41 1
    33   22   23 ar
    34   22   31 ar
    35   23   24 ar
    36   23   42 1
    37   24   25 ar
    38   25   26 ar
    39   25   31 ar
    40   26   27 2
    41   26   28 ar
    42   27   43 1
    43   28   29 ar
    44   28   45 1
    45   29   30 ar
    46   29   44 1
    47   30   31 ar
@<TRIPOS>SUBSTRUCTURE
     1 ATP         1 GROUP 0 A     ****
@<TRIPOS>MOLECULE
[[[3,4-dihydroxy-5-(6-imino-1~{H}-purin-9-yl)tetrahydrofuran-2-yl]methoxy-oxido-phosphoryl]oxy-hydroxy-phosphoryl] hydrogen phosphate
   45    47     1     0     0
SMALL
USER_CHARGES

@<TRIPOS>ATOM
      1 PG         -1.3221    2.1705   -3.2738 P.3       1 ATP         1.5496
      2 O1G        -2.8042    2.3386   -3.5243 O.co2     1 ATP        -0.8494
      3 O2G        -0.8194    1.4091   -2.0675 O.co2     1 ATP        -0.8494
      4 O3G        -0.6396    1.5305   -4.6120 O.3       1 ATP        -0.7845
      5 PB         -0.7539    4.9000   -2.3121 P.3       1 ATP         1.9068
      6 O1B         0.0710    6.0994   -2.6743 O.2       1 ATP        -0.8942
      7 O2B        -2.3485    5.1587   -2.2484 O.3       1 ATP        -0.8166
      8 O3B        -0.6103    3.6375   -3.3113 O.3       1 ATP        -0.8194
      9 PA         -0.4664    4.8322    0.6228 P.3       1 ATP         1.5903
     10 O1A        -1.9047    5.1495    0.9699 O.co2     1 ATP        -0.8519
     11 O2A         0.6096    5.8893    0.7433 O.co2     1 ATP        -0.8519
     12 O3A        -0.4131    4.2167   -0.8886 O.3       1 ATP        -0.8093
     13 O5'         0.0180    3.5131    1.4595 O.3       1 ATP        -0.5649
     14 C5'        -0.8811    2.4285    1.6206 C.3       1 ATP         0.1979
     15 C4'        -0.1994    1.3333    2.4288 C.3       1 ATP         0.1179
     16 O4'        -1.1285    0.2356    2.5840 O.3       1 ATP        -0.3878
     17 C3'         1.0324    0.7610    1.7344 C.3       1 ATP         0.1185
     18 O3'         1.9175    0.2377    2.7247 O.3       1 ATP        -0.5544
     19 C2'         0.4468   -0.3802    0.9263 C.3       1 ATP         0.0542
     20 O2'         1.3993   -1.3703    0.5961 O.3       1 ATP        -0.5831
     21 C1'        -0.6159   -0.9100    1.8769 C.3       1 ATP         0.2222
     22 N9         -1.7127   -1.6108    1.2130 N.pl3     1 ATP        -0.1887
     23 C8         -2.8662   -1.0361    0.7388 C.ar      1 ATP         0.4447
     24 N7         -3.6774   -1.9166    0.1867 N.2       1 ATP        -0.6159
     25 C5         -3.0159   -3.1045    0.3123 C.ar      1 ATP         0.2195
     26 C6         -3.4377   -4.4169   -0.1199 C.ar      1 ATP         0.6144
     27 N6         -4.5720   -4.5691   -0.7080 N.2       1 ATP        -0.8160
     28 N1         -2.4600   -5.3463    0.2071 N.pl3     1 ATP        -0.8611
     29 C2         -1.2595   -5.0554    0.8515 C.ar      1 ATP         0.6141
     30 N3         -0.8555   -3.8803    1.2516 N.2       1 ATP        -0.5913
     31 C4         -1.7946   -2.9457    0.9448 C.ar      1 ATP         0.0067
     32 HOG3        0.3263    1.3596   -4.6072 H         1 ATP         0.4313
     33 HOB2       -2.9414    4.4124   -2.0167 H         1 ATP         0.4716
     34 H5'1       -1.7770    2.7851    2.1387 H         1 ATP         0.0452
     35 H5'2       -1.1653    2.0543    0.6320 H         1 ATP         0.0452
     36 H4'         0.0403    1.7078    3.4343 H         1 ATP         0.0998
     37 H3'         1.5906    1.4859    1.1353 H         1 ATP         0.0544
     38 HO3'        2.1521    0.9800    3.3017 H         1 ATP         0.3961
     39 H2'        -0.0017    0.0018    0.0005 H         1 ATP         0.0499
     40 HO2'        1.7495   -1.7243    1.4324 H         1 ATP         0.4045
     41 H1'        -0.1998   -1.6319    2.6178 H         1 ATP         0.0912
     42 H8         -3.0558    0.0252    0.8256 H         1 ATP         0.1090
     43 HN62       -4.7047   -5.5592   -0.9421 H         1 ATP         0.3694
     44 H2         -0.6372   -5.9505    1.0077 H         1 ATP         0.0371
     45 H45        -2.6338   -6.3155   -0.0469 H         1 ATP         0.4283
@<TRIPOS>BOND
     1    1    2 2
     2    1    3 1
     3    1    4 1
     4    1    8 1
     5    4   32 1
     6    5    6 2
     7    5    7 1
     8    5    8 1
     9    5   12 1
    10    7   33 1
    11    9   10 2
    12    9   11 1
    13    9   12 1
    14    9   13 1
    15   13   14 1
    16   14   15 1
    17   14   34 1
    18   14   35 1
    19   15   16 1
    20   15   17 1
    21   15   36 1
    22   16   21 1
    23   17   18 1
    24   17   19 1
    25   17   37 1
    26   18   38 1
    27   19   20 1
    28   19   21 1
    29   19   39 1
    30   20   40 1
    31   21   22 1
    32   21   41 1
    33   22   23 ar
    34   22   31 ar
    35   23   24 ar
    36   23   42 1
    37   24   25 ar
    38   25   26 ar
    39   25   31 ar
    40   26   27 2
    41   26   28 ar
    42   27   43 1
    43   28   29 ar
    44   28   45 1
    45   29   30 ar
    46   29   44 1
    47   30   31 ar
@<TRIPOS>SUBSTRUCTURE
     1 ATP         1 GROUP 0 A     ****
@<TRIPOS>MOLECULE
[[[3,4-dihydroxy-5-(6-imino-1~{H}-purin-9-yl)tetrahydrofuran-2-yl]methoxy-oxido-phosphoryl]oxy-hydroxy-phosphoryl] hydrogen phosphate
   45    47     1     0     0
SMALL
USER_CHARGES

@<TRIPOS>ATOM
      1 PG          1.6476    1.4495   -4.4142 P.3       1 ATP         1.5496
      2 O1G         2.8613    2.1440   -4.9907 O.co2     1 ATP        -0.8494
      3 O2G         0.3666    1.3355   -5.2100 O.co2     1 ATP        -0.8494
      4 O3G         2.0889   -0.0447   -3.9253 O.3       1 ATP        -0.7845
      5 PB          0.7981    3.5771   -2.5569 P.3       1 ATP         1.9068
      6 O1B         1.7088    4.6997   -2.9579 O.2       1 ATP        -0.8942
      7 O2B        -0.6915    3.6468   -3.1812 O.3       1 ATP        -0.8166
      8 O3B         1.3117    2.0972   -2.9555 O.3       1 ATP        -0.8194
      9 PA         -0.0887    4.4443    0.1194 P.3       1 ATP         1.5903
     10 O1A        -1.5453    4.6749   -0.2200 O.co2     1 ATP        -0.8519
     11 O2A         0.8624    5.6106    0.2776 O.co2     1 ATP        -0.8519
     12 O3A         0.5479    3.4080   -0.9700 O.3       1 ATP        -0.8093
     13 O5'         0.0180    3.5131    1.4595 O.3       1 ATP        -0.5649
     14 C5'        -0.8811    2.4285    1.6206 C.3       1 ATP         0.1979
     15 C4'        -0.1994    1.3333    2.4288 C.3       1 ATP         0.1179
     16 O4'        -1.1285    0.2356    2.5840 O.3       1 ATP        -0.3878
     17 C3'         1.0324    0.7610    1.7344 C.3       1 ATP         0.1185
     18 O3'         1.9175    0.2377    2.7247 O.3       1 ATP        -0.5544
     19 C2'         0.4468   -0.3802    0.9263 C.3       1 ATP         0.0542
     20 O2'         1.3993   -1.3703    0.5961 O.3       1 ATP        -0.5831
     21 C1'        -0.6159   -0.9100    1.8769 C.3       1 ATP         0.2222
     22 N9         -1.7127   -1.6108    1.2130 N.pl3     1 ATP        -0.1887
     23 C8         -1.7690   -2.9583    0.9549 C.ar      1 ATP         0.4447
     24 N7         -2.8827   -3.3076    0.3418 N.2       1 ATP        -0.6159
     25 C5         -3.5683   -2.1351    0.2017 C.ar      1 ATP         0.2195
     26 C6         -4.8617   -1.9185   -0.4044 C.ar      1 ATP         0.6144
     27 N6         -5.5166   -2.9094   -0.8994 N.2       1 ATP        -0.8160
     28 N1         -5.1836   -0.5701   -0.3344 N.pl3     1 ATP        -0.8611
     29 C2         -4.3821    0.4180    0.2330 C.ar      1 ATP         0.6141
     30 N3         -3.2117    0.2488    0.7860 N.2       1 ATP        -0.5913
     31 C4         -2.8672   -1.0657    0.7327 C.ar      1 ATP         0.0067
     32 HOG3        2.7856   -0.1246   -3.2395 H         1 ATP         0.4313
     33 HOB2       -0.7984    3.6360   -4.1562 H         1 ATP         0.4716
     34 H5'1       -1.7770    2.7851    2.1387 H         1 ATP         0.0452
     35 H5'2       -1.1653    2.0543    0.6320 H         1 ATP         0.0452
     36 H4'         0.0403    1.7078    3.4343 H         1 ATP         0.0998
     37 H3'         1.5906    1.4859    1.1353 H         1 ATP         0.0544
     38 HO3'        2.6839   -0.1150    2.2479 H         1 ATP         0.3961
     39 H2'        -0.0017    0.0018    0.0005 H         1 ATP         0.0499
     40 HO2'        2.0953   -0.9375    0.0709 H         1 ATP         0.4045
     41 H1'        -0.1998   -1.6319    2.6178 H         1 ATP         0.0912
     42 H8         -0.9697   -3.6300    1.2371 H         1 ATP         0.1090
     43 HN62       -6.4060   -2.5723   -1.2840 H         1 ATP         0.3694
     44 H2         -4.8409    1.4176    0.1757 H         1 ATP         0.0371
     45 H45        -6.0768   -0.2826   -0.7263 H         1 ATP         0.4283
@<TRIPOS>BOND
     1    1    2 2
     2    1    3 1
     3    1    4 1
     4    1    8 1
     5    4   32 1
     6    5    6 2
     7    5    7 1
     8    5    8 1
     9    5   12 1
    10    7   33 1
    11    9   10 2
    12    9   11 1
    13    9   12 1
    14    9   13 1
    15   13   14 1
    16   14   15 1
    17   14   34 1
    18   14   35 1
    19   15   16 1
    20   15   17 1
    21   15   36 1
    22   16   21 1
    23   17   18 1
    24   17   19 1
    25   17   37 1
    26   18   38 1
    27   19   20 1
    28   19   21 1
    29   19   39 1
    30   20   40 1
    31   21   22 1
    32   21   41 1
    33   22   23 ar
    34   22   31 ar
    35   23   24 ar
    36   23   42 1
    37   24   25 ar
    38   25   26 ar
    39   25   31 ar
    40   26   27 2
    41   26   28 ar
    42   27   43 1
    43   28   29 ar
    44   28   45 1
    45   29   30 ar
    46   29   44 1
    47   30   31 ar
@<TRIPOS>SUBSTRUCTURE
     1 ATP         1 GROUP 0 A     ****
@<TRIPOS>MOLECULE
[[[3,4-dihydroxy-5-(6-imino-1~{H}-purin-9-yl)tetrahydrofuran-2-yl]methoxy-oxido-phosphoryl]oxy-hydroxy-phosphoryl] hydrogen phosphate
   45    47     1     0     0
SMALL
USER_CHARGES

@<TRIPOS>ATOM
      1 PG         -0.3151    4.8614    7.7433 P.3       1 ATP         1.5496
      2 O1G        -1.7168    5.1501    8.2326 O.co2     1 ATP        -0.8494
      3 O2G         0.8250    5.8067    8.0500 O.co2     1 ATP        -0.8494
      4 O3G         0.1073    3.3629    8.2355 O.3       1 ATP        -0.7845
      5 PB         -0.7090    5.5862    4.9118 P.3       1 ATP         1.9068
      6 O1B        -2.0796    6.1947    4.9509 O.2       1 ATP        -0.8942
      7 O2B         0.5118    6.6460    4.9235 O.3       1 ATP        -0.8166
      8 O3B        -0.3624    4.5891    6.1359 O.3       1 ATP        -0.8194
      9 PA         -0.3961    4.9845    2.0411 P.3       1 ATP         1.5903
     10 O1A         0.7136    5.9718    1.7518 O.co2     1 ATP        -0.8519
     11 O2A        -1.8198    5.2756    1.6189 O.co2     1 ATP        -0.8519
     12 O3A        -0.3946    4.6439    3.6380 O.3       1 ATP        -0.8093
     13 O5'         0.0180    3.5131    1.4595 O.3       1 ATP        -0.5649
     14 C5'        -0.8811    2.4285    1.6206 C.3       1 ATP         0.1979
     15 C4'        -0.1994    1.3333    2.4288 C.3       1 ATP         0.1179
     16 O4'        -1.1285    0.2356    2.5840 O.3       1 ATP        -0.3878
     17 C3'         1.0324    0.7610    1.7344 C.3       1 ATP         0.1185
     18 O3'         1.9175    0.2377    2.7247 O.3       1 ATP        -0.5544
     19 C2'         0.4468   -0.3802    0.9263 C.3       1 ATP         0.0542
     20 O2'         1.3993   -1.3703    0.5961 O.3       1 ATP        -0.5831
     21 C1'        -0.6159   -0.9100    1.8769 C.3       1 ATP         0.2222
     22 N9         -1.7127   -1.6108    1.2130 N.pl3     1 ATP        -0.1887
     23 C8         -2.8662   -1.0361    0.7388 C.ar      1 ATP         0.4447
     24 N7         -3.6774   -1.9166    0.1867 N.2       1 ATP        -0.6159
     25 C5         -3.0159   -3.1045    0.3123 C.ar      1 ATP         0.2195
     26 C6         -3.4377   -4.4169   -0.1199 C.ar      1 ATP         0.6144
     27 N6         -4.5720   -4.5691   -0.7080 N.2       1 ATP        -0.8160
     28 N1         -2.4600   -5.3463    0.2071 N.pl3     1 ATP        -0.8611
     29 C2         -1.2595   -5.0554    0.8515 C.ar      1 ATP         0.6141
     30 N3         -0.8555   -3.8803    1.2516 N.2       1 ATP        -0.5913
     31 C4         -1.7946   -2.9457    0.9448 C.ar      1 ATP         0.0067
     32 HOG3        0.9966    3.0259    7.9948 H         1 ATP         0.4313
     33 HOB2        0.5772    7.3025    4.1976 H         1 ATP         0.4716
     34 H5'1       -1.7770    2.7851    2.1387 H         1 ATP         0.0452
     35 H5'2       -1.1653    2.0543    0.6320 H         1 ATP         0.0452
     36 H4'         0.0403    1.7078    3.4343 H         1 ATP         0.0998
     37 H3'         1.5906    1.4859    1.1353 H         1 ATP         0.0544
     38 HO3'        2.6839   -0.1150    2.2479 H         1 ATP         0.3961
     39 H2'        -0.0017    0.0018    0.0005 H         1 ATP         0.0499
     40 HO2'        2.0953   -0.9375    0.0709 H         1 ATP         0.4045
     41 H1'        -0.1998   -1.6319    2.6178 H         1 ATP         0.0912
     42 H8         -3.0558    0.0252    0.8256 H         1 ATP         0.1090
     43 HN62       -4.7047   -5.5592   -0.9421 H         1 ATP         0.3694
     44 H2         -0.6372   -5.9505    1.0077 H         1 ATP         0.0371
     45 H45        -2.6338   -6.3155   -0.0469 H         1 ATP         0.4283
@<TRIPOS>BOND
     1    1    2 2
     2    1    3 1
     3    1    4 1
     4    1    8 1
     5    4   32 1
     6    5    6 2
     7    5    7 1
     8    5    8 1
     9    5   12 1
    10    7   33 1
    11    9   10 2
    12    9   11 1
    13    9   12 1
    14    9   13 1
    15   13   14 1
    16   14   15 1
    17   14   34 1
    18   14   35 1
    19   15   16 1
    20   15   17 1
    21   15   36 1
    22   16   21 1
    23   17   18 1
    24   17   19 1
    25   17   37 1
    26   18   38 1
    27   19   20 1
    28   19   21 1
    29   19   39 1
    30   20   40 1
    31   21   22 1
    32   21   41 1
    33   22   23 ar
    34   22   31 ar
    35   23   24 ar
    36   23   42 1
    37   24   25 ar
    38   25   26 ar
    39   25   31 ar
    40   26   27 2
    41   26   28 ar
    42   27   43 1
    43   28   29 ar
    44   28   45 1
    45   29   30 ar
    46   29   44 1
    47   30   31 ar
@<TRIPOS>SUBSTRUCTURE
     1 ATP         1 GROUP 0 A     ****
@<TRIPOS>MOLECULE
[[[3,4-dihydroxy-5-(6-imino-1~{H}-purin-9-yl)tetrahydrofuran-2-yl]methoxy-oxido-phosphoryl]oxy-hydroxy-phosphoryl] hydrogen phosphate
   45    47     1     0     0
SMALL
USER_CHARGES

@<TRIPOS>ATOM
      1 PG         -6.4599    3.0932   -2.8520 P.3       1 ATP         1.5496
      2 O1G        -6.4482    4.4658   -3.4871 O.co2     1 ATP        -0.8494
      3 O2G        -7.6873    2.5807   -2.1320 O.co2     1 ATP        -0.8494
      4 O3G        -6.0253    1.9962   -3.9808 O.3       1 ATP        -0.7845
      5 PB         -4.8171    3.7199   -0.4843 P.3       1 ATP         1.9068
      6 O1B        -4.7065    5.2123   -0.5885 O.2       1 ATP        -0.8942
      7 O2B        -5.9432    3.1863    0.5456 O.3       1 ATP        -0.8166
      8 O3B        -5.1686    2.9567   -1.8652 O.3       1 ATP        -0.8194
      9 PA         -1.9975    2.8865   -0.7222 P.3       1 ATP         1.5903
     10 O1A        -1.3784    4.2664   -0.6707 O.co2     1 ATP        -0.8519
     11 O2A        -2.1187    2.1418   -2.0339 O.co2     1 ATP        -0.8519
     12 O3A        -3.4744    2.9460   -0.0285 O.3       1 ATP        -0.8093
     13 O5'        -1.2434    1.9102    0.3514 O.3       1 ATP        -0.5649
     14 C5'        -0.8811    2.4285    1.6206 C.3       1 ATP         0.1979
     15 C4'        -0.1994    1.3333    2.4288 C.3       1 ATP         0.1179
     16 O4'        -1.1285    0.2356    2.5840 O.3       1 ATP        -0.3878
     17 C3'         1.0324    0.7610    1.7344 C.3       1 ATP         0.1185
     18 O3'         1.9175    0.2377    2.7247 O.3       1 ATP        -0.5544
     19 C2'         0.4468   -0.3802    0.9263 C.3       1 ATP         0.0542
     20 O2'         1.3993   -1.3703    0.5961 O.3       1 ATP        -0.5831
     21 C1'        -0.6159   -0.9100    1.8769 C.3       1 ATP         0.2222
     22 N9         -1.7127   -1.6108    1.2130 N.pl3     1 ATP        -0.1887
     23 C8         -2.8662   -1.0361    0.7388 C.ar      1 ATP         0.4447
     24 N7         -3.6774   -1.9166    0.1867 N.2       1 ATP        -0.6159
     25 C5         -3.0159   -3.1045    0.3123 C.ar      1 ATP         0.2195
     26 C6         -3.4377   -4.4169   -0.1199 C.ar      1 ATP         0.6144
     27 N6         -4.5720   -4.5691   -0.7080 N.2       1 ATP        -0.8160
     28 N1         -2.4600   -5.3463    0.2071 N.pl3     1 ATP        -0.8611
     29 C2         -1.2595   -5.0554    0.8515 C.ar      1 ATP         0.6141
     30 N3         -0.8555   -3.8803    1.2516 N.2       1 ATP        -0.5913
     31 C4         -1.7946   -2.9457    0.9448 C.ar      1 ATP         0.0067
     32 HOG3       -5.9851    1.0509   -3.7218 H         1 ATP         0.4313
     33 HOB2       -6.8803    3.4338    0.3941 H         1 ATP         0.4716
     34 H5'1       -0.2034    3.2760    1.4767 H         1 ATP         0.0452
     35 H5'2       -1.7842    2.7761    2.1322 H         1 ATP         0.0452
     36 H4'         0.0403    1.7078    3.4343 H         1 ATP         0.0998
     37 H3'         1.5906    1.4859    1.1353 H         1 ATP         0.0544
     38 HO3'        2.6839   -0.1150    2.2479 H         1 ATP         0.3961
     39 H2'        -0.0017    0.0018    0.0005 H         1 ATP         0.0499
     40 HO2'        2.0953   -0.9375    0.0709 H         1 ATP         0.4045
     41 H1'        -0.1998   -1.6319    2.6178 H         1 ATP         0.0912
     42 H8         -3.0558    0.0252    0.8256 H         1 ATP         0.1090
     43 HN62       -4.7047   -5.5592   -0.9421 H         1 ATP         0.3694
     44 H2         -0.6372   -5.9505    1.0077 H         1 ATP         0.0371
     45 H45        -2.6338   -6.3155   -0.0469 H         1 ATP         0.4283
@<TRIPOS>BOND
     1    1    2 2
     2    1    3 1
     3    1    4 1
     4    1    8 1
     5    4   32 1
     6    5    6 2
     7    5    7 1
     8    5    8 1
     9    5   12 1
    10    7   33 1
    11    9   10 2
    12    9   11 1
    13    9   12 1
    14    9   13 1
    15   13   14 1
    16   14   15 1
    17   14   34 1
    18   14   35 1
    19   15   16 1
    20   15   17 1
    21   15   36 1
    22   16   21 1
    23   17   18 1
    24   17   19 1
    25   17   37 1
    26   18   38 1
    27   19   20 1
    28   19   21 1
    29   19   39 1
    30   20   40 1
    31   21   22 1
    32   21   41 1
    33   22   23 ar
    34   22   31 ar
    35   23   24 ar
    36   23   42 1
    37   24   25 ar
    38   25   26 ar
    39   25   31 ar
    40   26   27 2
    41   26   28 ar
    42   27   43 1
    43   28   29 ar
    44   28   45 1
    45   29   30 ar
    46   29   44 1
    47   30   31 ar
@<TRIPOS>SUBSTRUCTURE
     1 ATP         1 GROUP 0 A     ****
@<TRIPOS>MOLECULE
[[[3,4-dihydroxy-5-(6-imino-1~{H}-purin-9-yl)tetrahydrofuran-2-yl]methoxy-oxido-phosphoryl]oxy-hydroxy-phosphoryl] hydrogen phosphate
   45    47     1     0     0
SMALL
USER_CHARGES

@<TRIPOS>ATOM
      1 PG         -1.7583    9.4334    1.0169 P.3       1 ATP         1.5496
      2 O1G        -2.4167   10.0773    2.2167 O.co2     1 ATP        -0.8494
      3 O2G        -2.3466    9.5872   -0.3679 O.co2     1 ATP        -0.8494
      4 O3G        -0.1946    9.9011    0.9706 O.3       1 ATP        -0.7845
      5 PB         -2.6041    6.6540    1.5242 P.3       1 ATP         1.9068
      6 O1B        -3.5675    6.8411    2.6587 O.2       1 ATP        -0.8942
      7 O2B        -3.2842    6.5032    0.0653 O.3       1 ATP        -0.8166
      8 O3B        -1.5326    7.8479    1.3258 O.3       1 ATP        -0.8194
      9 PA         -0.4664    4.8322    0.6228 P.3       1 ATP         1.5903
     10 O1A         0.6558    5.8467    0.5865 O.co2     1 ATP        -0.8519
     11 O2A        -1.1276    4.3642   -0.6553 O.co2     1 ATP        -0.8519
     12 O3A        -1.6298    5.3702    1.6343 O.3       1 ATP        -0.8093
     13 O5'         0.0180    3.5131    1.4595 O.3       1 ATP        -0.5649
     14 C5'        -0.8811    2.4285    1.6206 C.3       1 ATP         0.1979
     15 C4'        -0.1994    1.3333    2.4288 C.3       1 ATP         0.1179
     16 O4'        -1.1285    0.2356    2.5840 O.3       1 ATP        -0.3878
     17 C3'         1.0324    0.7610    1.7344 C.3       1 ATP         0.1185
     18 O3'         1.9175    0.2377    2.7247 O.3       1 ATP        -0.5544
     19 C2'         0.4468   -0.3802    0.9263 C.3       1 ATP         0.0542
     20 O2'         1.3993   -1.3703    0.5961 O.3       1 ATP        -0.5831
     21 C1'        -0.6159   -0.9100    1.8769 C.3       1 ATP         0.2222
     22 N9         -1.7127   -1.6108    1.2130 N.pl3     1 ATP        -0.1887
     23 C8         -1.7690   -2.9583    0.9549 C.ar      1 ATP         0.4447
     24 N7         -2.8827   -3.3076    0.3418 N.2       1 ATP        -0.6159
     25 C5         -3.5683   -2.1351    0.2017 C.ar      1 ATP         0.2195
     26 C6         -4.8617   -1.9185   -0.4044 C.ar      1 ATP         0.6144
     27 N6         -5.5166   -2.9094   -0.8994 N.2       1 ATP        -0.8160
     28 N1         -5.1836   -0.5701   -0.3344 N.pl3     1 ATP        -0.8611
     29 C2         -4.3821    0.4180    0.2330 C.ar      1 ATP         0.6141
     30 N3         -3.2117    0.2488    0.7860 N.2       1 ATP        -0.5913
     31 C4         -2.8672   -1.0657    0.7327 C.ar      1 ATP         0.0067
     32 HOG3        0.3719    9.5648    0.2439 H         1 ATP         0.4313
     33 HOB2       -3.8382    7.2363   -0.2780 H         1 ATP         0.4716
     34 H5'1       -1.7770    2.7851    2.1387 H         1 ATP         0.0452
     35 H5'2       -1.1653    2.0543    0.6320 H         1 ATP         0.0452
     36 H4'         0.0403    1.7078    3.4343 H         1 ATP         0.0998
     37 H3'         1.5906    1.4859    1.1353 H         1 ATP         0.0544
     38 HO3'        2.6839   -0.1150    2.2479 H         1 ATP         0.3961
     39 H2'        -0.0017    0.0018    0.0005 H         1 ATP         0.0499
     40 HO2'        2.0953   -0.9375    0.0709 H         1 ATP         0.4045
     41 H1'        -0.1998   -1.6319    2.6178 H         1 ATP         0.0912
     42 H8         -0.9697   -3.6300    1.2371 H         1 ATP         0.1090
     43 HN62       -6.4060   -2.5723   -1.2840 H         1 ATP         0.3694
     44 H2         -4.8409    1.4176    0.1757 H         1 ATP         0.0371
     45 H45        -6.0768   -0.2826   -0.7263 H         1 ATP         0.4283
@<TRIPOS>BOND
     1    1    2 2
     2    1    3 1
     3    1    4 1
     4    1    8 1
     5    4   32 1
     6    5    6 2
     7    5    7 1
     8    5    8 1
     9    5   12 1
    10    7   33 1
    11    9   10 2
    12    9   11 1
    13    9   12 1
    14    9   13 1
    15   13   14 1
    16   14   15 1
    17   14   34 1
    18   14   35 1
    19   15   16 1
    20   15   17 1
    21   15   36 1
    22   16   21 1
    23   17   18 1
    24   17   19 1
    25   17   37 1
    26   18   38 1
    27   19   20 1
    28   19   21 1
    29   19   39 1
    30   20   40 1
    31   21   22 1
    32   21   41 1
    33   22   23 ar
    34   22   31 ar
    35   23   24 ar
    36   23   42 1
    37   24   25 ar
    38   25   26 ar
    39   25   31 ar
    40   26   27 2
    41   26   28 ar
    42   27   43 1
    43   28   29 ar
    44   28   45 1
    45   29   30 ar
    46   29   44 1
    47   30   31 ar
@<TRIPOS>SUBSTRUCTURE
     1 ATP         1 GROUP 0 A     ****
@<TRIPOS>MOLECULE
[[[3,4-dihydroxy-5-(6-imino-1~{H}-purin-9-yl)tetrahydrofuran-2-yl]methoxy-oxido-phosphoryl]oxy-hydroxy-phosphoryl] hydrogen phosphate
   45    47     1     0     0
SMALL
USER_CHARGES

@<TRIPOS>ATOM
      1 PG          1.7934    3.9389   -3.0338 P.3       1 ATP         1.5496
      2 O1G         1.8784    3.1411   -4.3159 O.co2     1 ATP        -0.8494
      3 O2G         2.2397    3.3434   -1.7171 O.co2     1 ATP        -0.8494
      4 O3G         2.5738    5.3564   -3.2527 O.3       1 ATP        -0.7845
      5 PB         -0.3456    5.5416   -1.7871 P.3       1 ATP         1.9068
      6 O1B         0.2824    6.9037   -1.7627 O.2       1 ATP        -0.8942
      7 O2B        -1.9300    5.5230   -2.1077 O.3       1 ATP        -0.8166
      8 O3B         0.2764    4.5152   -2.8699 O.3       1 ATP        -0.8194
      9 PA         -0.7384    5.0053    1.0868 P.3       1 ATP         1.5903
     10 O1A        -2.2516    5.0190    1.0856 O.co2     1 ATP        -0.8519
     11 O2A         0.0453    6.1849    1.6198 O.co2     1 ATP        -0.8519
     12 O3A        -0.2137    4.6826   -0.4254 O.3       1 ATP        -0.8093
     13 O5'        -0.2061    3.6558    1.8418 O.3       1 ATP        -0.5649
     14 C5'        -0.8811    2.4285    1.6206 C.3       1 ATP         0.1979
     15 C4'        -0.1994    1.3333    2.4288 C.3       1 ATP         0.1179
     16 O4'        -1.1285    0.2356    2.5840 O.3       1 ATP        -0.3878
     17 C3'         1.0324    0.7610    1.7344 C.3       1 ATP         0.1185
     18 O3'         1.9175    0.2377    2.7247 O.3       1 ATP        -0.5544
     19 C2'         0.4468   -0.3802    0.9263 C.3       1 ATP         0.0542
     20 O2'         1.3993   -1.3703    0.5961 O.3       1 ATP        -0.5831
     21 C1'        -0.6159   -0.9100    1.8769 C.3       1 ATP         0.2222
     22 N9         -1.7127   -1.6108    1.2130 N.pl3     1 ATP        -0.1887
     23 C8         -2.5485   -1.0808    0.2609 C.ar      1 ATP         0.4447
     24 N7         -3.4476   -1.9486   -0.1593 N.2       1 ATP        -0.6159
     25 C5         -3.1762   -3.0816    0.5530 C.ar      1 ATP         0.2195
     26 C6         -3.8510   -4.3579    0.5006 C.ar      1 ATP         0.6144
     27 N6         -4.8468   -4.5293   -0.2961 N.2       1 ATP        -0.8160
     28 N1         -3.2499   -5.2342    1.3937 N.pl3     1 ATP        -0.8611
     29 C2         -2.1646   -4.9275    2.2116 C.ar      1 ATP         0.6141
     30 N3         -1.5382   -3.7840    2.2778 N.2       1 ATP        -0.5913
     31 C4         -2.1054   -2.9018    1.4120 C.ar      1 ATP         0.0067
     32 HOG3        2.6078    5.9908   -2.5053 H         1 ATP         0.4313
     33 HOB2       -2.5413    6.0007   -1.5074 H         1 ATP         0.4716
     34 H5'1       -1.9255    2.5382    1.9293 H         1 ATP         0.0452
     35 H5'2       -0.8473    2.1932    0.5521 H         1 ATP         0.0452
     36 H4'         0.0403    1.7078    3.4343 H         1 ATP         0.0998
     37 H3'         1.5906    1.4859    1.1353 H         1 ATP         0.0544
     38 HO3'        2.6839   -0.1150    2.2479 H         1 ATP         0.3961
     39 H2'        -0.0017    0.0018    0.0005 H         1 ATP         0.0499
     40 HO2'        0.9369   -2.0558    0.0825 H         1 ATP         0.4045
     41 H1'        -0.1998   -1.6319    2.6178 H         1 ATP         0.0912
     42 H8         -2.4515   -0.0599   -0.0829 H         1 ATP         0.1090
     43 HN62       -5.1990   -5.4882   -0.2004 H         1 ATP         0.3694
     44 H2         -1.8555   -5.7783    2.8388 H         1 ATP         0.0371
     45 H45        -3.6312   -6.1750    1.4526 H         1 ATP         0.4283
@<TRIPOS>BOND
     1    1    2 2
     2    1    3 1
     3    1    4 1
     4    1    8 1
     5    4   32 1
     6    5    6 2
     7    5    7 1
     8    5    8 1
     9    5   12 1
    10    7   33 1
    11    9   10 2
    12    9   11 1
    13    9   12 1
    14    9   13 1
    15   13   14 1
    16   14   15 1
    17   14   34 1
    18   14   35 1
    19   15   16 1
    20   15   17 1
    21   15   36 1
    22   16   21 1
    23   17   18 1
    24   17   19 1
    25   17   37 1
    26   18   38 1
    27   19   20 1
    28   19   21 1
    29   19   39 1
    30   20   40 1
    31   21   22 1
    32   21   41 1
    33   22   23 ar
    34   22   31 ar
    35   23   24 ar
    36   23   42 1
    37   24   25 ar
    38   25   26 ar
    39   25   31 ar
    40   26   27 2
    41   26   28 ar
    42   27   43 1
    43   28   29 ar
    44   28   45 1
    45   29   30 ar
    46   29   44 1
    47   30   31 ar
@<TRIPOS>SUBSTRUCTURE
     1 ATP         1 GROUP 0 A     ****
@<TRIPOS>MOLECULE
[[[3,4-dihydroxy-5-(6-imino-1~{H}-purin-9-yl)tetrahydrofuran-2-yl]methoxy-oxido-phosphoryl]oxy-hydroxy-phosphoryl] hydrogen phosphate
   45    47     1     0     0
SMALL
USER_CHARGES

@<TRIPOS>ATOM
      1 PG          4.0249    5.6622    3.9083 P.3       1 ATP         1.5496
      2 O1G         4.0929    6.2938    5.2810 O.co2     1 ATP        -0.8494
      3 O2G         4.4949    6.4140    2.6830 O.co2     1 ATP        -0.8494
      4 O3G         4.7955    4.2236    3.9611 O.3       1 ATP        -0.7845
      5 PB          1.1201    5.9296    3.4744 P.3       1 ATP         1.9068
      6 O1B         0.7246    6.7834    4.6426 O.2       1 ATP        -0.8942
      7 O2B         1.3141    6.7238    2.0797 O.3       1 ATP        -0.8166
      8 O3B         2.5083    5.1205    3.6507 O.3       1 ATP        -0.8194
      9 PA         -1.4708    4.7755    2.6642 P.3       1 ATP         1.5903
     10 O1A        -1.5846    5.4669    1.3230 O.co2     1 ATP        -0.8519
     11 O2A        -2.2815    5.2504    3.8504 O.co2     1 ATP        -0.8519
     12 O3A         0.1015    4.7323    3.1024 O.3       1 ATP        -0.8093
     13 O5'        -1.7337    3.1724    2.4752 O.3       1 ATP        -0.5649
     14 C5'        -0.8811    2.4285    1.6206 C.3       1 ATP         0.1979
     15 C4'        -0.1994    1.3333    2.4288 C.3       1 ATP         0.1179
     16 O4'        -1.1285    0.2356    2.5840 O.3       1 ATP        -0.3878
     17 C3'         1.0324    0.7610    1.7344 C.3       1 ATP         0.1185
     18 O3'         1.9175    0.2377    2.7247 O.3       1 ATP        -0.5544
     19 C2'         0.4468   -0.3802    0.9263 C.3       1 ATP         0.0542
     20 O2'         1.3993   -1.3703    0.5961 O.3       1 ATP        -0.5831
     21 C1'        -0.6159   -0.9100    1.8769 C.3       1 ATP         0.2222
     22 N9         -1.7127   -1.6108    1.2130 N.pl3     1 ATP        -0.1887
     23 C8         -2.8662   -1.0361    0.7388 C.ar      1 ATP         0.4447
     24 N7         -3.6774   -1.9166    0.1867 N.2       1 ATP        -0.6159
     25 C5         -3.0159   -3.1045    0.3123 C.ar      1 ATP         0.2195
     26 C6         -3.4377   -4.4169   -0.1199 C.ar      1 ATP         0.6144
     27 N6         -4.5720   -4.5691   -0.7080 N.2       1 ATP        -0.8160
     28 N1         -2.4600   -5.3463    0.2071 N.pl3     1 ATP        -0.8611
     29 C2         -1.2595   -5.0554    0.8515 C.ar      1 ATP         0.6141
     30 N3         -0.8555   -3.8803    1.2516 N.2       1 ATP        -0.5913
     31 C4         -1.7946   -2.9457    0.9448 C.ar      1 ATP         0.0067
     32 HOG3        4.8387    3.6869    3.1412 H         1 ATP         0.4313
     33 HOB2        1.9873    7.4354    2.0284 H         1 ATP         0.4716
     34 H5'1       -1.4801    1.9928    0.8147 H         1 ATP         0.0452
     35 H5'2       -0.1369    3.1041    1.1872 H         1 ATP         0.0452
     36 H4'         0.0403    1.7078    3.4343 H         1 ATP         0.0998
     37 H3'         1.5906    1.4859    1.1353 H         1 ATP         0.0544
     38 HO3'        2.1521    0.9800    3.3017 H         1 ATP         0.3961
     39 H2'        -0.0017    0.0018    0.0005 H         1 ATP         0.0499
     40 HO2'        0.9369   -2.0558    0.0825 H         1 ATP         0.4045
     41 H1'        -0.1998   -1.6319    2.6178 H         1 ATP         0.0912
     42 H8         -3.0558    0.0252    0.8256 H         1 ATP         0.1090
     43 HN62       -4.7047   -5.5592   -0.9421 H         1 ATP         0.3694
     44 H2         -0.6372   -5.9505    1.0077 H         1 ATP         0.0371
     45 H45        -2.6338   -6.3155   -0.0469 H         1 ATP         0.4283
@<TRIPOS>BOND
     1    1    2 2
     2    1    3 1
     3    1    4 1
     4    1    8 1
     5    4   32 1
     6    5    6 2
     7    5    7 1
     8    5    8 1
     9    5   12 1
    10    7   33 1
    11    9   10 2
    12    9   11 1
    13    9   12 1
    14    9   13 1
    15   13   14 1
    16   14   15 1
    17   14   34 1
    18   14   35 1
    19   15   16 1
    20   15   17 1
    21   15   36 1
    22   16   21 1
    23   17   18 1
    24   17   19 1
    25   17   37 1
    26   18   38 1
    27   19   20 1
    28   19   21 1
    29   19   39 1
    30   20   40 1
    31   21   22 1
    32   21   41 1
    33   22   23 ar
    34   22   31 ar
    35   23   24 ar
    36   23   42 1
    37   24   25 ar
    38   25   26 ar
    39   25   31 ar
    40   26   27 2
    41   26   28 ar
    42   27   43 1
    43   28   29 ar
    44   28   45 1
    45   29   30 ar
    46   29   44 1
    47   30   31 ar
@<TRIPOS>SUBSTRUCTURE
     1 ATP         1 GROUP 0 A     ****
@<TRIPOS>MOLECULE
[[[3,4-dihydroxy-5-(6-imino-1~{H}-purin-9-yl)tetrahydrofuran-2-yl]methoxy-oxido-phosphoryl]oxy-hydroxy-phosphoryl] hydrogen phosphate
   45    47     1     0     0
SMALL
USER_CHARGES

@<TRIPOS>ATOM
      1 PG         -4.4100    7.6456    3.6344 P.3       1 ATP         1.5496
      2 O1G        -5.6928    7.6439    2.8331 O.co2     1 ATP        -0.8494
      3 O2G        -3.6889    8.9385    3.9438 O.co2     1 ATP        -0.8494
      4 O3G        -4.6736    6.8507    5.0362 O.3       1 ATP        -0.7845
      5 PB         -2.6041    6.6540    1.5242 P.3       1 ATP         1.9068
      6 O1B        -3.5045    6.6888    0.3249 O.2       1 ATP        -0.8942
      7 O2B        -1.6037    7.9159    1.6669 O.3       1 ATP        -0.8166
      8 O3B        -3.3598    6.6008    2.9521 O.3       1 ATP        -0.8194
      9 PA         -0.4664    4.8322    0.6228 P.3       1 ATP         1.5903
     10 O1A         0.6558    5.8467    0.5865 O.co2     1 ATP        -0.8519
     11 O2A        -1.1276    4.3642   -0.6553 O.co2     1 ATP        -0.8519
     12 O3A        -1.6298    5.3702    1.6343 O.3       1 ATP        -0.8093
     13 O5'         0.0180    3.5131    1.4595 O.3       1 ATP        -0.5649
     14 C5'        -0.8811    2.4285    1.6206 C.3       1 ATP         0.1979
     15 C4'        -0.1994    1.3333    2.4288 C.3       1 ATP         0.1179
     16 O4'        -1.1285    0.2356    2.5840 O.3       1 ATP        -0.3878
     17 C3'         1.0324    0.7610    1.7344 C.3       1 ATP         0.1185
     18 O3'         1.9175    0.2377    2.7247 O.3       1 ATP        -0.5544
     19 C2'         0.4468   -0.3802    0.9263 C.3       1 ATP         0.0542
     20 O2'         1.3993   -1.3703    0.5961 O.3       1 ATP        -0.5831
     21 C1'        -0.6159   -0.9100    1.8769 C.3       1 ATP         0.2222
     22 N9         -1.7127   -1.6108    1.2130 N.pl3     1 ATP        -0.1887
     23 C8         -1.7690   -2.9583    0.9549 C.ar      1 ATP         0.4447
     24 N7         -2.8827   -3.3076    0.3418 N.2       1 ATP        -0.6159
     25 C5         -3.5683   -2.1351    0.2017 C.ar      1 ATP         0.2195
     26 C6         -4.8617   -1.9185   -0.4044 C.ar      1 ATP         0.6144
     27 N6         -5.5166   -2.9094   -0.8994 N.2       1 ATP        -0.8160
     28 N1         -5.1836   -0.5701   -0.3344 N.pl3     1 ATP        -0.8611
     29 C2         -4.3821    0.4180    0.2330 C.ar      1 ATP         0.6141
     30 N3         -3.2117    0.2488    0.7860 N.2       1 ATP        -0.5913
     31 C4         -2.8672   -1.0657    0.7327 C.ar      1 ATP         0.0067
     32 HOG3       -3.9307    6.7651    5.6710 H         1 ATP         0.4313
     33 HOB2       -1.9842    8.8168    1.7440 H         1 ATP         0.4716
     34 H5'1       -1.7770    2.7851    2.1387 H         1 ATP         0.0452
     35 H5'2       -1.1653    2.0543    0.6320 H         1 ATP         0.0452
     36 H4'         0.0403    1.7078    3.4343 H         1 ATP         0.0998
     37 H3'         1.5906    1.4859    1.1353 H         1 ATP         0.0544
     38 HO3'        2.1521    0.9800    3.3017 H         1 ATP         0.3961
     39 H2'        -0.0017    0.0018    0.0005 H         1 ATP         0.0499
     40 HO2'        0.9369   -2.0558    0.0825 H         1 ATP         0.4045
     41 H1'        -0.1998   -1.6319    2.6178 H         1 ATP         0.0912
     42 H8         -0.9697   -3.6300    1.2371 H         1 ATP         0.1090
     43 HN62       -6.4060   -2.5723   -1.2840 H         1 ATP         0.3694
     44 H2         -4.8409    1.4176    0.1757 H         1 ATP         0.0371
     45 H45        -6.0768   -0.2826   -0.7263 H         1 ATP         0.4283
@<TRIPOS>BOND
     1    1    2 2
     2    1    3 1
     3    1    4 1
     4    1    8 1
     5    4   32 1
     6    5    6 2
     7    5    7 1
     8    5    8 1
     9    5   12 1
    10    7   33 1
    11    9   10 2
    12    9   11 1
    13    9   12 1
    14    9   13 1
    15   13   14 1
    16   14   15 1
    17   14   34 1
    18   14   35 1
    19   15   16 1
    20   15   17 1
    21   15   36 1
    22   16   21 1
    23   17   18 1
    24   17   19 1
    25   17   37 1
    26   18   38 1
    27   19   20 1
    28   19   21 1
    29   19   39 1
    30   20   40 1
    31   21   22 1
    32   21   41 1
    33   22   23 ar
    34   22   31 ar
    35   23   24 ar
    36   23   42 1
    37   24   25 ar
    38   25   26 ar
    39   25   31 ar
    40   26   27 2
    41   26   28 ar
    42   27   43 1
    43   28   29 ar
    44   28   45 1
    45   29   30 ar
    46   29   44 1
    47   30   31 ar
@<TRIPOS>SUBSTRUCTURE
     1 ATP         1 GROUP 0 A     ****
@<TRIPOS>MOLECULE
[[[3,4-dihydroxy-5-(6-imino-1~{H}-purin-9-yl)tetrahydrofuran-2-yl]methoxy-oxido-phosphoryl]oxy-hydroxy-phosphoryl] hydrogen phosphate
   45    47     1     0     0
SMALL
USER_CHARGES

@<TRIPOS>ATOM
      1 PG          1.6490    6.2326   -0.5427 P.3       1 ATP         1.5496
      2 O1G         1.7488    5.1334    0.4914 O.co2     1 ATP        -0.8494
      3 O2G         1.1216    7.6012   -0.1733 O.co2     1 ATP        -0.8494
      4 O3G         3.1098    6.4134   -1.2495 O.3       1 ATP        -0.7845
      5 PB         -0.7313    5.2391   -1.9726 P.3       1 ATP         1.9068
      6 O1B        -1.7277    6.3199   -1.6735 O.2       1 ATP        -0.8942
      7 O2B        -0.8204    4.6181   -3.4625 O.3       1 ATP        -0.8166
      8 O3B         0.8194    5.6727   -1.8304 O.3       1 ATP        -0.8194
      9 PA         -1.9975    2.8865   -0.7222 P.3       1 ATP         1.5903
     10 O1A        -2.2805    2.1154   -1.9931 O.co2     1 ATP        -0.8519
     11 O2A        -3.1070    3.6174    0.0022 O.co2     1 ATP        -0.8519
     12 O3A        -0.7874    3.9451   -1.0072 O.3       1 ATP        -0.8093
     13 O5'        -1.2434    1.9102    0.3514 O.3       1 ATP        -0.5649
     14 C5'        -0.8811    2.4285    1.6206 C.3       1 ATP         0.1979
     15 C4'        -0.1994    1.3333    2.4288 C.3       1 ATP         0.1179
     16 O4'        -1.1285    0.2356    2.5840 O.3       1 ATP        -0.3878
     17 C3'         1.0324    0.7610    1.7344 C.3       1 ATP         0.1185
     18 O3'         1.9175    0.2377    2.7247 O.3       1 ATP        -0.5544
     19 C2'         0.4468   -0.3802    0.9263 C.3       1 ATP         0.0542
     20 O2'         1.3993   -1.3703    0.5961 O.3       1 ATP        -0.5831
     21 C1'        -0.6159   -0.9100    1.8769 C.3       1 ATP         0.2222
     22 N9         -1.7127   -1.6108    1.2130 N.pl3     1 ATP        -0.1887
     23 C8         -2.8662   -1.0361    0.7388 C.ar      1 ATP         0.4447
     24 N7         -3.6774   -1.9166    0.1867 N.2       1 ATP        -0.6159
     25 C5         -3.0159   -3.1045    0.3123 C.ar      1 ATP         0.2195
     26 C6         -3.4377   -4.4169   -0.1199 C.ar      1 ATP         0.6144
     27 N6         -4.5720   -4.5691   -0.7080 N.2       1 ATP        -0.8160
     28 N1         -2.4600   -5.3463    0.2071 N.pl3     1 ATP        -0.8611
     29 C2         -1.2595   -5.0554    0.8515 C.ar      1 ATP         0.6141
     30 N3         -0.8555   -3.8803    1.2516 N.2       1 ATP        -0.5913
     31 C4         -1.7946   -2.9457    0.9448 C.ar      1 ATP         0.0067
     32 HOG3        3.2089    7.0944   -1.9486 H         1 ATP         0.4313
     33 HOB2       -1.6546    4.1885   -3.7485 H         1 ATP         0.4716
     34 H5'1       -0.2034    3.2760    1.4767 H         1 ATP         0.0452
     35 H5'2       -1.7842    2.7761    2.1322 H         1 ATP         0.0452
     36 H4'         0.0403    1.7078    3.4343 H         1 ATP         0.0998
     37 H3'         1.5906    1.4859    1.1353 H         1 ATP         0.0544
     38 HO3'        2.1521    0.9800    3.3017 H         1 ATP         0.3961
     39 H2'        -0.0017    0.0018    0.0005 H         1 ATP         0.0499
     40 HO2'        2.0953   -0.9375    0.0709 H         1 ATP         0.4045
     41 H1'        -0.1998   -1.6319    2.6178 H         1 ATP         0.0912
     42 H8         -3.0558    0.0252    0.8256 H         1 ATP         0.1090
     43 HN62       -4.7047   -5.5592   -0.9421 H         1 ATP         0.3694
     44 H2         -0.6372   -5.9505    1.0077 H         1 ATP         0.0371
     45 H45        -2.6338   -6.3155   -0.0469 H         1 ATP         0.4283
@<TRIPOS>BOND
     1    1    2 2
     2    1    3 1
     3    1    4 1
     4    1    8 1
     5    4   32 1
     6    5    6 2
     7    5    7 1
     8    5    8 1
     9    5   12 1
    10    7   33 1
    11    9   10 2
    12    9   11 1
    13    9   12 1
    14    9   13 1
    15   13   14 1
    16   14   15 1
    17   14   34 1
    18   14   35 1
    19   15   16 1
    20   15   17 1
    21   15   36 1
    22   16   21 1
    23   17   18 1
    24   17   19 1
    25   17   37 1
    26   18   38 1
    27   19   20 1
    28   19   21 1
    29   19   39 1
    30   20   40 1
    31   21   22 1
    32   21   41 1
    33   22   23 ar
    34   22   31 ar
    35   23   24 ar
    36   23   42 1
    37   24   25 ar
    38   25   26 ar
    39   25   31 ar
    40   26   27 2
    41   26   28 ar
    42   27   43 1
    43   28   29 ar
    44   28   45 1
    45   29   30 ar
    46   29   44 1
    47   30   31 ar
@<TRIPOS>SUBSTRUCTURE
     1 ATP         1 GROUP 0 A     ****
@<TRIPOS>MOLECULE
[[[3,4-dihydroxy-5-(6-imino-1~{H}-purin-9-yl)tetrahydrofuran-2-yl]methoxy-oxido-phosphoryl]oxy-hydroxy-phosphoryl] hydrogen phosphate
   45    47     1     0     0
SMALL
USER_CHARGES

@<TRIPOS>ATOM
      1 PG          0.0433    6.6361    0.9203 P.3       1 ATP         1.5496
      2 O1G        -0.1251    7.6641    2.0170 O.co2     1 ATP        -0.8494
      3 O2G         0.2298    7.0596   -0.5196 O.co2     1 ATP        -0.8494
      4 O3G         1.2684    5.6374    1.3298 O.3       1 ATP        -0.7845
      5 PB         -2.7678    5.7626    0.7385 P.3       1 ATP         1.9068
      6 O1B        -3.4464    6.7662    1.6232 O.2       1 ATP        -0.8942
      7 O2B        -2.8533    6.0765   -0.8451 O.3       1 ATP        -0.8166
      8 O3B        -1.1856    5.5671    1.0053 O.3       1 ATP        -0.8194
      9 PA         -3.3346    3.2336    2.1469 P.3       1 ATP         1.5903
     10 O1A        -3.8072    1.8724    1.6847 O.co2     1 ATP        -0.8519
     11 O2A        -4.0245    3.9444    3.2909 O.co2     1 ATP        -0.8519
     12 O3A        -3.2996    4.2424    0.8635 O.3       1 ATP        -0.8093
     13 O5'        -1.7337    3.1724    2.4752 O.3       1 ATP        -0.5649
     14 C5'        -0.8811    2.4285    1.6206 C.3       1 ATP         0.1979
     15 C4'        -0.1994    1.3333    2.4288 C.3       1 ATP         0.1179
     16 O4'        -1.1285    0.2356    2.5840 O.3       1 ATP        -0.3878
     17 C3'         1.0324    0.7610    1.7344 C.3       1 ATP         0.1185
     18 O3'         1.9175    0.2377    2.7247 O.3       1 ATP        -0.5544
     19 C2'         0.4468   -0.3802    0.9263 C.3       1 ATP         0.0542
     20 O2'         1.3993   -1.3703    0.5961 O.3       1 ATP        -0.5831
     21 C1'        -0.6159   -0.9100    1.8769 C.3       1 ATP         0.2222
     22 N9         -1.7127   -1.6108    1.2130 N.pl3     1 ATP        -0.1887
     23 C8         -2.5485   -1.0808    0.2609 C.ar      1 ATP         0.4447
     24 N7         -3.4476   -1.9486   -0.1593 N.2       1 ATP        -0.6159
     25 C5         -3.1762   -3.0816    0.5530 C.ar      1 ATP         0.2195
     26 C6         -3.8510   -4.3579    0.5006 C.ar      1 ATP         0.6144
     27 N6         -4.8468   -4.5293   -0.2961 N.2       1 ATP        -0.8160
     28 N1         -3.2499   -5.2342    1.3937 N.pl3     1 ATP        -0.8611
     29 C2         -2.1646   -4.9275    2.2116 C.ar      1 ATP         0.6141
     30 N3         -1.5382   -3.7840    2.2778 N.2       1 ATP        -0.5913
     31 C4         -2.1054   -2.9018    1.4120 C.ar      1 ATP         0.0067
     32 HOG3        1.5032    4.9102    0.7147 H         1 ATP         0.4313
     33 HOB2       -2.4715    6.9141   -1.1842 H         1 ATP         0.4716
     34 H5'1       -1.4801    1.9928    0.8147 H         1 ATP         0.0452
     35 H5'2       -0.1369    3.1041    1.1872 H         1 ATP         0.0452
     36 H4'         0.0403    1.7078    3.4343 H         1 ATP         0.0998
     37 H3'         1.5906    1.4859    1.1353 H         1 ATP         0.0544
     38 HO3'        2.6839   -0.1150    2.2479 H         1 ATP         0.3961
     39 H2'        -0.0017    0.0018    0.0005 H         1 ATP         0.0499
     40 HO2'        2.0953   -0.9375    0.0709 H         1 ATP         0.4045
     41 H1'        -0.1998   -1.6319    2.6178 H         1 ATP         0.0912
     42 H8         -2.4515   -0.0599   -0.0829 H         1 ATP         0.1090
     43 HN62       -5.1990   -5.4882   -0.2004 H         1 ATP         0.3694
     44 H2         -1.8555   -5.7783    2.8388 H         1 ATP         0.0371
     45 H45        -3.6312   -6.1750    1.4526 H         1 ATP         0.4283
@<TRIPOS>BOND
     1    1    2 2
     2    1    3 1
     3    1    4 1
     4    1    8 1
     5    4   32 1
     6    5    6 2
     7    5    7 1
     8    5    8 1
     9    5   12 1
    10    7   33 1
    11    9   10 2
    12    9   11 1
    13    9   12 1
    14    9   13 1
    15   13   14 1
    16   14   15 1
    17   14   34 1
    18   14   35 1
    19   15   16 1
    20   15   17 1
    21   15   36 1
    22   16   21 1
    23   17   18 1
    24   17   19 1
    25   17   37 1
    26   18   38 1
    27   19   20 1
    28   19   21 1
    29   19   39 1
    30   20   40 1
    31   21   22 1
    32   21   41 1
    33   22   23 ar
    34   22   31 ar
    35   23   24 ar
    36   23   42 1
    37   24   25 ar
    38   25   26 ar
    39   25   31 ar
    40   26   27 2
    41   26   28 ar
    42   27   43 1
    43   28   29 ar
    44   28   45 1
    45   29   30 ar
    46   29   44 1
    47   30   31 ar
@<TRIPOS>SUBSTRUCTURE
     1 ATP         1 GROUP 0 A     ****
@<TRIPOS>MOLECULE
[[[3,4-dihydroxy-5-(6-imino-1~{H}-purin-9-yl)tetrahydrofuran-2-yl]methoxy-oxido-phosphoryl]oxy-hydroxy-phosphoryl] hydrogen phosphate
   45    47     1     0     0
SMALL
USER_CHARGES

@<TRIPOS>ATOM
      1 PG          1.6606    6.0547    3.7670 P.3       1 ATP         1.5496
      2 O1G         2.2248    6.8500    2.6107 O.co2     1 ATP        -0.8494
      3 O2G         1.5414    4.5490    3.6895 O.co2     1 ATP        -0.8494
      4 O3G         2.4945    6.4399    5.1169 O.3       1 ATP        -0.7845
      5 PB         -1.1858    6.7202    3.3754 P.3       1 ATP         1.9068
      6 O1B        -2.3191    7.3943    4.0906 O.2       1 ATP        -0.8942
      7 O2B        -0.7884    7.3741    1.9513 O.3       1 ATP        -0.8166
      8 O3B         0.2137    6.6820    4.1833 O.3       1 ATP        -0.8194
      9 PA         -2.5400    4.4094    2.1394 P.3       1 ATP         1.5903
     10 O1A        -2.3768    4.8333    0.6960 O.co2     1 ATP        -0.8519
     11 O2A        -3.8714    4.5574    2.8431 O.co2     1 ATP        -0.8519
     12 O3A        -1.3993    5.1547    3.0391 O.3       1 ATP        -0.8093
     13 O5'        -2.0402    2.8619    2.3130 O.3       1 ATP        -0.5649
     14 C5'        -0.8811    2.4285    1.6206 C.3       1 ATP         0.1979
     15 C4'        -0.1994    1.3333    2.4288 C.3       1 ATP         0.1179
     16 O4'        -1.1285    0.2356    2.5840 O.3       1 ATP        -0.3878
     17 C3'         1.0324    0.7610    1.7344 C.3       1 ATP         0.1185
     18 O3'         1.9175    0.2377    2.7247 O.3       1 ATP        -0.5544
     19 C2'         0.4468   -0.3802    0.9263 C.3       1 ATP         0.0542
     20 O2'         1.3993   -1.3703    0.5961 O.3       1 ATP        -0.5831
     21 C1'        -0.6159   -0.9100    1.8769 C.3       1 ATP         0.2222
     22 N9         -1.7127   -1.6108    1.2130 N.pl3     1 ATP        -0.1887
     23 C8         -1.7690   -2.9583    0.9549 C.ar      1 ATP         0.4447
     24 N7         -2.8827   -3.3076    0.3418 N.2       1 ATP        -0.6159
     25 C5         -3.5683   -2.1351    0.2017 C.ar      1 ATP         0.2195
     26 C6         -4.8617   -1.9185   -0.4044 C.ar      1 ATP         0.6144
     27 N6         -5.5166   -2.9094   -0.8994 N.2       1 ATP        -0.8160
     28 N1         -5.1836   -0.5701   -0.3344 N.pl3     1 ATP        -0.8611
     29 C2         -4.3821    0.4180    0.2330 C.ar      1 ATP         0.6141
     30 N3         -3.2117    0.2488    0.7860 N.2       1 ATP        -0.5913
     31 C4         -2.8672   -1.0657    0.7327 C.ar      1 ATP         0.0067
     32 HOG3        2.2460    6.0035    5.9595 H         1 ATP         0.4313
     33 HOB2       -0.0544    6.9775    1.4353 H         1 ATP         0.4716
     34 H5'1       -1.1769    2.0503    0.6369 H         1 ATP         0.0452
     35 H5'2       -0.2081    3.2815    1.4877 H         1 ATP         0.0452
     36 H4'         0.0403    1.7078    3.4343 H         1 ATP         0.0998
     37 H3'         1.5906    1.4859    1.1353 H         1 ATP         0.0544
     38 HO3'        2.1521    0.9800    3.3017 H         1 ATP         0.3961
     39 H2'        -0.0017    0.0018    0.0005 H         1 ATP         0.0499
     40 HO2'        2.0953   -0.9375    0.0709 H         1 ATP         0.4045
     41 H1'        -0.1998   -1.6319    2.6178 H         1 ATP         0.0912
     42 H8         -0.9697   -3.6300    1.2371 H         1 ATP         0.1090
     43 HN62       -6.4060   -2.5723   -1.2840 H         1 ATP         0.3694
     44 H2         -4.8409    1.4176    0.1757 H         1 ATP         0.0371
     45 H45        -6.0768   -0.2826   -0.7263 H         1 ATP         0.4283
@<TRIPOS>BOND
     1    1    2 2
     2    1    3 1
     3    1    4 1
     4    1    8 1
     5    4   32 1
     6    5    6 2
     7    5    7 1
     8    5    8 1
     9    5   12 1
    10    7   33 1
    11    9   10 2
    12    9   11 1
    13    9   12 1
    14    9   13 1
    15   13   14 1
    16   14   15 1
    17   14   34 1
    18   14   35 1
    19   15   16 1
    20   15   17 1
    21   15   36 1
    22   16   21 1
    23   17   18 1
    24   17   19 1
    25   17   37 1
    26   18   38 1
    27   19   20 1
    28   19   21 1
    29   19   39 1
    30   20   40 1
    31   21   22 1
    32   21   41 1
    33   22   23 ar
    34   22   31 ar
    35   23   24 ar
    36   23   42 1
    37   24   25 ar
    38   25   26 ar
    39   25   31 ar
    40   26   27 2
    41   26   28 ar
    42   27   43 1
    43   28   29 ar
    44   28   45 1
    45   29   30 ar
    46   29   44 1
    47   30   31 ar
@<TRIPOS>SUBSTRUCTURE
     1 ATP         1 GROUP 0 A     ****
@<TRIPOS>MOLECULE
[[[3,4-dihydroxy-5-(6-imino-1~{H}-purin-9-yl)tetrahydrofuran-2-yl]methoxy-oxido-phosphoryl]oxy-hydroxy-phosphoryl] hydrogen phosphate
   45    47     1     0     0
SMALL
USER_CHARGES

@<TRIPOS>ATOM
      1 PG         -6.5895    3.2057   -1.3745 P.3       1 ATP         1.5496
      2 O1G        -6.3835    3.7085   -2.7860 O.co2     1 ATP        -0.8494
      3 O2G        -7.7695    3.6685   -0.5493 O.co2     1 ATP        -0.8494
      4 O3G        -6.5831    1.5731   -1.3998 O.3       1 ATP        -0.7845
      5 PB         -4.4996    4.8142   -0.0544 P.3       1 ATP         1.9068
      6 O1B        -4.0893    5.7343   -1.1658 O.2       1 ATP        -0.8942
      7 O2B        -5.5379    5.4469    1.0111 O.3       1 ATP        -0.8166
      8 O3B        -5.2189    3.4447   -0.5234 O.3       1 ATP        -0.8194
      9 PA         -3.3346    3.2336    2.1469 P.3       1 ATP         1.5903
     10 O1A        -3.8072    1.8724    1.6847 O.co2     1 ATP        -0.8519
     11 O2A        -4.0245    3.9444    3.2909 O.co2     1 ATP        -0.8519
     12 O3A        -3.2996    4.2424    0.8635 O.3       1 ATP        -0.8093
     13 O5'        -1.7337    3.1724    2.4752 O.3       1 ATP        -0.5649
     14 C5'        -0.8811    2.4285    1.6206 C.3       1 ATP         0.1979
     15 C4'        -0.1994    1.3333    2.4288 C.3       1 ATP         0.1179
     16 O4'        -1.1285    0.2356    2.5840 O.3       1 ATP        -0.3878
     17 C3'         1.0324    0.7610    1.7344 C.3       1 ATP         0.1185
     18 O3'         1.9175    0.2377    2.7247 O.3       1 ATP        -0.5544
     19 C2'         0.4468   -0.3802    0.9263 C.3       1 ATP         0.0542
     20 O2'         1.3993   -1.3703    0.5961 O.3       1 ATP        -0.5831
     21 C1'        -0.6159   -0.9100    1.8769 C.3       1 ATP         0.2222
     22 N9         -1.7127   -1.6108    1.2130 N.pl3     1 ATP        -0.1887
     23 C8         -2.5485   -1.0808    0.2609 C.ar      1 ATP         0.4447
     24 N7         -3.4476   -1.9486   -0.1593 N.2       1 ATP        -0.6159
     25 C5         -3.1762   -3.0816    0.5530 C.ar      1 ATP         0.2195
     26 C6         -3.8510   -4.3579    0.5006 C.ar      1 ATP         0.6144
     27 N6         -4.8468   -4.5293   -0.2961 N.2       1 ATP        -0.8160
     28 N1         -3.2499   -5.2342    1.3937 N.pl3     1 ATP        -0.8611
     29 C2         -2.1646   -4.9275    2.2116 C.ar      1 ATP         0.6141
     30 N3         -1.5382   -3.7840    2.2778 N.2       1 ATP        -0.5913
     31 C4         -2.1054   -2.9018    1.4120 C.ar      1 ATP         0.0067
     32 HOG3       -6.7063    1.0927   -0.5535 H         1 ATP         0.4313
     33 HOB2       -6.4119    5.7593    0.6938 H         1 ATP         0.4716
     34 H5'1       -1.4801    1.9928    0.8147 H         1 ATP         0.0452
     35 H5'2       -0.1369    3.1041    1.1872 H         1 ATP         0.0452
     36 H4'         0.0403    1.7078    3.4343 H         1 ATP         0.0998
     37 H3'         1.5906    1.4859    1.1353 H         1 ATP         0.0544
     38 HO3'        2.6839   -0.1150    2.2479 H         1 ATP         0.3961
     39 H2'        -0.0017    0.0018    0.0005 H         1 ATP         0.0499
     40 HO2'        2.0953   -0.9375    0.0709 H         1 ATP         0.4045
     41 H1'        -0.1998   -1.6319    2.6178 H         1 ATP         0.0912
     42 H8         -2.4515   -0.0599   -0.0829 H         1 ATP         0.1090
     43 HN62       -5.1990   -5.4882   -0.2004 H         1 ATP         0.3694
     44 H2         -1.8555   -5.7783    2.8388 H         1 ATP         0.0371
     45 H45        -3.6312   -6.1750    1.4526 H         1 ATP         0.4283
@<TRIPOS>BOND
     1    1    2 2
     2    1    3 1
     3    1    4 1
     4    1    8 1
     5    4   32 1
     6    5    6 2
     7    5    7 1
     8    5    8 1
     9    5   12 1
    10    7   33 1
    11    9   10 2
    12    9   11 1
    13    9   12 1
    14    9   13 1
    15   13   14 1
    16   14   15 1
    17   14   34 1
    18   14   35 1
    19   15   16 1
    20   15   17 1
    21   15   36 1
    22   16   21 1
    23   17   18 1
    24   17   19 1
    25   17   37 1
    26   18   38 1
    27   19   20 1
    28   19   21 1
    29   19   39 1
    30   20   40 1
    31   21   22 1
    32   21   41 1
    33   22   23 ar
    34   22   31 ar
    35   23   24 ar
    36   23   42 1
    37   24   25 ar
    38   25   26 ar
    39   25   31 ar
    40   26   27 2
    41   26   28 ar
    42   27   43 1
    43   28   29 ar
    44   28   45 1
    45   29   30 ar
    46   29   44 1
    47   30   31 ar
@<TRIPOS>SUBSTRUCTURE
     1 ATP         1 GROUP 0 A     ****
@<TRIPOS>MOLECULE
[[[3,4-dihydroxy-5-(6-imino-1~{H}-purin-9-yl)tetrahydrofuran-2-yl]methoxy-oxido-phosphoryl]oxy-hydroxy-phosphoryl] hydrogen phosphate
   45    47     1     0     0
SMALL
USER_CHARGES

@<TRIPOS>ATOM
      1 PG         -4.3173    5.4179   -0.9526 P.3       1 ATP         1.5496
      2 O1G        -4.6564    5.1891    0.5036 O.co2     1 ATP        -0.8494
      3 O2G        -4.3746    4.2835   -1.9512 O.co2     1 ATP        -0.8494
      4 O3G        -5.2352    6.6474   -1.5114 O.3       1 ATP        -0.7845
      5 PB         -1.3860    5.5812   -0.6728 P.3       1 ATP         1.9068
      6 O1B        -0.9487    4.3648   -1.4340 O.2       1 ATP        -0.8942
      7 O2B        -0.4322    6.8755   -0.8426 O.3       1 ATP        -0.8166
      8 O3B        -2.8567    6.1373   -1.0479 O.3       1 ATP        -0.8194
      9 PA         -0.3961    4.9845    2.0411 P.3       1 ATP         1.5903
     10 O1A        -1.0788    4.8231    3.3819 O.co2     1 ATP        -0.8519
     11 O2A         0.7940    5.9060    1.8851 O.co2     1 ATP        -0.8519
     12 O3A        -1.5153    5.3999    0.9272 O.3       1 ATP        -0.8093
     13 O5'         0.0180    3.5131    1.4595 O.3       1 ATP        -0.5649
     14 C5'        -0.8811    2.4285    1.6206 C.3       1 ATP         0.1979
     15 C4'        -0.1994    1.3333    2.4288 C.3       1 ATP         0.1179
     16 O4'        -1.1285    0.2356    2.5840 O.3       1 ATP        -0.3878
     17 C3'         1.0324    0.7610    1.7344 C.3       1 ATP         0.1185
     18 O3'         1.9175    0.2377    2.7247 O.3       1 ATP        -0.5544
     19 C2'         0.4468   -0.3802    0.9263 C.3       1 ATP         0.0542
     20 O2'         1.3993   -1.3703    0.5961 O.3       1 ATP        -0.5831
     21 C1'        -0.6159   -0.9100    1.8769 C.3       1 ATP         0.2222
     22 N9         -1.7127   -1.6108    1.2130 N.pl3     1 ATP        -0.1887
     23 C8         -1.7690   -2.9583    0.9549 C.ar      1 ATP         0.4447
     24 N7         -2.8827   -3.3076    0.3418 N.2       1 ATP        -0.6159
     25 C5         -3.5683   -2.1351    0.2017 C.ar      1 ATP         0.2195
     26 C6         -4.8617   -1.9185   -0.4044 C.ar      1 ATP         0.6144
     27 N6         -5.5166   -2.9094   -0.8994 N.2       1 ATP        -0.8160
     28 N1         -5.1836   -0.5701   -0.3344 N.pl3     1 ATP        -0.8611
     29 C2         -4.3821    0.4180    0.2330 C.ar      1 ATP         0.6141
     30 N3         -3.2117    0.2488    0.7860 N.2       1 ATP        -0.5913
     31 C4         -2.8672   -1.0657    0.7327 C.ar      1 ATP         0.0067
     32 HOG3       -5.1312    6.9190   -2.4482 H         1 ATP         0.4313
     33 HOB2        0.5078    6.8113   -0.5698 H         1 ATP         0.4716
     34 H5'1       -1.7770    2.7851    2.1387 H         1 ATP         0.0452
     35 H5'2       -1.1653    2.0543    0.6320 H         1 ATP         0.0452
     36 H4'         0.0403    1.7078    3.4343 H         1 ATP         0.0998
     37 H3'         1.5906    1.4859    1.1353 H         1 ATP         0.0544
     38 HO3'        2.6839   -0.1150    2.2479 H         1 ATP         0.3961
     39 H2'        -0.0017    0.0018    0.0005 H         1 ATP         0.0499
     40 HO2'        2.0953   -0.9375    0.0709 H         1 ATP         0.4045
     41 H1'        -0.1998   -1.6319    2.6178 H         1 ATP         0.0912
     42 H8         -0.9697   -3.6300    1.2371 H         1 ATP         0.1090
     43 HN62       -6.4060   -2.5723   -1.2840 H         1 ATP         0.3694
     44 H2         -4.8409    1.4176    0.1757 H         1 ATP         0.0371
     45 H45        -6.0768   -0.2826   -0.7263 H         1 ATP         0.4283
@<TRIPOS>BOND
     1    1    2 2
     2    1    3 1
     3    1    4 1
     4    1    8 1
     5    4   32 1
     6    5    6 2
     7    5    7 1
     8    5    8 1
     9    5   12 1
    10    7   33 1
    11    9   10 2
    12    9   11 1
    13    9   12 1
    14    9   13 1
    15   13   14 1
    16   14   15 1
    17   14   34 1
    18   14   35 1
    19   15   16 1
    20   15   17 1
    21   15   36 1
    22   16   21 1
    23   17   18 1
    24   17   19 1
    25   17   37 1
    26   18   38 1
    27   19   20 1
    28   19   21 1
    29   19   39 1
    30   20   40 1
    31   21   22 1
    32   21   41 1
    33   22   23 ar
    34   22   31 ar
    35   23   24 ar
    36   23   42 1
    37   24   25 ar
    38   25   26 ar
    39   25   31 ar
    40   26   27 2
    41   26   28 ar
    42   27   43 1
    43   28   29 ar
    44   28   45 1
    45   29   30 ar
    46   29   44 1
    47   30   31 ar
@<TRIPOS>SUBSTRUCTURE
     1 ATP         1 GROUP 0 A     ****
@<TRIPOS>MOLECULE
[[[3,4-dihydroxy-5-(6-imino-1~{H}-purin-9-yl)tetrahydrofuran-2-yl]methoxy-oxido-phosphoryl]oxy-hydroxy-phosphoryl] hydrogen phosphate
   45    47     1     0     0
SMALL
USER_CHARGES

@<TRIPOS>ATOM
      1 PG         -3.8830    5.7610   -2.8901 P.3       1 ATP         1.5496
      2 O1G        -4.1653    4.8164   -4.0371 O.co2     1 ATP        -0.8494
      3 O2G        -2.8201    6.8305   -3.0080 O.co2     1 ATP        -0.8494
      4 O3G        -5.2851    6.4703   -2.4459 O.3       1 ATP        -0.7845
      5 PB         -4.4970    3.7294   -0.8423 P.3       1 ATP         1.9068
      6 O1B        -5.8725    4.1479   -0.4145 O.2       1 ATP        -0.8942
      7 O2B        -4.4507    2.5153   -1.9088 O.3       1 ATP        -0.8166
      8 O3B        -3.6104    4.8867   -1.5406 O.3       1 ATP        -0.8194
      9 PA         -2.9646    4.0417    1.6588 P.3       1 ATP         1.5903
     10 O1A        -4.1352    4.3308    2.5732 O.co2     1 ATP        -0.8519
     11 O2A        -2.0510    5.1559    1.1963 O.co2     1 ATP        -0.8519
     12 O3A        -3.5097    3.2459    0.3413 O.3       1 ATP        -0.8093
     13 O5'        -2.0402    2.8619    2.3130 O.3       1 ATP        -0.5649
     14 C5'        -0.8811    2.4285    1.6206 C.3       1 ATP         0.1979
     15 C4'        -0.1994    1.3333    2.4288 C.3       1 ATP         0.1179
     16 O4'        -1.1285    0.2356    2.5840 O.3       1 ATP        -0.3878
     17 C3'         1.0324    0.7610    1.7344 C.3       1 ATP         0.1185
     18 O3'         1.9175    0.2377    2.7247 O.3       1 ATP        -0.5544
     19 C2'         0.4468   -0.3802    0.9263 C.3       1 ATP         0.0542
     20 O2'         1.3993   -1.3703    0.5961 O.3       1 ATP        -0.5831
     21 C1'        -0.6159   -0.9100    1.8769 C.3       1 ATP         0.2222
     22 N9         -1.7127   -1.6108    1.2130 N.pl3     1 ATP        -0.1887
     23 C8         -1.5982   -2.7455    0.4481 C.ar      1 ATP         0.4447
     24 N7         -2.7593   -3.1533   -0.0249 N.2       1 ATP        -0.6159
     25 C5         -3.6547   -2.2420    0.4573 C.ar      1 ATP         0.2195
     26 C6         -5.0842   -2.1942    0.2543 C.ar      1 ATP         0.6144
     27 N6         -5.6648   -3.0919   -0.4618 N.2       1 ATP        -0.8160
     28 N1         -5.6087   -1.0978    0.9248 N.pl3     1 ATP        -0.8611
     29 C2         -4.8689   -0.1873    1.6760 C.ar      1 ATP         0.6141
     30 N3         -3.5787   -0.2081    1.8745 N.2       1 ATP        -0.5913
     31 C4         -3.0344   -1.2737    1.2284 C.ar      1 ATP         0.0067
     32 HOG3       -5.2681    7.1159   -1.7075 H         1 ATP         0.4313
     33 HOB2       -4.8906    2.6302   -2.7780 H         1 ATP         0.4716
     34 H5'1       -1.1769    2.0503    0.6369 H         1 ATP         0.0452
     35 H5'2       -0.2081    3.2815    1.4877 H         1 ATP         0.0452
     36 H4'         0.0403    1.7078    3.4343 H         1 ATP         0.0998
     37 H3'         1.5906    1.4859    1.1353 H         1 ATP         0.0544
     38 HO3'        2.6839   -0.1150    2.2479 H         1 ATP         0.3961
     39 H2'        -0.0017    0.0018    0.0005 H         1 ATP         0.0499
     40 HO2'        2.0953   -0.9375    0.0709 H         1 ATP         0.4045
     41 H1'        -0.1998   -1.6319    2.6178 H         1 ATP         0.0912
     42 H8         -0.6448   -3.2254    0.2735 H         1 ATP         0.1090
     43 HN62       -6.6723   -2.9015   -0.4966 H         1 ATP         0.3694
     44 H2         -5.4961    0.6026    2.1182 H         1 ATP         0.0371
     45 H45        -6.6130   -0.9504    0.8642 H         1 ATP         0.4283
@<TRIPOS>BOND
     1    1    2 2
     2    1    3 1
     3    1    4 1
     4    1    8 1
     5    4   32 1
     6    5    6 2
     7    5    7 1
     8    5    8 1
     9    5   12 1
    10    7   33 1
    11    9   10 2
    12    9   11 1
    13    9   12 1
    14    9   13 1
    15   13   14 1
    16   14   15 1
    17   14   34 1
    18   14   35 1
    19   15   16 1
    20   15   17 1
    21   15   36 1
    22   16   21 1
    23   17   18 1
    24   17   19 1
    25   17   37 1
    26   18   38 1
    27   19   20 1
    28   19   21 1
    29   19   39 1
    30   20   40 1
    31   21   22 1
    32   21   41 1
    33   22   23 ar
    34   22   31 ar
    35   23   24 ar
    36   23   42 1
    37   24   25 ar
    38   25   26 ar
    39   25   31 ar
    40   26   27 2
    41   26   28 ar
    42   27   43 1
    43   28   29 ar
    44   28   45 1
    45   29   30 ar
    46   29   44 1
    47   30   31 ar
@<TRIPOS>SUBSTRUCTURE
     1 ATP         1 GROUP 0 A     ****
@<TRIPOS>MOLECULE
[[[3,4-dihydroxy-5-(6-imino-1~{H}-purin-9-yl)tetrahydrofuran-2-yl]methoxy-oxido-phosphoryl]oxy-hydroxy-phosphoryl] hydrogen phosphate
   45    47     1     0     0
SMALL
USER_CHARGES

@<TRIPOS>ATOM
      1 PG         -3.7522    7.0526    0.4076 P.3       1 ATP         1.5496
      2 O1G        -3.1834    5.8996   -0.3891 O.co2     1 ATP        -0.8494
      3 O2G        -3.3926    8.4823    0.0701 O.co2     1 ATP        -0.8494
      4 O3G        -5.3794    6.9176    0.4251 O.3       1 ATP        -0.7845
      5 PB         -2.0756    6.7569    2.8157 P.3       1 ATP         1.9068
      6 O1B        -1.2769    8.0262    2.7769 O.2       1 ATP        -0.8942
      7 O2B        -2.5176    6.2702    4.2927 O.3       1 ATP        -0.8166
      8 O3B        -3.4658    6.7919    1.9919 O.3       1 ATP        -0.8194
      9 PA          0.0330    4.7082    2.5759 P.3       1 ATP         1.5903
     10 O1A        -0.1147    4.1095    3.9578 O.co2     1 ATP        -0.8519
     11 O2A         1.1818    5.6395    2.2553 O.co2     1 ATP        -0.8519
     12 O3A        -1.3612    5.4575    2.1750 O.3       1 ATP        -0.8093
     13 O5'         0.0180    3.5131    1.4595 O.3       1 ATP        -0.5649
     14 C5'        -0.8811    2.4285    1.6206 C.3       1 ATP         0.1979
     15 C4'        -0.1994    1.3333    2.4288 C.3       1 ATP         0.1179
     16 O4'        -1.1285    0.2356    2.5840 O.3       1 ATP        -0.3878
     17 C3'         1.0324    0.7610    1.7344 C.3       1 ATP         0.1185
     18 O3'         1.9175    0.2377    2.7247 O.3       1 ATP        -0.5544
     19 C2'         0.4468   -0.3802    0.9263 C.3       1 ATP         0.0542
     20 O2'         1.3993   -1.3703    0.5961 O.3       1 ATP        -0.5831
     21 C1'        -0.6159   -0.9100    1.8769 C.3       1 ATP         0.2222
     22 N9         -1.7127   -1.6108    1.2130 N.pl3     1 ATP        -0.1887
     23 C8         -2.8662   -1.0361    0.7388 C.ar      1 ATP         0.4447
     24 N7         -3.6774   -1.9166    0.1867 N.2       1 ATP        -0.6159
     25 C5         -3.0159   -3.1045    0.3123 C.ar      1 ATP         0.2195
     26 C6         -3.4377   -4.4169   -0.1199 C.ar      1 ATP         0.6144
     27 N6         -4.5720   -4.5691   -0.7080 N.2       1 ATP        -0.8160
     28 N1         -2.4600   -5.3463    0.2071 N.pl3     1 ATP        -0.8611
     29 C2         -1.2595   -5.0554    0.8515 C.ar      1 ATP         0.6141
     30 N3         -0.8555   -3.8803    1.2516 N.2       1 ATP        -0.5913
     31 C4         -1.7946   -2.9457    0.9448 C.ar      1 ATP         0.0067
     32 HOG3       -5.8988    7.5965    0.9062 H         1 ATP         0.4313
     33 HOB2       -1.8217    6.0745    4.9558 H         1 ATP         0.4716
     34 H5'1       -1.7770    2.7851    2.1387 H         1 ATP         0.0452
     35 H5'2       -1.1653    2.0543    0.6320 H         1 ATP         0.0452
     36 H4'         0.0403    1.7078    3.4343 H         1 ATP         0.0998
     37 H3'         1.5906    1.4859    1.1353 H         1 ATP         0.0544
     38 HO3'        2.6839   -0.1150    2.2479 H         1 ATP         0.3961
     39 H2'        -0.0017    0.0018    0.0005 H         1 ATP         0.0499
     40 HO2'        2.0953   -0.9375    0.0709 H         1 ATP         0.4045
     41 H1'        -0.1998   -1.6319    2.6178 H         1 ATP         0.0912
     42 H8         -3.0558    0.0252    0.8256 H         1 ATP         0.1090
     43 HN62       -4.7047   -5.5592   -0.9421 H         1 ATP         0.3694
     44 H2         -0.6372   -5.9505    1.0077 H         1 ATP         0.0371
     45 H45        -2.6338   -6.3155   -0.0469 H         1 ATP         0.4283
@<TRIPOS>BOND
     1    1    2 2
     2    1    3 1
     3    1    4 1
     4    1    8 1
     5    4   32 1
     6    5    6 2
     7    5    7 1
     8    5    8 1
     9    5   12 1
    10    7   33 1
    11    9   10 2
    12    9   11 1
    13    9   12 1
    14    9   13 1
    15   13   14 1
    16   14   15 1
    17   14   34 1
    18   14   35 1
    19   15   16 1
    20   15   17 1
    21   15   36 1
    22   16   21 1
    23   17   18 1
    24   17   19 1
    25   17   37 1
    26   18   38 1
    27   19   20 1
    28   19   21 1
    29   19   39 1
    30   20   40 1
    31   21   22 1
    32   21   41 1
    33   22   23 ar
    34   22   31 ar
    35   23   24 ar
    36   23   42 1
    37   24   25 ar
    38   25   26 ar
    39   25   31 ar
    40   26   27 2
    41   26   28 ar
    42   27   43 1
    43   28   29 ar
    44   28   45 1
    45   29   30 ar
    46   29   44 1
    47   30   31 ar
@<TRIPOS>SUBSTRUCTURE
     1 ATP         1 GROUP 0 A     ****
@<TRIPOS>MOLECULE
[[[3,4-dihydroxy-5-(6-imino-1~{H}-purin-9-yl)tetrahydrofuran-2-yl]methoxy-oxido-phosphoryl]oxy-hydroxy-phosphoryl] hydrogen phosphate
   45    47     1     0     0
SMALL
USER_CHARGES

@<TRIPOS>ATOM
      1 PG          6.2134    6.7582   -3.4784 P.3       1 ATP         1.5496
      2 O1G         4.7983    7.2895   -3.4247 O.co2     1 ATP        -0.8494
      3 O2G         6.8717    6.4335   -4.8007 O.co2     1 ATP        -0.8494
      4 O3G         7.1827    7.7815   -2.6541 O.3       1 ATP        -0.7845
      5 PB          5.6515    3.9988   -2.6022 P.3       1 ATP         1.9068
      6 O1B         4.1515    3.9868   -2.6084 O.2       1 ATP        -0.8942
      7 O2B         6.3474    3.3499   -3.9092 O.3       1 ATP        -0.8166
      8 O3B         6.3287    5.4626   -2.4945 O.3       1 ATP        -0.8194
      9 PA          6.2485    3.4952    0.2423 P.3       1 ATP         1.5903
     10 O1A         6.5934    4.9413    0.5251 O.co2     1 ATP        -0.8519
     11 O2A         6.9725    2.3738    0.9551 O.co2     1 ATP        -0.8519
     12 O3A         6.3551    3.2334   -1.3658 O.3       1 ATP        -0.8093
     13 O5'         4.6405    3.2701    0.4379 O.3       1 ATP        -0.5649
     14 C5'         4.0922    1.9801    0.2227 C.3       1 ATP         0.1979
     15 C4'         2.5944    2.0310    0.4653 C.3       1 ATP         0.1179
     16 O4'         1.9327    2.5740   -0.6889 O.3       1 ATP        -0.3878
     17 C3'         1.9685    0.6634    0.6767 C.3       1 ATP         0.1185
     18 O3'         2.1425    0.1975    1.9977 O.3       1 ATP        -0.5544
     19 C2'         0.5176    0.9128    0.3099 C.3       1 ATP         0.0542
     20 O2'        -0.2103    1.4454    1.4152 O.3       1 ATP        -0.5831
     21 C1'         0.6219    1.9765   -0.7844 C.3       1 ATP         0.2222
     22 N9          0.4237    1.4496   -2.1357 N.pl3     1 ATP        -0.1887
     23 C8          1.4069    0.9710   -2.9662 C.ar      1 ATP         0.4447
     24 N7          0.9316    0.5623   -4.1260 N.2       1 ATP        -0.6159
     25 C5         -0.4120    0.7884   -4.0344 C.ar      1 ATP         0.2195
     26 C6         -1.4353    0.5283   -5.0204 C.ar      1 ATP         0.6144
     27 N6         -1.1199    0.0176   -6.1586 N.2       1 ATP        -0.8160
     28 N1         -2.6704    0.9095   -4.5147 N.pl3     1 ATP        -0.8611
     29 C2         -2.8863    1.4571   -3.2520 C.ar      1 ATP         0.6141
     30 N3         -1.9805    1.7017   -2.3442 N.2       1 ATP        -0.5913
     31 C4         -0.7561    1.3381   -2.8112 C.ar      1 ATP         0.0067
     32 HOG3        8.1396    7.5734   -2.5966 H         1 ATP         0.4313
     33 HOB2        6.1603    3.7402   -4.7895 H         1 ATP         0.4716
     34 H5'1        4.3029    1.6730   -0.8066 H         1 ATP         0.0452
     35 H5'2        4.5678    1.2739    0.9106 H         1 ATP         0.0452
     36 H4'         2.3751    2.7029    1.3156 H         1 ATP         0.0998
     37 H3'         2.4336   -0.1217   -0.0015 H         1 ATP         0.0544
     38 HO3'        1.7160   -0.6716    2.0397 H         1 ATP         0.3961
     39 H2'         0.0316    0.0155   -0.0339 H         1 ATP         0.0499
     40 HO2'       -0.1608    0.7921    2.1351 H         1 ATP         0.4045
     41 H1'        -0.1474    2.7798   -0.6651 H         1 ATP         0.0912
     42 H8          2.4466    0.9468   -2.6694 H         1 ATP         0.1090
     43 HN62       -1.9661   -0.0965   -6.7275 H         1 ATP         0.3694
     44 H2         -3.9481    1.6825   -3.0660 H         1 ATP         0.0371
     45 H45        -3.4814    0.7753   -5.1133 H         1 ATP         0.4283
@<TRIPOS>BOND
     1    1    2 2
     2    1    3 1
     3    1    4 1
     4    1    8 1
     5    4   32 1
     6    5    6 2
     7    5    7 1
     8    5    8 1
     9    5   12 1
    10    7   33 1
    11    9   10 2
    12    9   11 1
    13    9   12 1
    14    9   13 1
    15   13   14 1
    16   14   15 1
    17   14   34 1
    18   14   35 1
    19   15   16 1
    20   15   17 1
    21   15   36 1
    22   16   21 1
    23   17   18 1
    24   17   19 1
    25   17   37 1
    26   18   38 1
    27   19   20 1
    28   19   21 1
    29   19   39 1
    30   20   40 1
    31   21   22 1
    32   21   41 1
    33   22   23 ar
    34   22   31 ar
    35   23   24 ar
    36   23   42 1
    37   24   25 ar
    38   25   26 ar
    39   25   31 ar
    40   26   27 2
    41   26   28 ar
    42   27   43 1
    43   28   29 ar
    44   28   45 1
    45   29   30 ar
    46   29   44 1
    47   30   31 ar
@<TRIPOS>SUBSTRUCTURE
     1 ATP         1 GROUP 0 A     ****
@<TRIPOS>MOLECULE
[[[3,4-dihydroxy-5-(6-imino-1~{H}-purin-9-yl)tetrahydrofuran-2-yl]methoxy-oxido-phosphoryl]oxy-hydroxy-phosphoryl] hydrogen phosphate
   45    47     1     0     0
SMALL
USER_CHARGES

@<TRIPOS>ATOM
      1 PG         -2.3670    4.7670   -1.7517 P.3       1 ATP         1.5496
      2 O1G        -1.4212    5.5538   -2.6315 O.co2     1 ATP        -0.8494
      3 O2G        -3.8595    5.0052   -1.8075 O.co2     1 ATP        -0.8494
      4 O3G        -2.0871    3.1751   -1.9836 O.3       1 ATP        -0.7845
      5 PB         -1.8166    6.1556    0.7912 P.3       1 ATP         1.9068
      6 O1B        -0.9633    7.2979    0.3250 O.2       1 ATP        -0.8942
      7 O2B        -3.3740    6.5169    1.0310 O.3       1 ATP        -0.8166
      8 O3B        -1.8675    4.8824   -0.2034 O.3       1 ATP        -0.8194
      9 PA          0.0330    4.7082    2.5759 P.3       1 ATP         1.5903
     10 O1A        -0.1147    4.1095    3.9578 O.co2     1 ATP        -0.8519
     11 O2A         1.1818    5.6395    2.2553 O.co2     1 ATP        -0.8519
     12 O3A        -1.3612    5.4575    2.1750 O.3       1 ATP        -0.8093
     13 O5'         0.0180    3.5131    1.4595 O.3       1 ATP        -0.5649
     14 C5'        -0.8811    2.4285    1.6206 C.3       1 ATP         0.1979
     15 C4'        -0.1994    1.3333    2.4288 C.3       1 ATP         0.1179
     16 O4'        -1.1285    0.2356    2.5840 O.3       1 ATP        -0.3878
     17 C3'         1.0324    0.7610    1.7344 C.3       1 ATP         0.1185
     18 O3'         1.9175    0.2377    2.7247 O.3       1 ATP        -0.5544
     19 C2'         0.4468   -0.3802    0.9263 C.3       1 ATP         0.0542
     20 O2'         1.3993   -1.3703    0.5961 O.3       1 ATP        -0.5831
     21 C1'        -0.6159   -0.9100    1.8769 C.3       1 ATP         0.2222
     22 N9         -1.7127   -1.6108    1.2130 N.pl3     1 ATP        -0.1887
     23 C8         -1.7690   -2.9583    0.9549 C.ar      1 ATP         0.4447
     24 N7         -2.8827   -3.3076    0.3418 N.2       1 ATP        -0.6159
     25 C5         -3.5683   -2.1351    0.2017 C.ar      1 ATP         0.2195
     26 C6         -4.8617   -1.9185   -0.4044 C.ar      1 ATP         0.6144
     27 N6         -5.5166   -2.9094   -0.8994 N.2       1 ATP        -0.8160
     28 N1         -5.1836   -0.5701   -0.3344 N.pl3     1 ATP        -0.8611
     29 C2         -4.3821    0.4180    0.2330 C.ar      1 ATP         0.6141
     30 N3         -3.2117    0.2488    0.7860 N.2       1 ATP        -0.5913
     31 C4         -2.8672   -1.0657    0.7327 C.ar      1 ATP         0.0067
     32 HOG3       -2.6255    2.5283   -1.4796 H         1 ATP         0.4313
     33 HOB2       -3.9049    6.8522    0.2773 H         1 ATP         0.4716
     34 H5'1       -1.7770    2.7851    2.1387 H         1 ATP         0.0452
     35 H5'2       -1.1653    2.0543    0.6320 H         1 ATP         0.0452
     36 H4'         0.0403    1.7078    3.4343 H         1 ATP         0.0998
     37 H3'         1.5906    1.4859    1.1353 H         1 ATP         0.0544
     38 HO3'        2.6839   -0.1150    2.2479 H         1 ATP         0.3961
     39 H2'        -0.0017    0.0018    0.0005 H         1 ATP         0.0499
     40 HO2'        2.0953   -0.9375    0.0709 H         1 ATP         0.4045
     41 H1'        -0.1998   -1.6319    2.6178 H         1 ATP         0.0912
     42 H8         -0.9697   -3.6300    1.2371 H         1 ATP         0.1090
     43 HN62       -6.4060   -2.5723   -1.2840 H         1 ATP         0.3694
     44 H2         -4.8409    1.4176    0.1757 H         1 ATP         0.0371
     45 H45        -6.0768   -0.2826   -0.7263 H         1 ATP         0.4283
@<TRIPOS>BOND
     1    1    2 2
     2    1    3 1
     3    1    4 1
     4    1    8 1
     5    4   32 1
     6    5    6 2
     7    5    7 1
     8    5    8 1
     9    5   12 1
    10    7   33 1
    11    9   10 2
    12    9   11 1
    13    9   12 1
    14    9   13 1
    15   13   14 1
    16   14   15 1
    17   14   34 1
    18   14   35 1
    19   15   16 1
    20   15   17 1
    21   15   36 1
    22   16   21 1
    23   17   18 1
    24   17   19 1
    25   17   37 1
    26   18   38 1
    27   19   20 1
    28   19   21 1
    29   19   39 1
    30   20   40 1
    31   21   22 1
    32   21   41 1
    33   22   23 ar
    34   22   31 ar
    35   23   24 ar
    36   23   42 1
    37   24   25 ar
    38   25   26 ar
    39   25   31 ar
    40   26   27 2
    41   26   28 ar
    42   27   43 1
    43   28   29 ar
    44   28   45 1
    45   29   30 ar
    46   29   44 1
    47   30   31 ar
@<TRIPOS>SUBSTRUCTURE
     1 ATP         1 GROUP 0 A     ****
@<TRIPOS>MOLECULE
[[[3,4-dihydroxy-5-(6-imino-1~{H}-purin-9-yl)tetrahydrofuran-2-yl]methoxy-oxido-phosphoryl]oxy-hydroxy-phosphoryl] hydrogen phosphate
   45    47     1     0     0
SMALL
USER_CHARGES

@<TRIPOS>ATOM
      1 PG         -0.4472    1.0514    7.0070 P.3       1 ATP         1.5496
      2 O1G         0.6755    0.2605    7.6407 O.co2     1 ATP        -0.8494
      3 O2G        -1.2331    0.4893    5.8434 O.co2     1 ATP        -0.8494
      4 O3G        -1.4972    1.4903    8.1779 O.3       1 ATP        -0.7845
      5 PB         -0.6713    3.8305    6.0456 P.3       1 ATP         1.9068
      6 O1B        -1.7478    4.3670    6.9422 O.2       1 ATP        -0.8942
      7 O2B         0.5161    4.8722    5.7015 O.3       1 ATP        -0.8166
      8 O3B         0.1095    2.5314    6.6073 O.3       1 ATP        -0.8194
      9 PA         -1.9154    4.0917    3.3839 P.3       1 ATP         1.5903
     10 O1A        -0.9828    5.1481    2.8324 O.co2     1 ATP        -0.8519
     11 O2A        -3.3086    4.4564    3.8487 O.co2     1 ATP        -0.8519
     12 O3A        -1.1597    3.3045    4.5985 O.3       1 ATP        -0.8093
     13 O5'        -2.0402    2.8619    2.3130 O.3       1 ATP        -0.5649
     14 C5'        -0.8811    2.4285    1.6206 C.3       1 ATP         0.1979
     15 C4'        -0.1994    1.3333    2.4288 C.3       1 ATP         0.1179
     16 O4'        -1.1285    0.2356    2.5840 O.3       1 ATP        -0.3878
     17 C3'         1.0324    0.7610    1.7344 C.3       1 ATP         0.1185
     18 O3'         1.9175    0.2377    2.7247 O.3       1 ATP        -0.5544
     19 C2'         0.4468   -0.3802    0.9263 C.3       1 ATP         0.0542
     20 O2'         1.3993   -1.3703    0.5961 O.3       1 ATP        -0.5831
     21 C1'        -0.6159   -0.9100    1.8769 C.3       1 ATP         0.2222
     22 N9         -1.7127   -1.6108    1.2130 N.pl3     1 ATP        -0.1887
     23 C8         -2.8662   -1.0361    0.7388 C.ar      1 ATP         0.4447
     24 N7         -3.6774   -1.9166    0.1867 N.2       1 ATP        -0.6159
     25 C5         -3.0159   -3.1045    0.3123 C.ar      1 ATP         0.2195
     26 C6         -3.4377   -4.4169   -0.1199 C.ar      1 ATP         0.6144
     27 N6         -4.5720   -4.5691   -0.7080 N.2       1 ATP        -0.8160
     28 N1         -2.4600   -5.3463    0.2071 N.pl3     1 ATP        -0.8611
     29 C2         -1.2595   -5.0554    0.8515 C.ar      1 ATP         0.6141
     30 N3         -0.8555   -3.8803    1.2516 N.2       1 ATP        -0.5913
     31 C4         -1.7946   -2.9457    0.9448 C.ar      1 ATP         0.0067
     32 HOG3       -2.2869    2.0139    7.9243 H         1 ATP         0.4313
     33 HOB2        0.2936    5.7118    5.2457 H         1 ATP         0.4716
     34 H5'1       -1.1769    2.0503    0.6369 H         1 ATP         0.0452
     35 H5'2       -0.2081    3.2815    1.4877 H         1 ATP         0.0452
     36 H4'         0.0403    1.7078    3.4343 H         1 ATP         0.0998
     37 H3'         1.5906    1.4859    1.1353 H         1 ATP         0.0544
     38 HO3'        2.6839   -0.1150    2.2479 H         1 ATP         0.3961
     39 H2'        -0.0017    0.0018    0.0005 H         1 ATP         0.0499
     40 HO2'        2.0953   -0.9375    0.0709 H         1 ATP         0.4045
     41 H1'        -0.1998   -1.6319    2.6178 H         1 ATP         0.0912
     42 H8         -3.0558    0.0252    0.8256 H         1 ATP         0.1090
     43 HN62       -4.7047   -5.5592   -0.9421 H         1 ATP         0.3694
     44 H2         -0.6372   -5.9505    1.0077 H         1 ATP         0.0371
     45 H45        -2.6338   -6.3155   -0.0469 H         1 ATP         0.4283
@<TRIPOS>BOND
     1    1    2 2
     2    1    3 1
     3    1    4 1
     4    1    8 1
     5    4   32 1
     6    5    6 2
     7    5    7 1
     8    5    8 1
     9    5   12 1
    10    7   33 1
    11    9   10 2
    12    9   11 1
    13    9   12 1
    14    9   13 1
    15   13   14 1
    16   14   15 1
    17   14   34 1
    18   14   35 1
    19   15   16 1
    20   15   17 1
    21   15   36 1
    22   16   21 1
    23   17   18 1
    24   17   19 1
    25   17   37 1
    26   18   38 1
    27   19   20 1
    28   19   21 1
    29   19   39 1
    30   20   40 1
    31   21   22 1
    32   21   41 1
    33   22   23 ar
    34   22   31 ar
    35   23   24 ar
    36   23   42 1
    37   24   25 ar
    38   25   26 ar
    39   25   31 ar
    40   26   27 2
    41   26   28 ar
    42   27   43 1
    43   28   29 ar
    44   28   45 1
    45   29   30 ar
    46   29   44 1
    47   30   31 ar
@<TRIPOS>SUBSTRUCTURE
     1 ATP         1 GROUP 0 A     ****
@<TRIPOS>MOLECULE
[[[3,4-dihydroxy-5-(6-imino-1~{H}-purin-9-yl)tetrahydrofuran-2-yl]methoxy-oxido-phosphoryl]oxy-hydroxy-phosphoryl] hydrogen phosphate
   45    47     1     0     0
SMALL
USER_CHARGES

@<TRIPOS>ATOM
      1 PG         -0.5976    8.6335   -0.0473 P.3       1 ATP         1.5496
      2 O1G         0.8910    8.5067    0.1887 O.co2     1 ATP        -0.8494
      3 O2G        -1.4082    9.6979    0.6581 O.co2     1 ATP        -0.8494
      4 O3G        -0.8584    8.7631   -1.6540 O.3       1 ATP        -0.7845
      5 PB         -1.4683    6.3150    1.5540 P.3       1 ATP         1.9068
      6 O1B        -0.1872    5.9258    2.2305 O.2       1 ATP        -0.8942
      7 O2B        -2.4753    7.2045    2.4531 O.3       1 ATP        -0.8166
      8 O3B        -1.2972    7.1811    0.2000 O.3       1 ATP        -0.8194
      9 PA         -3.0798    3.8626    1.8537 P.3       1 ATP         1.5903
     10 O1A        -3.7209    2.9152    0.8630 O.co2     1 ATP        -0.8519
     11 O2A        -3.8821    4.4459    2.9964 O.co2     1 ATP        -0.8519
     12 O3A        -2.3874    5.0928    1.0333 O.3       1 ATP        -0.8093
     13 O5'        -1.7337    3.1724    2.4752 O.3       1 ATP        -0.5649
     14 C5'        -0.8811    2.4285    1.6206 C.3       1 ATP         0.1979
     15 C4'        -0.1994    1.3333    2.4288 C.3       1 ATP         0.1179
     16 O4'        -1.1285    0.2356    2.5840 O.3       1 ATP        -0.3878
     17 C3'         1.0324    0.7610    1.7344 C.3       1 ATP         0.1185
     18 O3'         1.9175    0.2377    2.7247 O.3       1 ATP        -0.5544
     19 C2'         0.4468   -0.3802    0.9263 C.3       1 ATP         0.0542
     20 O2'         1.3993   -1.3703    0.5961 O.3       1 ATP        -0.5831
     21 C1'        -0.6159   -0.9100    1.8769 C.3       1 ATP         0.2222
     22 N9         -1.7127   -1.6108    1.2130 N.pl3     1 ATP        -0.1887
     23 C8         -2.5485   -1.0808    0.2609 C.ar      1 ATP         0.4447
     24 N7         -3.4476   -1.9486   -0.1593 N.2       1 ATP        -0.6159
     25 C5         -3.1762   -3.0816    0.5530 C.ar      1 ATP         0.2195
     26 C6         -3.8510   -4.3579    0.5006 C.ar      1 ATP         0.6144
     27 N6         -4.8468   -4.5293   -0.2961 N.2       1 ATP        -0.8160
     28 N1         -3.2499   -5.2342    1.3937 N.pl3     1 ATP        -0.8611
     29 C2         -2.1646   -4.9275    2.2116 C.ar      1 ATP         0.6141
     30 N3         -1.5382   -3.7840    2.2778 N.2       1 ATP        -0.5913
     31 C4         -2.1054   -2.9018    1.4120 C.ar      1 ATP         0.0067
     32 HOG3       -1.7823    8.8535   -1.9710 H         1 ATP         0.4313
     33 HOB2       -2.8135    6.8327    3.2955 H         1 ATP         0.4716
     34 H5'1       -1.4801    1.9928    0.8147 H         1 ATP         0.0452
     35 H5'2       -0.1369    3.1041    1.1872 H         1 ATP         0.0452
     36 H4'         0.0403    1.7078    3.4343 H         1 ATP         0.0998
     37 H3'         1.5906    1.4859    1.1353 H         1 ATP         0.0544
     38 HO3'        2.6839   -0.1150    2.2479 H         1 ATP         0.3961
     39 H2'        -0.0017    0.0018    0.0005 H         1 ATP         0.0499
     40 HO2'        2.0953   -0.9375    0.0709 H         1 ATP         0.4045
     41 H1'        -0.1998   -1.6319    2.6178 H         1 ATP         0.0912
     42 H8         -2.4515   -0.0599   -0.0829 H         1 ATP         0.1090
     43 HN62       -5.1990   -5.4882   -0.2004 H         1 ATP         0.3694
     44 H2         -1.8555   -5.7783    2.8388 H         1 ATP         0.0371
     45 H45        -3.6312   -6.1750    1.4526 H         1 ATP         0.4283
@<TRIPOS>BOND
     1    1    2 2
     2    1    3 1
     3    1    4 1
     4    1    8 1
     5    4   32 1
     6    5    6 2
     7    5    7 1
     8    5    8 1
     9    5   12 1
    10    7   33 1
    11    9   10 2
    12    9   11 1
    13    9   12 1
    14    9   13 1
    15   13   14 1
    16   14   15 1
    17   14   34 1
    18   14   35 1
    19   15   16 1
    20   15   17 1
    21   15   36 1
    22   16   21 1
    23   17   18 1
    24   17   19 1
    25   17   37 1
    26   18   38 1
    27   19   20 1
    28   19   21 1
    29   19   39 1
    30   20   40 1
    31   21   22 1
    32   21   41 1
    33   22   23 ar
    34   22   31 ar
    35   23   24 ar
    36   23   42 1
    37   24   25 ar
    38   25   26 ar
    39   25   31 ar
    40   26   27 2
    41   26   28 ar
    42   27   43 1
    43   28   29 ar
    44   28   45 1
    45   29   30 ar
    46   29   44 1
    47   30   31 ar
@<TRIPOS>SUBSTRUCTURE
     1 ATP         1 GROUP 0 A     ****
@<TRIPOS>MOLECULE
[[[3,4-dihydroxy-5-(6-imino-1~{H}-purin-9-yl)tetrahydrofuran-2-yl]methoxy-oxido-phosphoryl]oxy-hydroxy-phosphoryl] hydrogen phosphate
   45    47     1     0     0
SMALL
USER_CHARGES

@<TRIPOS>ATOM
      1 PG          5.2807    3.8649   -5.7354 P.3       1 ATP         1.5496
      2 O1G         6.0950    5.0813   -6.1164 O.co2     1 ATP        -0.8494
      3 O2G         4.0002    3.5272   -6.4660 O.co2     1 ATP        -0.8494
      4 O3G         6.2570    2.5565   -5.7686 O.3       1 ATP        -0.7845
      5 PB          4.0816    4.9299   -3.2604 P.3       1 ATP         1.9068
      6 O1B         4.5006    6.3688   -3.3249 O.2       1 ATP        -0.8942
      7 O2B         2.5733    4.6323   -3.7604 O.3       1 ATP        -0.8166
      8 O3B         4.9825    3.9099   -4.1326 O.3       1 ATP        -0.8194
      9 PA          5.4149    4.0218   -0.7908 P.3       1 ATP         1.5903
     10 O1A         5.9085    5.3740   -0.3238 O.co2     1 ATP        -0.8519
     11 O2A         6.3636    3.0302   -1.4283 O.co2     1 ATP        -0.8519
     12 O3A         4.1505    4.2428   -1.8000 O.3       1 ATP        -0.8093
     13 O5'         4.6405    3.2701    0.4379 O.3       1 ATP        -0.5649
     14 C5'         4.0922    1.9801    0.2227 C.3       1 ATP         0.1979
     15 C4'         2.5944    2.0310    0.4653 C.3       1 ATP         0.1179
     16 O4'         1.9327    2.5740   -0.6889 O.3       1 ATP        -0.3878
     17 C3'         1.9685    0.6634    0.6767 C.3       1 ATP         0.1185
     18 O3'         2.1425    0.1975    1.9977 O.3       1 ATP        -0.5544
     19 C2'         0.5176    0.9128    0.3099 C.3       1 ATP         0.0542
     20 O2'        -0.2103    1.4454    1.4152 O.3       1 ATP        -0.5831
     21 C1'         0.6219    1.9765   -0.7844 C.3       1 ATP         0.2222
     22 N9          0.4237    1.4496   -2.1357 N.pl3     1 ATP        -0.1887
     23 C8          1.4069    0.9710   -2.9662 C.ar      1 ATP         0.4447
     24 N7          0.9316    0.5623   -4.1260 N.2       1 ATP        -0.6159
     25 C5         -0.4120    0.7884   -4.0344 C.ar      1 ATP         0.2195
     26 C6         -1.4353    0.5283   -5.0204 C.ar      1 ATP         0.6144
     27 N6         -1.1199    0.0176   -6.1586 N.2       1 ATP        -0.8160
     28 N1         -2.6704    0.9095   -4.5147 N.pl3     1 ATP        -0.8611
     29 C2         -2.8863    1.4571   -3.2520 C.ar      1 ATP         0.6141
     30 N3         -1.9805    1.7017   -2.3442 N.2       1 ATP        -0.5913
     31 C4         -0.7561    1.3381   -2.8112 C.ar      1 ATP         0.0067
     32 HOG3        5.8735    1.6823   -5.5430 H         1 ATP         0.4313
     33 HOB2        1.8254    5.0665   -3.2972 H         1 ATP         0.4716
     34 H5'1        4.3029    1.6730   -0.8066 H         1 ATP         0.0452
     35 H5'2        4.5678    1.2739    0.9106 H         1 ATP         0.0452
     36 H4'         2.3751    2.7029    1.3156 H         1 ATP         0.0998
     37 H3'         2.4336   -0.1217   -0.0015 H         1 ATP         0.0544
     38 HO3'        1.7160   -0.6716    2.0397 H         1 ATP         0.3961
     39 H2'         0.0316    0.0155   -0.0339 H         1 ATP         0.0499
     40 HO2'       -0.1608    0.7921    2.1351 H         1 ATP         0.4045
     41 H1'        -0.1474    2.7798   -0.6651 H         1 ATP         0.0912
     42 H8          2.4466    0.9468   -2.6694 H         1 ATP         0.1090
     43 HN62       -1.9661   -0.0965   -6.7275 H         1 ATP         0.3694
     44 H2         -3.9481    1.6825   -3.0660 H         1 ATP         0.0371
     45 H45        -3.4814    0.7753   -5.1133 H         1 ATP         0.4283
@<TRIPOS>BOND
     1    1    2 2
     2    1    3 1
     3    1    4 1
     4    1    8 1
     5    4   32 1
     6    5    6 2
     7    5    7 1
     8    5    8 1
     9    5   12 1
    10    7   33 1
    11    9   10 2
    12    9   11 1
    13    9   12 1
    14    9   13 1
    15   13   14 1
    16   14   15 1
    17   14   34 1
    18   14   35 1
    19   15   16 1
    20   15   17 1
    21   15   36 1
    22   16   21 1
    23   17   18 1
    24   17   19 1
    25   17   37 1
    26   18   38 1
    27   19   20 1
    28   19   21 1
    29   19   39 1
    30   20   40 1
    31   21   22 1
    32   21   41 1
    33   22   23 ar
    34   22   31 ar
    35   23   24 ar
    36   23   42 1
    37   24   25 ar
    38   25   26 ar
    39   25   31 ar
    40   26   27 2
    41   26   28 ar
    42   27   43 1
    43   28   29 ar
    44   28   45 1
    45   29   30 ar
    46   29   44 1
    47   30   31 ar
@<TRIPOS>SUBSTRUCTURE
     1 ATP         1 GROUP 0 A     ****
@<TRIPOS>MOLECULE
[[[3,4-dihydroxy-5-(6-imino-1~{H}-purin-9-yl)tetrahydrofuran-2-yl]methoxy-oxido-phosphoryl]oxy-hydroxy-phosphoryl] hydrogen phosphate
   45    47     1     0     0
SMALL
USER_CHARGES

@<TRIPOS>ATOM
      1 PG          7.4531    0.3787    3.8978 P.3       1 ATP         1.5496
      2 O1G         7.7598   -0.1302    2.5069 O.co2     1 ATP        -0.8494
      3 O2G         6.2255   -0.0932    4.6447 O.co2     1 ATP        -0.8494
      4 O3G         8.7620    0.1289    4.8414 O.3       1 ATP        -0.7845
      5 PB          6.4822    3.0615    3.1507 P.3       1 ATP         1.9068
      6 O1B         5.0431    2.9808    3.5662 O.2       1 ATP        -0.8942
      7 O2B         7.1903    4.4921    3.4065 O.3       1 ATP        -0.8166
      8 O3B         7.4700    2.0095    3.8791 O.3       1 ATP        -0.8194
      9 PA          6.2485    3.4952    0.2423 P.3       1 ATP         1.5903
     10 O1A         6.7240    2.7154   -0.9642 O.co2     1 ATP        -0.8519
     11 O2A         6.5371    4.9752    0.3694 O.co2     1 ATP        -0.8519
     12 O3A         6.7825    2.7511    1.5941 O.3       1 ATP        -0.8093
     13 O5'         4.6405    3.2701    0.4379 O.3       1 ATP        -0.5649
     14 C5'         4.0922    1.9801    0.2227 C.3       1 ATP         0.1979
     15 C4'         2.5944    2.0310    0.4653 C.3       1 ATP         0.1179
     16 O4'         1.9327    2.5740   -0.6889 O.3       1 ATP        -0.3878
     17 C3'         1.9685    0.6634    0.6767 C.3       1 ATP         0.1185
     18 O3'         2.1425    0.1975    1.9977 O.3       1 ATP        -0.5544
     19 C2'         0.5176    0.9128    0.3099 C.3       1 ATP         0.0542
     20 O2'        -0.2103    1.4454    1.4152 O.3       1 ATP        -0.5831
     21 C1'         0.6219    1.9765   -0.7844 C.3       1 ATP         0.2222
     22 N9          0.4237    1.4496   -2.1357 N.pl3     1 ATP        -0.1887
     23 C8          1.4069    0.9710   -2.9662 C.ar      1 ATP         0.4447
     24 N7          0.9316    0.5623   -4.1260 N.2       1 ATP        -0.6159
     25 C5         -0.4120    0.7884   -4.0344 C.ar      1 ATP         0.2195
     26 C6         -1.4353    0.5283   -5.0204 C.ar      1 ATP         0.6144
     27 N6         -1.1199    0.0176   -6.1586 N.2       1 ATP        -0.8160
     28 N1         -2.6704    0.9095   -4.5147 N.pl3     1 ATP        -0.8611
     29 C2         -2.8863    1.4571   -3.2520 C.ar      1 ATP         0.6141
     30 N3         -1.9805    1.7017   -2.3442 N.2       1 ATP        -0.5913
     31 C4         -0.7561    1.3381   -2.8112 C.ar      1 ATP         0.0067
     32 HOG3        8.7202    0.4078    5.7809 H         1 ATP         0.4313
     33 HOB2        6.8232    5.2886    2.9671 H         1 ATP         0.4716
     34 H5'1        4.3029    1.6730   -0.8066 H         1 ATP         0.0452
     35 H5'2        4.5678    1.2739    0.9106 H         1 ATP         0.0452
     36 H4'         2.3751    2.7029    1.3156 H         1 ATP         0.0998
     37 H3'         2.4336   -0.1217   -0.0015 H         1 ATP         0.0544
     38 HO3'        1.7160   -0.6716    2.0397 H         1 ATP         0.3961
     39 H2'         0.0316    0.0155   -0.0339 H         1 ATP         0.0499
     40 HO2'       -0.1608    0.7921    2.1351 H         1 ATP         0.4045
     41 H1'        -0.1474    2.7798   -0.6651 H         1 ATP         0.0912
     42 H8          2.4466    0.9468   -2.6694 H         1 ATP         0.1090
     43 HN62       -1.9661   -0.0965   -6.7275 H         1 ATP         0.3694
     44 H2         -3.9481    1.6825   -3.0660 H         1 ATP         0.0371
     45 H45        -3.4814    0.7753   -5.1133 H         1 ATP         0.4283
@<TRIPOS>BOND
     1    1    2 2
     2    1    3 1
     3    1    4 1
     4    1    8 1
     5    4   32 1
     6    5    6 2
     7    5    7 1
     8    5    8 1
     9    5   12 1
    10    7   33 1
    11    9   10 2
    12    9   11 1
    13    9   12 1
    14    9   13 1
    15   13   14 1
    16   14   15 1
    17   14   34 1
    18   14   35 1
    19   15   16 1
    20   15   17 1
    21   15   36 1
    22   16   21 1
    23   17   18 1
    24   17   19 1
    25   17   37 1
    26   18   38 1
    27   19   20 1
    28   19   21 1
    29   19   39 1
    30   20   40 1
    31   21   22 1
    32   21   41 1
    33   22   23 ar
    34   22   31 ar
    35   23   24 ar
    36   23   42 1
    37   24   25 ar
    38   25   26 ar
    39   25   31 ar
    40   26   27 2
    41   26   28 ar
    42   27   43 1
    43   28   29 ar
    44   28   45 1
    45   29   30 ar
    46   29   44 1
    47   30   31 ar
@<TRIPOS>SUBSTRUCTURE
     1 ATP         1 GROUP 0 A     ****
@<TRIPOS>MOLECULE
[[[3,4-dihydroxy-5-(6-imino-1~{H}-purin-9-yl)tetrahydrofuran-2-yl]methoxy-oxido-phosphoryl]oxy-hydroxy-phosphoryl] hydrogen phosphate
   45    47     1     0     0
SMALL
USER_CHARGES

@<TRIPOS>ATOM
      1 PG         -4.3725    5.6806   -2.5863 P.3       1 ATP         1.5496
      2 O1G        -5.2991    6.8266   -2.2460 O.co2     1 ATP        -0.8494
      3 O2G        -4.7802    4.6227   -3.5873 O.co2     1 ATP        -0.8494
      4 O3G        -2.9310    6.2975   -3.0422 O.3       1 ATP        -0.7845
      5 PB         -4.7530    4.0980   -0.1270 P.3       1 ATP         1.9068
      6 O1B        -5.8830    4.8365    0.5273 O.2       1 ATP        -0.8942
      7 O2B        -5.1835    2.7711   -0.9441 O.3       1 ATP        -0.8166
      8 O3B        -3.9033    4.9525   -1.2044 O.3       1 ATP        -0.8194
      9 PA         -2.5926    4.4186    1.8557 P.3       1 ATP         1.5903
     10 O1A        -3.4218    5.0535    2.9508 O.co2     1 ATP        -0.8519
     11 O2A        -1.6628    5.2565    1.0052 O.co2     1 ATP        -0.8519
     12 O3A        -3.5835    3.5841    0.8618 O.3       1 ATP        -0.8093
     13 O5'        -1.7337    3.1724    2.4752 O.3       1 ATP        -0.5649
     14 C5'        -0.8811    2.4285    1.6206 C.3       1 ATP         0.1979
     15 C4'        -0.1994    1.3333    2.4288 C.3       1 ATP         0.1179
     16 O4'        -1.1285    0.2356    2.5840 O.3       1 ATP        -0.3878
     17 C3'         1.0324    0.7610    1.7344 C.3       1 ATP         0.1185
     18 O3'         1.9175    0.2377    2.7247 O.3       1 ATP        -0.5544
     19 C2'         0.4468   -0.3802    0.9263 C.3       1 ATP         0.0542
     20 O2'         1.3993   -1.3703    0.5961 O.3       1 ATP        -0.5831
     21 C1'        -0.6159   -0.9100    1.8769 C.3       1 ATP         0.2222
     22 N9         -1.7127   -1.6108    1.2130 N.pl3     1 ATP        -0.1887
     23 C8         -1.5982   -2.7455    0.4481 C.ar      1 ATP         0.4447
     24 N7         -2.7593   -3.1533   -0.0249 N.2       1 ATP        -0.6159
     25 C5         -3.6547   -2.2420    0.4573 C.ar      1 ATP         0.2195
     26 C6         -5.0842   -2.1942    0.2543 C.ar      1 ATP         0.6144
     27 N6         -5.6648   -3.0919   -0.4618 N.2       1 ATP        -0.8160
     28 N1         -5.6087   -1.0978    0.9248 N.pl3     1 ATP        -0.8611
     29 C2         -4.8689   -0.1873    1.6760 C.ar      1 ATP         0.6141
     30 N3         -3.5787   -0.2081    1.8745 N.2       1 ATP        -0.5913
     31 C4         -3.0344   -1.2737    1.2284 C.ar      1 ATP         0.0067
     32 HOG3       -2.2165    5.6754   -3.2966 H         1 ATP         0.4313
     33 HOB2       -5.6308    2.0422   -0.4637 H         1 ATP         0.4716
     34 H5'1       -1.4801    1.9928    0.8147 H         1 ATP         0.0452
     35 H5'2       -0.1369    3.1041    1.1872 H         1 ATP         0.0452
     36 H4'         0.0403    1.7078    3.4343 H         1 ATP         0.0998
     37 H3'         1.5906    1.4859    1.1353 H         1 ATP         0.0544
     38 HO3'        2.6839   -0.1150    2.2479 H         1 ATP         0.3961
     39 H2'        -0.0017    0.0018    0.0005 H         1 ATP         0.0499
     40 HO2'        2.0953   -0.9375    0.0709 H         1 ATP         0.4045
     41 H1'        -0.1998   -1.6319    2.6178 H         1 ATP         0.0912
     42 H8         -0.6448   -3.2254    0.2735 H         1 ATP         0.1090
     43 HN62       -6.6723   -2.9015   -0.4966 H         1 ATP         0.3694
     44 H2         -5.4961    0.6026    2.1182 H         1 ATP         0.0371
     45 H45        -6.6130   -0.9504    0.8642 H         1 ATP         0.4283
@<TRIPOS>BOND
     1    1    2 2
     2    1    3 1
     3    1    4 1
     4    1    8 1
     5    4   32 1
     6    5    6 2
     7    5    7 1
     8    5    8 1
     9    5   12 1
    10    7   33 1
    11    9   10 2
    12    9   11 1
    13    9   12 1
    14    9   13 1
    15   13   14 1
    16   14   15 1
    17   14   34 1
    18   14   35 1
    19   15   16 1
    20   15   17 1
    21   15   36 1
    22   16   21 1
    23   17   18 1
    24   17   19 1
    25   17   37 1
    26   18   38 1
    27   19   20 1
    28   19   21 1
    29   19   39 1
    30   20   40 1
    31   21   22 1
    32   21   41 1
    33   22   23 ar
    34   22   31 ar
    35   23   24 ar
    36   23   42 1
    37   24   25 ar
    38   25   26 ar
    39   25   31 ar
    40   26   27 2
    41   26   28 ar
    42   27   43 1
    43   28   29 ar
    44   28   45 1
    45   29   30 ar
    46   29   44 1
    47   30   31 ar
@<TRIPOS>SUBSTRUCTURE
     1 ATP         1 GROUP 0 A     ****
@<TRIPOS>MOLECULE
[[[3,4-dihydroxy-5-(6-imino-1~{H}-purin-9-yl)tetrahydrofuran-2-yl]methoxy-oxido-phosphoryl]oxy-hydroxy-phosphoryl] hydrogen phosphate
   45    47     1     0     0
SMALL
USER_CHARGES

@<TRIPOS>ATOM
      1 PG         -0.1915    8.2578    4.1839 P.3       1 ATP         1.5496
      2 O1G        -1.4398    8.7803    4.8595 O.co2     1 ATP        -0.8494
      3 O2G         0.8233    9.2064    3.5859 O.co2     1 ATP        -0.8494
      4 O3G         0.5799    7.2598    5.2209 O.3       1 ATP        -0.7845
      5 PB         -1.5436    5.8374    3.1783 P.3       1 ATP         1.9068
      6 O1B        -1.0541    4.8019    4.1469 O.2       1 ATP        -0.8942
      7 O2B        -3.0168    6.4257    3.4903 O.3       1 ATP        -0.8166
      8 O3B        -0.6210    7.1591    3.0576 O.3       1 ATP        -0.8194
      9 PA         -0.4664    4.8322    0.6228 P.3       1 ATP         1.5903
     10 O1A         0.6558    5.8467    0.5865 O.co2     1 ATP        -0.8519
     11 O2A        -1.1276    4.3642   -0.6553 O.co2     1 ATP        -0.8519
     12 O3A        -1.6298    5.3702    1.6343 O.3       1 ATP        -0.8093
     13 O5'         0.0180    3.5131    1.4595 O.3       1 ATP        -0.5649
     14 C5'        -0.8811    2.4285    1.6206 C.3       1 ATP         0.1979
     15 C4'        -0.1994    1.3333    2.4288 C.3       1 ATP         0.1179
     16 O4'        -1.1285    0.2356    2.5840 O.3       1 ATP        -0.3878
     17 C3'         1.0324    0.7610    1.7344 C.3       1 ATP         0.1185
     18 O3'         1.9175    0.2377    2.7247 O.3       1 ATP        -0.5544
     19 C2'         0.4468   -0.3802    0.9263 C.3       1 ATP         0.0542
     20 O2'         1.3993   -1.3703    0.5961 O.3       1 ATP        -0.5831
     21 C1'        -0.6159   -0.9100    1.8769 C.3       1 ATP         0.2222
     22 N9         -1.7127   -1.6108    1.2130 N.pl3     1 ATP        -0.1887
     23 C8         -2.8662   -1.0361    0.7388 C.ar      1 ATP         0.4447
     24 N7         -3.6774   -1.9166    0.1867 N.2       1 ATP        -0.6159
     25 C5         -3.0159   -3.1045    0.3123 C.ar      1 ATP         0.2195
     26 C6         -3.4377   -4.4169   -0.1199 C.ar      1 ATP         0.6144
     27 N6         -4.5720   -4.5691   -0.7080 N.2       1 ATP        -0.8160
     28 N1         -2.4600   -5.3463    0.2071 N.pl3     1 ATP        -0.8611
     29 C2         -1.2595   -5.0554    0.8515 C.ar      1 ATP         0.6141
     30 N3         -0.8555   -3.8803    1.2516 N.2       1 ATP        -0.5913
     31 C4         -1.7946   -2.9457    0.9448 C.ar      1 ATP         0.0067
     32 HOG3        0.1052    6.4643    5.5434 H         1 ATP         0.4313
     33 HOB2       -3.1753    6.8791    4.3456 H         1 ATP         0.4716
     34 H5'1       -1.7770    2.7851    2.1387 H         1 ATP         0.0452
     35 H5'2       -1.1653    2.0543    0.6320 H         1 ATP         0.0452
     36 H4'         0.0403    1.7078    3.4343 H         1 ATP         0.0998
     37 H3'         1.5906    1.4859    1.1353 H         1 ATP         0.0544
     38 HO3'        2.1521    0.9800    3.3017 H         1 ATP         0.3961
     39 H2'        -0.0017    0.0018    0.0005 H         1 ATP         0.0499
     40 HO2'        0.9369   -2.0558    0.0825 H         1 ATP         0.4045
     41 H1'        -0.1998   -1.6319    2.6178 H         1 ATP         0.0912
     42 H8         -3.0558    0.0252    0.8256 H         1 ATP         0.1090
     43 HN62       -4.7047   -5.5592   -0.9421 H         1 ATP         0.3694
     44 H2         -0.6372   -5.9505    1.0077 H         1 ATP         0.0371
     45 H45        -2.6338   -6.3155   -0.0469 H         1 ATP         0.4283
@<TRIPOS>BOND
     1    1    2 2
     2    1    3 1
     3    1    4 1
     4    1    8 1
     5    4   32 1
     6    5    6 2
     7    5    7 1
     8    5    8 1
     9    5   12 1
    10    7   33 1
    11    9   10 2
    12    9   11 1
    13    9   12 1
    14    9   13 1
    15   13   14 1
    16   14   15 1
    17   14   34 1
    18   14   35 1
    19   15   16 1
    20   15   17 1
    21   15   36 1
    22   16   21 1
    23   17   18 1
    24   17   19 1
    25   17   37 1
    26   18   38 1
    27   19   20 1
    28   19   21 1
    29   19   39 1
    30   20   40 1
    31   21   22 1
    32   21   41 1
    33   22   23 ar
    34   22   31 ar
    35   23   24 ar
    36   23   42 1
    37   24   25 ar
    38   25   26 ar
    39   25   31 ar
    40   26   27 2
    41   26   28 ar
    42   27   43 1
    43   28   29 ar
    44   28   45 1
    45   29   30 ar
    46   29   44 1
    47   30   31 ar
@<TRIPOS>SUBSTRUCTURE
     1 ATP         1 GROUP 0 A     ****
@<TRIPOS>MOLECULE
[[[3,4-dihydroxy-5-(6-imino-1~{H}-purin-9-yl)tetrahydrofuran-2-yl]methoxy-oxido-phosphoryl]oxy-hydroxy-phosphoryl] hydrogen phosphate
   45    47     1     0     0
SMALL
USER_CHARGES

@<TRIPOS>ATOM
      1 PG          0.0174    7.1243   -0.0211 P.3       1 ATP         1.5496
      2 O1G        -0.2162    8.0466   -1.1969 O.co2     1 ATP        -0.8494
      3 O2G         0.1260    5.6285   -0.2166 O.co2     1 ATP        -0.8494
      4 O3G         1.3399    7.6389    0.7866 O.3       1 ATP        -0.7845
      5 PB         -1.2509    6.8647    2.6288 P.3       1 ATP         1.9068
      6 O1B        -0.0964    7.1630    3.5390 O.2       1 ATP        -0.8942
      7 O2B        -2.6780    7.4445    3.1194 O.3       1 ATP        -0.8166
      8 O3B        -1.1049    7.4311    1.1219 O.3       1 ATP        -0.8194
      9 PA         -1.9154    4.0917    3.3839 P.3       1 ATP         1.5903
     10 O1A        -3.2731    4.3718    3.9906 O.co2     1 ATP        -0.8519
     11 O2A        -0.7135    3.8304    4.2652 O.co2     1 ATP        -0.8519
     12 O3A        -1.5408    5.2999    2.3514 O.3       1 ATP        -0.8093
     13 O5'        -2.0402    2.8619    2.3130 O.3       1 ATP        -0.5649
     14 C5'        -0.8811    2.4285    1.6206 C.3       1 ATP         0.1979
     15 C4'        -0.1994    1.3333    2.4288 C.3       1 ATP         0.1179
     16 O4'        -1.1285    0.2356    2.5840 O.3       1 ATP        -0.3878
     17 C3'         1.0324    0.7610    1.7344 C.3       1 ATP         0.1185
     18 O3'         1.9175    0.2377    2.7247 O.3       1 ATP        -0.5544
     19 C2'         0.4468   -0.3802    0.9263 C.3       1 ATP         0.0542
     20 O2'         1.3993   -1.3703    0.5961 O.3       1 ATP        -0.5831
     21 C1'        -0.6159   -0.9100    1.8769 C.3       1 ATP         0.2222
     22 N9         -1.7127   -1.6108    1.2130 N.pl3     1 ATP        -0.1887
     23 C8         -2.8662   -1.0361    0.7388 C.ar      1 ATP         0.4447
     24 N7         -3.6774   -1.9166    0.1867 N.2       1 ATP        -0.6159
     25 C5         -3.0159   -3.1045    0.3123 C.ar      1 ATP         0.2195
     26 C6         -3.4377   -4.4169   -0.1199 C.ar      1 ATP         0.6144
     27 N6         -4.5720   -4.5691   -0.7080 N.2       1 ATP        -0.8160
     28 N1         -2.4600   -5.3463    0.2071 N.pl3     1 ATP        -0.8611
     29 C2         -1.2595   -5.0554    0.8515 C.ar      1 ATP         0.6141
     30 N3         -0.8555   -3.8803    1.2516 N.2       1 ATP        -0.5913
     31 C4         -1.7946   -2.9457    0.9448 C.ar      1 ATP         0.0067
     32 HOG3        1.6245    7.1401    1.5819 H         1 ATP         0.4313
     33 HOB2       -3.0386    7.1496    3.9827 H         1 ATP         0.4716
     34 H5'1       -1.1769    2.0503    0.6369 H         1 ATP         0.0452
     35 H5'2       -0.2081    3.2815    1.4877 H         1 ATP         0.0452
     36 H4'         0.0403    1.7078    3.4343 H         1 ATP         0.0998
     37 H3'         1.5906    1.4859    1.1353 H         1 ATP         0.0544
     38 HO3'        2.6839   -0.1150    2.2479 H         1 ATP         0.3961
     39 H2'        -0.0017    0.0018    0.0005 H         1 ATP         0.0499
     40 HO2'        2.0953   -0.9375    0.0709 H         1 ATP         0.4045
     41 H1'        -0.1998   -1.6319    2.6178 H         1 ATP         0.0912
     42 H8         -3.0558    0.0252    0.8256 H         1 ATP         0.1090
     43 HN62       -4.7047   -5.5592   -0.9421 H         1 ATP         0.3694
     44 H2         -0.6372   -5.9505    1.0077 H         1 ATP         0.0371
     45 H45        -2.6338   -6.3155   -0.0469 H         1 ATP         0.4283
@<TRIPOS>BOND
     1    1    2 2
     2    1    3 1
     3    1    4 1
     4    1    8 1
     5    4   32 1
     6    5    6 2
     7    5    7 1
     8    5    8 1
     9    5   12 1
    10    7   33 1
    11    9   10 2
    12    9   11 1
    13    9   12 1
    14    9   13 1
    15   13   14 1
    16   14   15 1
    17   14   34 1
    18   14   35 1
    19   15   16 1
    20   15   17 1
    21   15   36 1
    22   16   21 1
    23   17   18 1
    24   17   19 1
    25   17   37 1
    26   18   38 1
    27   19   20 1
    28   19   21 1
    29   19   39 1
    30   20   40 1
    31   21   22 1
    32   21   41 1
    33   22   23 ar
    34   22   31 ar
    35   23   24 ar
    36   23   42 1
    37   24   25 ar
    38   25   26 ar
    39   25   31 ar
    40   26   27 2
    41   26   28 ar
    42   27   43 1
    43   28   29 ar
    44   28   45 1
    45   29   30 ar
    46   29   44 1
    47   30   31 ar
@<TRIPOS>SUBSTRUCTURE
     1 ATP         1 GROUP 0 A     ****
@<TRIPOS>MOLECULE
[[[3,4-dihydroxy-5-(6-imino-1~{H}-purin-9-yl)tetrahydrofuran-2-yl]methoxy-oxido-phosphoryl]oxy-hydroxy-phosphoryl] hydrogen phosphate
   45    47     1     0     0
SMALL
USER_CHARGES

@<TRIPOS>ATOM
      1 PG          7.4789    1.3541   -5.4223 P.3       1 ATP         1.5496
      2 O1G         8.4882    0.2481   -5.2086 O.co2     1 ATP        -0.8494
      3 O2G         7.8450    2.6014   -6.1954 O.co2     1 ATP        -0.8494
      4 O3G         6.1349    0.7079   -6.0872 O.3       1 ATP        -0.7845
      5 PB          7.5505    2.5078   -2.7090 P.3       1 ATP         1.9068
      6 O1B         8.7030    1.7636   -2.1022 O.2       1 ATP        -0.8942
      7 O2B         7.9018    3.9886   -3.2542 O.3       1 ATP        -0.8166
      8 O3B         6.8562    1.7870   -3.9783 O.3       1 ATP        -0.8194
      9 PA          6.1592    3.5242   -0.3148 P.3       1 ATP         1.5903
     10 O1A         6.4222    4.9968   -0.5433 O.co2     1 ATP        -0.8519
     11 O2A         6.9470    2.7492    0.7189 O.co2     1 ATP        -0.8519
     12 O3A         6.2774    2.7406   -1.7424 O.3       1 ATP        -0.8093
     13 O5'         4.5669    3.2939   -0.0211 O.3       1 ATP        -0.5649
     14 C5'         4.0922    1.9801    0.2227 C.3       1 ATP         0.1979
     15 C4'         2.5944    2.0310    0.4653 C.3       1 ATP         0.1179
     16 O4'         1.9327    2.5740   -0.6889 O.3       1 ATP        -0.3878
     17 C3'         1.9685    0.6634    0.6767 C.3       1 ATP         0.1185
     18 O3'         2.1425    0.1975    1.9977 O.3       1 ATP        -0.5544
     19 C2'         0.5176    0.9128    0.3099 C.3       1 ATP         0.0542
     20 O2'        -0.2103    1.4454    1.4152 O.3       1 ATP        -0.5831
     21 C1'         0.6219    1.9765   -0.7844 C.3       1 ATP         0.2222
     22 N9          0.4237    1.4496   -2.1357 N.pl3     1 ATP        -0.1887
     23 C8         -0.7779    1.3483   -2.7928 C.ar      1 ATP         0.4447
     24 N7         -0.6499    0.8341   -4.0000 N.2       1 ATP        -0.6159
     25 C5          0.6893    0.5965   -4.1212 C.ar      1 ATP         0.2195
     26 C6          1.4031    0.0342   -5.2443 C.ar      1 ATP         0.6144
     27 N6          0.7649   -0.3130   -6.3063 N.2       1 ATP        -0.8160
     28 N1          2.7566   -0.0326   -4.9437 N.pl3     1 ATP        -0.8611
     29 C2          3.3337    0.3796   -3.7446 C.ar      1 ATP         0.6141
     30 N3          2.7120    0.8899   -2.7163 N.2       1 ATP        -0.5913
     31 C4          1.3803    0.9684   -2.9805 C.ar      1 ATP         0.0067
     32 HOG3        5.3813    1.3028   -6.2882 H         1 ATP         0.4313
     33 HOB2        8.2460    4.6571   -2.6241 H         1 ATP         0.4716
     34 H5'1        4.3180    1.3550   -0.6470 H         1 ATP         0.0452
     35 H5'2        4.6084    1.5739    1.0983 H         1 ATP         0.0452
     36 H4'         2.3751    2.7029    1.3156 H         1 ATP         0.0998
     37 H3'         2.4336   -0.1217   -0.0015 H         1 ATP         0.0544
     38 HO3'        1.7160   -0.6716    2.0397 H         1 ATP         0.3961
     39 H2'         0.0316    0.0155   -0.0339 H         1 ATP         0.0499
     40 HO2'       -0.1608    0.7921    2.1351 H         1 ATP         0.4045
     41 H1'        -0.1474    2.7798   -0.6651 H         1 ATP         0.0912
     42 H8         -1.7076    1.6648   -2.3398 H         1 ATP         0.1090
     43 HN62        1.4266   -0.6890   -6.9943 H         1 ATP         0.3694
     44 H2          4.4251    0.2326   -3.7294 H         1 ATP         0.0371
     45 H45         3.3750   -0.4100   -5.6572 H         1 ATP         0.4283
@<TRIPOS>BOND
     1    1    2 2
     2    1    3 1
     3    1    4 1
     4    1    8 1
     5    4   32 1
     6    5    6 2
     7    5    7 1
     8    5    8 1
     9    5   12 1
    10    7   33 1
    11    9   10 2
    12    9   11 1
    13    9   12 1
    14    9   13 1
    15   13   14 1
    16   14   15 1
    17   14   34 1
    18   14   35 1
    19   15   16 1
    20   15   17 1
    21   15   36 1
    22   16   21 1
    23   17   18 1
    24   17   19 1
    25   17   37 1
    26   18   38 1
    27   19   20 1
    28   19   21 1
    29   19   39 1
    30   20   40 1
    31   21   22 1
    32   21   41 1
    33   22   23 ar
    34   22   31 ar
    35   23   24 ar
    36   23   42 1
    37   24   25 ar
    38   25   26 ar
    39   25   31 ar
    40   26   27 2
    41   26   28 ar
    42   27   43 1
    43   28   29 ar
    44   28   45 1
    45   29   30 ar
    46   29   44 1
    47   30   31 ar
@<TRIPOS>SUBSTRUCTURE
     1 ATP         1 GROUP 0 A     ****
@<TRIPOS>MOLECULE
[[[3,4-dihydroxy-5-(6-imino-1~{H}-purin-9-yl)tetrahydrofuran-2-yl]methoxy-oxido-phosphoryl]oxy-hydroxy-phosphoryl] hydrogen phosphate
   45    47     1     0     0
SMALL
USER_CHARGES

@<TRIPOS>ATOM
      1 PG         -3.6249    5.6587   -3.1229 P.3       1 ATP         1.5496
      2 O1G        -5.0048    6.0640   -2.6544 O.co2     1 ATP        -0.8494
      3 O2G        -3.4442    4.5715   -4.1586 O.co2     1 ATP        -0.8494
      4 O3G        -2.8370    6.9954   -3.6316 O.3       1 ATP        -0.7845
      5 PB         -2.3937    6.1799   -0.4942 P.3       1 ATP         1.9068
      6 O1B        -1.7273    7.5016   -0.7373 O.2       1 ATP        -0.8942
      7 O2B        -3.8234    6.2609    0.2561 O.3       1 ATP        -0.8166
      8 O3B        -2.7061    5.3111   -1.8210 O.3       1 ATP        -0.8194
      9 PA         -0.0887    4.4443    0.1194 P.3       1 ATP         1.5903
     10 O1A         0.9662    5.5280    0.1728 O.co2     1 ATP        -0.8519
     11 O2A        -0.1996    3.5315   -1.0824 O.co2     1 ATP        -0.8519
     12 O3A        -1.5511    5.1197    0.3865 O.3       1 ATP        -0.8093
     13 O5'         0.0180    3.5131    1.4595 O.3       1 ATP        -0.5649
     14 C5'        -0.8811    2.4285    1.6206 C.3       1 ATP         0.1979
     15 C4'        -0.1994    1.3333    2.4288 C.3       1 ATP         0.1179
     16 O4'        -1.1285    0.2356    2.5840 O.3       1 ATP        -0.3878
     17 C3'         1.0324    0.7610    1.7344 C.3       1 ATP         0.1185
     18 O3'         1.9175    0.2377    2.7247 O.3       1 ATP        -0.5544
     19 C2'         0.4468   -0.3802    0.9263 C.3       1 ATP         0.0542
     20 O2'         1.3993   -1.3703    0.5961 O.3       1 ATP        -0.5831
     21 C1'        -0.6159   -0.9100    1.8769 C.3       1 ATP         0.2222
     22 N9         -1.7127   -1.6108    1.2130 N.pl3     1 ATP        -0.1887
     23 C8         -1.7690   -2.9583    0.9549 C.ar      1 ATP         0.4447
     24 N7         -2.8827   -3.3076    0.3418 N.2       1 ATP        -0.6159
     25 C5         -3.5683   -2.1351    0.2017 C.ar      1 ATP         0.2195
     26 C6         -4.8617   -1.9185   -0.4044 C.ar      1 ATP         0.6144
     27 N6         -5.5166   -2.9094   -0.8994 N.2       1 ATP        -0.8160
     28 N1         -5.1836   -0.5701   -0.3344 N.pl3     1 ATP        -0.8611
     29 C2         -4.3821    0.4180    0.2330 C.ar      1 ATP         0.6141
     30 N3         -3.2117    0.2488    0.7860 N.2       1 ATP        -0.5913
     31 C4         -2.8672   -1.0657    0.7327 C.ar      1 ATP         0.0067
     32 HOG3       -1.9212    6.8973   -3.9689 H         1 ATP         0.4313
     33 HOB2       -4.5525    6.7640   -0.1652 H         1 ATP         0.4716
     34 H5'1       -1.7770    2.7851    2.1387 H         1 ATP         0.0452
     35 H5'2       -1.1653    2.0543    0.6320 H         1 ATP         0.0452
     36 H4'         0.0403    1.7078    3.4343 H         1 ATP         0.0998
     37 H3'         1.5906    1.4859    1.1353 H         1 ATP         0.0544
     38 HO3'        2.6839   -0.1150    2.2479 H         1 ATP         0.3961
     39 H2'        -0.0017    0.0018    0.0005 H         1 ATP         0.0499
     40 HO2'        2.0953   -0.9375    0.0709 H         1 ATP         0.4045
     41 H1'        -0.1998   -1.6319    2.6178 H         1 ATP         0.0912
     42 H8         -0.9697   -3.6300    1.2371 H         1 ATP         0.1090
     43 HN62       -6.4060   -2.5723   -1.2840 H         1 ATP         0.3694
     44 H2         -4.8409    1.4176    0.1757 H         1 ATP         0.0371
     45 H45        -6.0768   -0.2826   -0.7263 H         1 ATP         0.4283
@<TRIPOS>BOND
     1    1    2 2
     2    1    3 1
     3    1    4 1
     4    1    8 1
     5    4   32 1
     6    5    6 2
     7    5    7 1
     8    5    8 1
     9    5   12 1
    10    7   33 1
    11    9   10 2
    12    9   11 1
    13    9   12 1
    14    9   13 1
    15   13   14 1
    16   14   15 1
    17   14   34 1
    18   14   35 1
    19   15   16 1
    20   15   17 1
    21   15   36 1
    22   16   21 1
    23   17   18 1
    24   17   19 1
    25   17   37 1
    26   18   38 1
    27   19   20 1
    28   19   21 1
    29   19   39 1
    30   20   40 1
    31   21   22 1
    32   21   41 1
    33   22   23 ar
    34   22   31 ar
    35   23   24 ar
    36   23   42 1
    37   24   25 ar
    38   25   26 ar
    39   25   31 ar
    40   26   27 2
    41   26   28 ar
    42   27   43 1
    43   28   29 ar
    44   28   45 1
    45   29   30 ar
    46   29   44 1
    47   30   31 ar
@<TRIPOS>SUBSTRUCTURE
     1 ATP         1 GROUP 0 A     ****
@<TRIPOS>MOLECULE
[[[3,4-dihydroxy-5-(6-imino-1~{H}-purin-9-yl)tetrahydrofuran-2-yl]methoxy-oxido-phosphoryl]oxy-hydroxy-phosphoryl] hydrogen phosphate
   45    47     1     0     0
SMALL
USER_CHARGES

@<TRIPOS>ATOM
      1 PG          0.3736    4.6196   -4.4946 P.3       1 ATP         1.5496
      2 O1G         1.3173    5.7445   -4.8575 O.co2     1 ATP        -0.8494
      3 O2G        -1.0207    4.5567   -5.0771 O.co2     1 ATP        -0.8494
      4 O3G         1.1230    3.1991   -4.7891 O.3       1 ATP        -0.7845
      5 PB         -0.3456    5.5416   -1.7871 P.3       1 ATP         1.9068
      6 O1B         0.2824    6.9037   -1.7627 O.2       1 ATP        -0.8942
      7 O2B        -1.9300    5.5230   -2.1077 O.3       1 ATP        -0.8166
      8 O3B         0.2764    4.5152   -2.8699 O.3       1 ATP        -0.8194
      9 PA         -0.7384    5.0053    1.0868 P.3       1 ATP         1.5903
     10 O1A        -2.2516    5.0190    1.0856 O.co2     1 ATP        -0.8519
     11 O2A         0.0453    6.1849    1.6198 O.co2     1 ATP        -0.8519
     12 O3A        -0.2137    4.6826   -0.4254 O.3       1 ATP        -0.8093
     13 O5'        -0.2061    3.6558    1.8418 O.3       1 ATP        -0.5649
     14 C5'        -0.8811    2.4285    1.6206 C.3       1 ATP         0.1979
     15 C4'        -0.1994    1.3333    2.4288 C.3       1 ATP         0.1179
     16 O4'        -1.1285    0.2356    2.5840 O.3       1 ATP        -0.3878
     17 C3'         1.0324    0.7610    1.7344 C.3       1 ATP         0.1185
     18 O3'         1.9175    0.2377    2.7247 O.3       1 ATP        -0.5544
     19 C2'         0.4468   -0.3802    0.9263 C.3       1 ATP         0.0542
     20 O2'         1.3993   -1.3703    0.5961 O.3       1 ATP        -0.5831
     21 C1'        -0.6159   -0.9100    1.8769 C.3       1 ATP         0.2222
     22 N9         -1.7127   -1.6108    1.2130 N.pl3     1 ATP        -0.1887
     23 C8         -2.5485   -1.0808    0.2609 C.ar      1 ATP         0.4447
     24 N7         -3.4476   -1.9486   -0.1593 N.2       1 ATP        -0.6159
     25 C5         -3.1762   -3.0816    0.5530 C.ar      1 ATP         0.2195
     26 C6         -3.8510   -4.3579    0.5006 C.ar      1 ATP         0.6144
     27 N6         -4.8468   -4.5293   -0.2961 N.2       1 ATP        -0.8160
     28 N1         -3.2499   -5.2342    1.3937 N.pl3     1 ATP        -0.8611
     29 C2         -2.1646   -4.9275    2.2116 C.ar      1 ATP         0.6141
     30 N3         -1.5382   -3.7840    2.2778 N.2       1 ATP        -0.5913
     31 C4         -2.1054   -2.9018    1.4120 C.ar      1 ATP         0.0067
     32 HOG3        0.6370    2.3676   -4.6029 H         1 ATP         0.4313
     33 HOB2       -2.5413    6.0007   -1.5074 H         1 ATP         0.4716
     34 H5'1       -1.9255    2.5382    1.9293 H         1 ATP         0.0452
     35 H5'2       -0.8473    2.1932    0.5521 H         1 ATP         0.0452
     36 H4'         0.0403    1.7078    3.4343 H         1 ATP         0.0998
     37 H3'         1.5906    1.4859    1.1353 H         1 ATP         0.0544
     38 HO3'        2.6839   -0.1150    2.2479 H         1 ATP         0.3961
     39 H2'        -0.0017    0.0018    0.0005 H         1 ATP         0.0499
     40 HO2'        2.0953   -0.9375    0.0709 H         1 ATP         0.4045
     41 H1'        -0.1998   -1.6319    2.6178 H         1 ATP         0.0912
     42 H8         -2.4515   -0.0599   -0.0829 H         1 ATP         0.1090
     43 HN62       -5.1990   -5.4882   -0.2004 H         1 ATP         0.3694
     44 H2         -1.8555   -5.7783    2.8388 H         1 ATP         0.0371
     45 H45        -3.6312   -6.1750    1.4526 H         1 ATP         0.4283
@<TRIPOS>BOND
     1    1    2 2
     2    1    3 1
     3    1    4 1
     4    1    8 1
     5    4   32 1
     6    5    6 2
     7    5    7 1
     8    5    8 1
     9    5   12 1
    10    7   33 1
    11    9   10 2
    12    9   11 1
    13    9   12 1
    14    9   13 1
    15   13   14 1
    16   14   15 1
    17   14   34 1
    18   14   35 1
    19   15   16 1
    20   15   17 1
    21   15   36 1
    22   16   21 1
    23   17   18 1
    24   17   19 1
    25   17   37 1
    26   18   38 1
    27   19   20 1
    28   19   21 1
    29   19   39 1
    30   20   40 1
    31   21   22 1
    32   21   41 1
    33   22   23 ar
    34   22   31 ar
    35   23   24 ar
    36   23   42 1
    37   24   25 ar
    38   25   26 ar
    39   25   31 ar
    40   26   27 2
    41   26   28 ar
    42   27   43 1
    43   28   29 ar
    44   28   45 1
    45   29   30 ar
    46   29   44 1
    47   30   31 ar
@<TRIPOS>SUBSTRUCTURE
     1 ATP         1 GROUP 0 A     ****
@<TRIPOS>MOLECULE
[[[3,4-dihydroxy-5-(6-imino-1~{H}-purin-9-yl)tetrahydrofuran-2-yl]methoxy-oxido-phosphoryl]oxy-hydroxy-phosphoryl] hydrogen phosphate
   45    47     1     0     0
SMALL
USER_CHARGES

@<TRIPOS>ATOM
      1 PG         -4.8850    7.4127    1.2286 P.3       1 ATP         1.5496
      2 O1G        -5.6999    6.5514    0.2896 O.co2     1 ATP        -0.8494
      3 O2G        -4.3520    8.7567    0.7848 O.co2     1 ATP        -0.8494
      4 O3G        -5.7331    7.6212    2.6082 O.3       1 ATP        -0.7845
      5 PB         -2.3594    5.8957    1.0927 P.3       1 ATP         1.9068
      6 O1B        -2.6579    4.9240   -0.0105 O.2       1 ATP        -0.8942
      7 O2B        -1.5031    7.1935    0.6498 O.3       1 ATP        -0.8166
      8 O3B        -3.6551    6.5241    1.8270 O.3       1 ATP        -0.8194
      9 PA         -1.9154    4.0917    3.3839 P.3       1 ATP         1.5903
     10 O1A        -3.2731    4.3718    3.9906 O.co2     1 ATP        -0.8519
     11 O2A        -0.7135    3.8304    4.2652 O.co2     1 ATP        -0.8519
     12 O3A        -1.5408    5.2999    2.3514 O.3       1 ATP        -0.8093
     13 O5'        -2.0402    2.8619    2.3130 O.3       1 ATP        -0.5649
     14 C5'        -0.8811    2.4285    1.6206 C.3       1 ATP         0.1979
     15 C4'        -0.1994    1.3333    2.4288 C.3       1 ATP         0.1179
     16 O4'        -1.1285    0.2356    2.5840 O.3       1 ATP        -0.3878
     17 C3'         1.0324    0.7610    1.7344 C.3       1 ATP         0.1185
     18 O3'         1.9175    0.2377    2.7247 O.3       1 ATP        -0.5544
     19 C2'         0.4468   -0.3802    0.9263 C.3       1 ATP         0.0542
     20 O2'         1.3993   -1.3703    0.5961 O.3       1 ATP        -0.5831
     21 C1'        -0.6159   -0.9100    1.8769 C.3       1 ATP         0.2222
     22 N9         -1.7127   -1.6108    1.2130 N.pl3     1 ATP        -0.1887
     23 C8         -2.8662   -1.0361    0.7388 C.ar      1 ATP         0.4447
     24 N7         -3.6774   -1.9166    0.1867 N.2       1 ATP        -0.6159
     25 C5         -3.0159   -3.1045    0.3123 C.ar      1 ATP         0.2195
     26 C6         -3.4377   -4.4169   -0.1199 C.ar      1 ATP         0.6144
     27 N6         -4.5720   -4.5691   -0.7080 N.2       1 ATP        -0.8160
     28 N1         -2.4600   -5.3463    0.2071 N.pl3     1 ATP        -0.8611
     29 C2         -1.2595   -5.0554    0.8515 C.ar      1 ATP         0.6141
     30 N3         -0.8555   -3.8803    1.2516 N.2       1 ATP        -0.5913
     31 C4         -1.7946   -2.9457    0.9448 C.ar      1 ATP         0.0067
     32 HOG3       -5.3354    8.1620    3.3234 H         1 ATP         0.4313
     33 HOB2       -1.8699    7.7932   -0.0343 H         1 ATP         0.4716
     34 H5'1       -1.1769    2.0503    0.6369 H         1 ATP         0.0452
     35 H5'2       -0.2081    3.2815    1.4877 H         1 ATP         0.0452
     36 H4'         0.0403    1.7078    3.4343 H         1 ATP         0.0998
     37 H3'         1.5906    1.4859    1.1353 H         1 ATP         0.0544
     38 HO3'        2.6839   -0.1150    2.2479 H         1 ATP         0.3961
     39 H2'        -0.0017    0.0018    0.0005 H         1 ATP         0.0499
     40 HO2'        2.0953   -0.9375    0.0709 H         1 ATP         0.4045
     41 H1'        -0.1998   -1.6319    2.6178 H         1 ATP         0.0912
     42 H8         -3.0558    0.0252    0.8256 H         1 ATP         0.1090
     43 HN62       -4.7047   -5.5592   -0.9421 H         1 ATP         0.3694
     44 H2         -0.6372   -5.9505    1.0077 H         1 ATP         0.0371
     45 H45        -2.6338   -6.3155   -0.0469 H         1 ATP         0.4283
@<TRIPOS>BOND
     1    1    2 2
     2    1    3 1
     3    1    4 1
     4    1    8 1
     5    4   32 1
     6    5    6 2
     7    5    7 1
     8    5    8 1
     9    5   12 1
    10    7   33 1
    11    9   10 2
    12    9   11 1
    13    9   12 1
    14    9   13 1
    15   13   14 1
    16   14   15 1
    17   14   34 1
    18   14   35 1
    19   15   16 1
    20   15   17 1
    21   15   36 1
    22   16   21 1
    23   17   18 1
    24   17   19 1
    25   17   37 1
    26   18   38 1
    27   19   20 1
    28   19   21 1
    29   19   39 1
    30   20   40 1
    31   21   22 1
    32   21   41 1
    33   22   23 ar
    34   22   31 ar
    35   23   24 ar
    36   23   42 1
    37   24   25 ar
    38   25   26 ar
    39   25   31 ar
    40   26   27 2
    41   26   28 ar
    42   27   43 1
    43   28   29 ar
    44   28   45 1
    45   29   30 ar
    46   29   44 1
    47   30   31 ar
@<TRIPOS>SUBSTRUCTURE
     1 ATP         1 GROUP 0 A     ****
@<TRIPOS>MOLECULE
[[[3,4-dihydroxy-5-(6-imino-1~{H}-purin-9-yl)tetrahydrofuran-2-yl]methoxy-oxido-phosphoryl]oxy-hydroxy-phosphoryl] hydrogen phosphate
   45    47     1     0     0
SMALL
USER_CHARGES

@<TRIPOS>ATOM
      1 PG         -1.1474    7.0493    6.8454 P.3       1 ATP         1.5496
      2 O1G        -1.2606    8.4726    6.3463 O.co2     1 ATP        -0.8494
      3 O2G        -0.0266    6.6384    7.7741 O.co2     1 ATP        -0.8494
      4 O3G        -2.5685    6.6250    7.5285 O.3       1 ATP        -0.7845
      5 PB         -0.1097    5.8256    4.3708 P.3       1 ATP         1.9068
      6 O1B         0.1601    7.0397    3.5319 O.2       1 ATP        -0.8942
      7 O2B         1.1841    5.2067    5.1167 O.3       1 ATP        -0.8166
      8 O3B        -1.1765    6.0373    5.5666 O.3       1 ATP        -0.8194
      9 PA         -2.1560    4.4277    2.7709 P.3       1 ATP         1.5903
     10 O1A        -2.0925    5.3168    1.5480 O.co2     1 ATP        -0.8519
     11 O2A        -3.2979    4.5484    3.7564 O.co2     1 ATP        -0.8519
     12 O3A        -0.7523    4.5635    3.5939 O.3       1 ATP        -0.8093
     13 O5'        -2.0402    2.8619    2.3130 O.3       1 ATP        -0.5649
     14 C5'        -0.8811    2.4285    1.6206 C.3       1 ATP         0.1979
     15 C4'        -0.1994    1.3333    2.4288 C.3       1 ATP         0.1179
     16 O4'        -1.1285    0.2356    2.5840 O.3       1 ATP        -0.3878
     17 C3'         1.0324    0.7610    1.7344 C.3       1 ATP         0.1185
     18 O3'         1.9175    0.2377    2.7247 O.3       1 ATP        -0.5544
     19 C2'         0.4468   -0.3802    0.9263 C.3       1 ATP         0.0542
     20 O2'         1.3993   -1.3703    0.5961 O.3       1 ATP        -0.5831
     21 C1'        -0.6159   -0.9100    1.8769 C.3       1 ATP         0.2222
     22 N9         -1.7127   -1.6108    1.2130 N.pl3     1 ATP        -0.1887
     23 C8         -1.7690   -2.9583    0.9549 C.ar      1 ATP         0.4447
     24 N7         -2.8827   -3.3076    0.3418 N.2       1 ATP        -0.6159
     25 C5         -3.5683   -2.1351    0.2017 C.ar      1 ATP         0.2195
     26 C6         -4.8617   -1.9185   -0.4044 C.ar      1 ATP         0.6144
     27 N6         -5.5166   -2.9094   -0.8994 N.2       1 ATP        -0.8160
     28 N1         -5.1836   -0.5701   -0.3344 N.pl3     1 ATP        -0.8611
     29 C2         -4.3821    0.4180    0.2330 C.ar      1 ATP         0.6141
     30 N3         -3.2117    0.2488    0.7860 N.2       1 ATP        -0.5913
     31 C4         -2.8672   -1.0657    0.7327 C.ar      1 ATP         0.0067
     32 HOG3       -2.6553    5.7227    7.9032 H         1 ATP         0.4313
     33 HOB2        1.6792    5.7672    5.7515 H         1 ATP         0.4716
     34 H5'1       -1.1769    2.0503    0.6369 H         1 ATP         0.0452
     35 H5'2       -0.2081    3.2815    1.4877 H         1 ATP         0.0452
     36 H4'         0.0403    1.7078    3.4343 H         1 ATP         0.0998
     37 H3'         1.5906    1.4859    1.1353 H         1 ATP         0.0544
     38 HO3'        2.6839   -0.1150    2.2479 H         1 ATP         0.3961
     39 H2'        -0.0017    0.0018    0.0005 H         1 ATP         0.0499
     40 HO2'        2.0953   -0.9375    0.0709 H         1 ATP         0.4045
     41 H1'        -0.1998   -1.6319    2.6178 H         1 ATP         0.0912
     42 H8         -0.9697   -3.6300    1.2371 H         1 ATP         0.1090
     43 HN62       -6.4060   -2.5723   -1.2840 H         1 ATP         0.3694
     44 H2         -4.8409    1.4176    0.1757 H         1 ATP         0.0371
     45 H45        -6.0768   -0.2826   -0.7263 H         1 ATP         0.4283
@<TRIPOS>BOND
     1    1    2 2
     2    1    3 1
     3    1    4 1
     4    1    8 1
     5    4   32 1
     6    5    6 2
     7    5    7 1
     8    5    8 1
     9    5   12 1
    10    7   33 1
    11    9   10 2
    12    9   11 1
    13    9   12 1
    14    9   13 1
    15   13   14 1
    16   14   15 1
    17   14   34 1
    18   14   35 1
    19   15   16 1
    20   15   17 1
    21   15   36 1
    22   16   21 1
    23   17   18 1
    24   17   19 1
    25   17   37 1
    26   18   38 1
    27   19   20 1
    28   19   21 1
    29   19   39 1
    30   20   40 1
    31   21   22 1
    32   21   41 1
    33   22   23 ar
    34   22   31 ar
    35   23   24 ar
    36   23   42 1
    37   24   25 ar
    38   25   26 ar
    39   25   31 ar
    40   26   27 2
    41   26   28 ar
    42   27   43 1
    43   28   29 ar
    44   28   45 1
    45   29   30 ar
    46   29   44 1
    47   30   31 ar
@<TRIPOS>SUBSTRUCTURE
     1 ATP         1 GROUP 0 A     ****
@<TRIPOS>MOLECULE
[[[3,4-dihydroxy-5-(6-imino-1~{H}-purin-9-yl)tetrahydrofuran-2-yl]methoxy-oxido-phosphoryl]oxy-hydroxy-phosphoryl] hydrogen phosphate
   45    47     1     0     0
SMALL
USER_CHARGES

@<TRIPOS>ATOM
      1 PG         -0.4349    6.8398   -1.0901 P.3       1 ATP         1.5496
      2 O1G         0.3794    6.0703   -0.0741 O.co2     1 ATP        -0.8494
      3 O2G        -0.7883    8.2927   -0.8631 O.co2     1 ATP        -0.8494
      4 O3G         0.2915    6.7045   -2.5462 O.3       1 ATP        -0.7845
      5 PB         -3.0713    5.6677   -0.4792 P.3       1 ATP         1.9068
      6 O1B        -3.8087    6.8610    0.0526 O.2       1 ATP        -0.8942
      7 O2B        -3.9567    4.6624   -1.3842 O.3       1 ATP        -0.8166
      8 O3B        -1.7980    6.0055   -1.4158 O.3       1 ATP        -0.8194
      9 PA         -3.0798    3.8626    1.8537 P.3       1 ATP         1.5903
     10 O1A        -3.9734    2.7896    1.2704 O.co2     1 ATP        -0.8519
     11 O2A        -3.6164    4.8487    2.8682 O.co2     1 ATP        -0.8519
     12 O3A        -2.4006    4.7043    0.6305 O.3       1 ATP        -0.8093
     13 O5'        -1.7337    3.1724    2.4752 O.3       1 ATP        -0.5649
     14 C5'        -0.8811    2.4285    1.6206 C.3       1 ATP         0.1979
     15 C4'        -0.1994    1.3333    2.4288 C.3       1 ATP         0.1179
     16 O4'        -1.1285    0.2356    2.5840 O.3       1 ATP        -0.3878
     17 C3'         1.0324    0.7610    1.7344 C.3       1 ATP         0.1185
     18 O3'         1.9175    0.2377    2.7247 O.3       1 ATP        -0.5544
     19 C2'         0.4468   -0.3802    0.9263 C.3       1 ATP         0.0542
     20 O2'         1.3993   -1.3703    0.5961 O.3       1 ATP        -0.5831
     21 C1'        -0.6159   -0.9100    1.8769 C.3       1 ATP         0.2222
     22 N9         -1.7127   -1.6108    1.2130 N.pl3     1 ATP        -0.1887
     23 C8         -2.0868   -2.9137    1.4327 C.ar      1 ATP         0.4447
     24 N7         -3.1125   -3.2756    0.6878 N.2       1 ATP        -0.6159
     25 C5         -3.4079   -2.1580   -0.0391 C.ar      1 ATP         0.2195
     26 C6         -4.4483   -1.9775   -1.0249 C.ar      1 ATP         0.6144
     27 N6         -5.2418   -2.9492   -1.3113 N.2       1 ATP        -0.8160
     28 N1         -4.3937   -0.6823   -1.5211 N.pl3     1 ATP        -0.8611
     29 C2         -3.4770    0.2901   -1.1271 C.ar      1 ATP         0.6141
     30 N3         -2.5289    0.1525   -0.2403 N.2       1 ATP        -0.5913
     31 C4         -2.5564   -1.1096    0.2655 C.ar      1 ATP         0.0067
     32 HOG3       -0.1191    7.1526   -3.3161 H         1 ATP         0.4313
     33 HOB2       -4.7441    4.2341   -0.9858 H         1 ATP         0.4716
     34 H5'1       -1.4801    1.9928    0.8147 H         1 ATP         0.0452
     35 H5'2       -0.1369    3.1041    1.1872 H         1 ATP         0.0452
     36 H4'         0.0403    1.7078    3.4343 H         1 ATP         0.0998
     37 H3'         1.5906    1.4859    1.1353 H         1 ATP         0.0544
     38 HO3'        2.6839   -0.1150    2.2479 H         1 ATP         0.3961
     39 H2'        -0.0017    0.0018    0.0005 H         1 ATP         0.0499
     40 HO2'        2.0953   -0.9375    0.0709 H         1 ATP         0.4045
     41 H1'        -0.1998   -1.6319    2.6178 H         1 ATP         0.0912
     42 H8         -1.5740   -3.5449    2.1457 H         1 ATP         0.1090
     43 HN62       -5.9117   -2.6433   -2.0256 H         1 ATP         0.3694
     44 H2         -3.6225    1.2454   -1.6553 H         1 ATP         0.0371
     45 H45        -5.0794   -0.4231   -2.2258 H         1 ATP         0.4283
@<TRIPOS>BOND
     1    1    2 2
     2    1    3 1
     3    1    4 1
     4    1    8 1
     5    4   32 1
     6    5    6 2
     7    5    7 1
     8    5    8 1
     9    5   12 1
    10    7   33 1
    11    9   10 2
    12    9   11 1
    13    9   12 1
    14    9   13 1
    15   13   14 1
    16   14   15 1
    17   14   34 1
    18   14   35 1
    19   15   16 1
    20   15   17 1
    21   15   36 1
    22   16   21 1
    23   17   18 1
    24   17   19 1
    25   17   37 1
    26   18   38 1
    27   19   20 1
    28   19   21 1
    29   19   39 1
    30   20   40 1
    31   21   22 1
    32   21   41 1
    33   22   23 ar
    34   22   31 ar
    35   23   24 ar
    36   23   42 1
    37   24   25 ar
    38   25   26 ar
    39   25   31 ar
    40   26   27 2
    41   26   28 ar
    42   27   43 1
    43   28   29 ar
    44   28   45 1
    45   29   30 ar
    46   29   44 1
    47   30   31 ar
@<TRIPOS>SUBSTRUCTURE
     1 ATP         1 GROUP 0 A     ****
@<TRIPOS>MOLECULE
[[[3,4-dihydroxy-5-(6-imino-1~{H}-purin-9-yl)tetrahydrofuran-2-yl]methoxy-oxido-phosphoryl]oxy-hydroxy-phosphoryl] hydrogen phosphate
   45    47     1     0     0
SMALL
USER_CHARGES

@<TRIPOS>ATOM
      1 PG          0.3736    4.6196   -4.4946 P.3       1 ATP         1.5496
      2 O1G         1.3173    5.7445   -4.8575 O.co2     1 ATP        -0.8494
      3 O2G        -1.0207    4.5567   -5.0771 O.co2     1 ATP        -0.8494
      4 O3G         1.1230    3.1991   -4.7891 O.3       1 ATP        -0.7845
      5 PB         -0.3456    5.5416   -1.7871 P.3       1 ATP         1.9068
      6 O1B         0.2824    6.9037   -1.7627 O.2       1 ATP        -0.8942
      7 O2B        -1.9300    5.5230   -2.1077 O.3       1 ATP        -0.8166
      8 O3B         0.2764    4.5152   -2.8699 O.3       1 ATP        -0.8194
      9 PA         -0.7384    5.0053    1.0868 P.3       1 ATP         1.5903
     10 O1A        -2.2516    5.0190    1.0856 O.co2     1 ATP        -0.8519
     11 O2A         0.0453    6.1849    1.6198 O.co2     1 ATP        -0.8519
     12 O3A        -0.2137    4.6826   -0.4254 O.3       1 ATP        -0.8093
     13 O5'        -0.2061    3.6558    1.8418 O.3       1 ATP        -0.5649
     14 C5'        -0.8811    2.4285    1.6206 C.3       1 ATP         0.1979
     15 C4'        -0.1994    1.3333    2.4288 C.3       1 ATP         0.1179
     16 O4'        -1.1285    0.2356    2.5840 O.3       1 ATP        -0.3878
     17 C3'         1.0324    0.7610    1.7344 C.3       1 ATP         0.1185
     18 O3'         1.9175    0.2377    2.7247 O.3       1 ATP        -0.5544
     19 C2'         0.4468   -0.3802    0.9263 C.3       1 ATP         0.0542
     20 O2'         1.3993   -1.3703    0.5961 O.3       1 ATP        -0.5831
     21 C1'        -0.6159   -0.9100    1.8769 C.3       1 ATP         0.2222
     22 N9         -1.7127   -1.6108    1.2130 N.pl3     1 ATP        -0.1887
     23 C8         -2.0868   -2.9137    1.4327 C.ar      1 ATP         0.4447
     24 N7         -3.1125   -3.2756    0.6878 N.2       1 ATP        -0.6159
     25 C5         -3.4079   -2.1580   -0.0391 C.ar      1 ATP         0.2195
     26 C6         -4.4483   -1.9775   -1.0249 C.ar      1 ATP         0.6144
     27 N6         -5.2418   -2.9492   -1.3113 N.2       1 ATP        -0.8160
     28 N1         -4.3937   -0.6823   -1.5211 N.pl3     1 ATP        -0.8611
     29 C2         -3.4770    0.2901   -1.1271 C.ar      1 ATP         0.6141
     30 N3         -2.5289    0.1525   -0.2403 N.2       1 ATP        -0.5913
     31 C4         -2.5564   -1.1096    0.2655 C.ar      1 ATP         0.0067
     32 HOG3        0.6370    2.3676   -4.6029 H         1 ATP         0.4313
     33 HOB2       -2.2459    5.8906   -2.9606 H         1 ATP         0.4716
     34 H5'1       -1.9255    2.5382    1.9293 H         1 ATP         0.0452
     35 H5'2       -0.8473    2.1932    0.5521 H         1 ATP         0.0452
     36 H4'         0.0403    1.7078    3.4343 H         1 ATP         0.0998
     37 H3'         1.5906    1.4859    1.1353 H         1 ATP         0.0544
     38 HO3'        2.6839   -0.1150    2.2479 H         1 ATP         0.3961
     39 H2'        -0.0017    0.0018    0.0005 H         1 ATP         0.0499
     40 HO2'        0.9369   -2.0558    0.0825 H         1 ATP         0.4045
     41 H1'        -0.1998   -1.6319    2.6178 H         1 ATP         0.0912
     42 H8         -1.5740   -3.5449    2.1457 H         1 ATP         0.1090
     43 HN62       -5.9117   -2.6433   -2.0256 H         1 ATP         0.3694
     44 H2         -3.6225    1.2454   -1.6553 H         1 ATP         0.0371
     45 H45        -5.0794   -0.4231   -2.2258 H         1 ATP         0.4283
@<TRIPOS>BOND
     1    1    2 2
     2    1    3 1
     3    1    4 1
     4    1    8 1
     5    4   32 1
     6    5    6 2
     7    5    7 1
     8    5    8 1
     9    5   12 1
    10    7   33 1
    11    9   10 2
    12    9   11 1
    13    9   12 1
    14    9   13 1
    15   13   14 1
    16   14   15 1
    17   14   34 1
    18   14   35 1
    19   15   16 1
    20   15   17 1
    21   15   36 1
    22   16   21 1
    23   17   18 1
    24   17   19 1
    25   17   37 1
    26   18   38 1
    27   19   20 1
    28   19   21 1
    29   19   39 1
    30   20   40 1
    31   21   22 1
    32   21   41 1
    33   22   23 ar
    34   22   31 ar
    35   23   24 ar
    36   23   42 1
    37   24   25 ar
    38   25   26 ar
    39   25   31 ar
    40   26   27 2
    41   26   28 ar
    42   27   43 1
    43   28   29 ar
    44   28   45 1
    45   29   30 ar
    46   29   44 1
    47   30   31 ar
@<TRIPOS>SUBSTRUCTURE
     1 ATP         1 GROUP 0 A     ****
@<TRIPOS>MOLECULE
[[[3,4-dihydroxy-5-(6-imino-1~{H}-purin-9-yl)tetrahydrofuran-2-yl]methoxy-oxido-phosphoryl]oxy-hydroxy-phosphoryl] hydrogen phosphate
   45    47     1     0     0
SMALL
USER_CHARGES

@<TRIPOS>ATOM
      1 PG          6.1262    1.7763   -4.4005 P.3       1 ATP         1.5496
      2 O1G         4.8423    1.5885   -3.6233 O.co2     1 ATP        -0.8494
      3 O2G         7.0955    0.6305   -4.5882 O.co2     1 ATP        -0.8494
      4 O3G         5.7585    2.3899   -5.8683 O.3       1 ATP        -0.7845
      5 PB          7.6342    3.2684   -2.3518 P.3       1 ATP         1.9068
      6 O1B         8.7329    2.2991   -2.0298 O.2       1 ATP        -0.8942
      7 O2B         8.0744    4.8239   -2.3641 O.3       1 ATP        -0.8166
      8 O3B         6.9297    3.0582   -3.7913 O.3       1 ATP        -0.8194
      9 PA          6.2485    3.4952    0.2423 P.3       1 ATP         1.5903
     10 O1A         6.5934    4.9413    0.5251 O.co2     1 ATP        -0.8519
     11 O2A         6.9725    2.3738    0.9551 O.co2     1 ATP        -0.8519
     12 O3A         6.3551    3.2334   -1.3658 O.3       1 ATP        -0.8093
     13 O5'         4.6405    3.2701    0.4379 O.3       1 ATP        -0.5649
     14 C5'         4.0922    1.9801    0.2227 C.3       1 ATP         0.1979
     15 C4'         2.5944    2.0310    0.4653 C.3       1 ATP         0.1179
     16 O4'         1.9327    2.5740   -0.6889 O.3       1 ATP        -0.3878
     17 C3'         1.9685    0.6634    0.6767 C.3       1 ATP         0.1185
     18 O3'         2.1425    0.1975    1.9977 O.3       1 ATP        -0.5544
     19 C2'         0.5176    0.9128    0.3099 C.3       1 ATP         0.0542
     20 O2'        -0.2103    1.4454    1.4152 O.3       1 ATP        -0.5831
     21 C1'         0.6219    1.9765   -0.7844 C.3       1 ATP         0.2222
     22 N9          0.4237    1.4496   -2.1357 N.pl3     1 ATP        -0.1887
     23 C8          1.4069    0.9710   -2.9662 C.ar      1 ATP         0.4447
     24 N7          0.9316    0.5623   -4.1260 N.2       1 ATP        -0.6159
     25 C5         -0.4120    0.7884   -4.0344 C.ar      1 ATP         0.2195
     26 C6         -1.4353    0.5283   -5.0204 C.ar      1 ATP         0.6144
     27 N6         -1.1199    0.0176   -6.1586 N.2       1 ATP        -0.8160
     28 N1         -2.6704    0.9095   -4.5147 N.pl3     1 ATP        -0.8611
     29 C2         -2.8863    1.4571   -3.2520 C.ar      1 ATP         0.6141
     30 N3         -1.9805    1.7017   -2.3442 N.2       1 ATP        -0.5913
     31 C4         -0.7561    1.3381   -2.8112 C.ar      1 ATP         0.0067
     32 HOG3        6.4907    2.5698   -6.4958 H         1 ATP         0.4313
     33 HOB2        8.4400    5.2201   -1.5446 H         1 ATP         0.4716
     34 H5'1        4.3029    1.6730   -0.8066 H         1 ATP         0.0452
     35 H5'2        4.5678    1.2739    0.9106 H         1 ATP         0.0452
     36 H4'         2.3751    2.7029    1.3156 H         1 ATP         0.0998
     37 H3'         2.4336   -0.1217   -0.0015 H         1 ATP         0.0544
     38 HO3'        1.7160   -0.6716    2.0397 H         1 ATP         0.3961
     39 H2'         0.0316    0.0155   -0.0339 H         1 ATP         0.0499
     40 HO2'       -0.1608    0.7921    2.1351 H         1 ATP         0.4045
     41 H1'        -0.1474    2.7798   -0.6651 H         1 ATP         0.0912
     42 H8          2.4466    0.9468   -2.6694 H         1 ATP         0.1090
     43 HN62       -1.9661   -0.0965   -6.7275 H         1 ATP         0.3694
     44 H2         -3.9481    1.6825   -3.0660 H         1 ATP         0.0371
     45 H45        -3.4814    0.7753   -5.1133 H         1 ATP         0.4283
@<TRIPOS>BOND
     1    1    2 2
     2    1    3 1
     3    1    4 1
     4    1    8 1
     5    4   32 1
     6    5    6 2
     7    5    7 1
     8    5    8 1
     9    5   12 1
    10    7   33 1
    11    9   10 2
    12    9   11 1
    13    9   12 1
    14    9   13 1
    15   13   14 1
    16   14   15 1
    17   14   34 1
    18   14   35 1
    19   15   16 1
    20   15   17 1
    21   15   36 1
    22   16   21 1
    23   17   18 1
    24   17   19 1
    25   17   37 1
    26   18   38 1
    27   19   20 1
    28   19   21 1
    29   19   39 1
    30   20   40 1
    31   21   22 1
    32   21   41 1
    33   22   23 ar
    34   22   31 ar
    35   23   24 ar
    36   23   42 1
    37   24   25 ar
    38   25   26 ar
    39   25   31 ar
    40   26   27 2
    41   26   28 ar
    42   27   43 1
    43   28   29 ar
    44   28   45 1
    45   29   30 ar
    46   29   44 1
    47   30   31 ar
@<TRIPOS>SUBSTRUCTURE
     1 ATP         1 GROUP 0 A     ****
@<TRIPOS>MOLECULE
[[[3,4-dihydroxy-5-(6-imino-1~{H}-purin-9-yl)tetrahydrofuran-2-yl]methoxy-oxido-phosphoryl]oxy-hydroxy-phosphoryl] hydrogen phosphate
   45    47     1     0     0
SMALL
USER_CHARGES

@<TRIPOS>ATOM
      1 PG         -5.0213    6.5817   -1.1668 P.3       1 ATP         1.5496
      2 O1G        -6.1303    6.9497   -0.2063 O.co2     1 ATP        -0.8494
      3 O2G        -5.2937    6.4304   -2.6468 O.co2     1 ATP        -0.8494
      4 O3G        -3.7938    7.6406   -0.9712 O.3       1 ATP        -0.7845
      5 PB         -4.8171    3.7199   -0.4843 P.3       1 ATP         1.9068
      6 O1B        -6.0073    3.5445    0.4118 O.2       1 ATP        -0.8942
      7 O2B        -5.0370    3.2502   -2.0155 O.3       1 ATP        -0.8166
      8 O3B        -4.2762    5.2368   -0.6228 O.3       1 ATP        -0.8194
      9 PA         -1.9975    2.8865   -0.7222 P.3       1 ATP         1.5903
     10 O1A        -1.3784    4.2664   -0.6707 O.co2     1 ATP        -0.8519
     11 O2A        -2.1187    2.1418   -2.0339 O.co2     1 ATP        -0.8519
     12 O3A        -3.4744    2.9460   -0.0285 O.3       1 ATP        -0.8093
     13 O5'        -1.2434    1.9102    0.3514 O.3       1 ATP        -0.5649
     14 C5'        -0.8811    2.4285    1.6206 C.3       1 ATP         0.1979
     15 C4'        -0.1994    1.3333    2.4288 C.3       1 ATP         0.1179
     16 O4'        -1.1285    0.2356    2.5840 O.3       1 ATP        -0.3878
     17 C3'         1.0324    0.7610    1.7344 C.3       1 ATP         0.1185
     18 O3'         1.9175    0.2377    2.7247 O.3       1 ATP        -0.5544
     19 C2'         0.4468   -0.3802    0.9263 C.3       1 ATP         0.0542
     20 O2'         1.3993   -1.3703    0.5961 O.3       1 ATP        -0.5831
     21 C1'        -0.6159   -0.9100    1.8769 C.3       1 ATP         0.2222
     22 N9         -1.7127   -1.6108    1.2130 N.pl3     1 ATP        -0.1887
     23 C8         -2.8662   -1.0361    0.7388 C.ar      1 ATP         0.4447
     24 N7         -3.6774   -1.9166    0.1867 N.2       1 ATP        -0.6159
     25 C5         -3.0159   -3.1045    0.3123 C.ar      1 ATP         0.2195
     26 C6         -3.4377   -4.4169   -0.1199 C.ar      1 ATP         0.6144
     27 N6         -4.5720   -4.5691   -0.7080 N.2       1 ATP        -0.8160
     28 N1         -2.4600   -5.3463    0.2071 N.pl3     1 ATP        -0.8611
     29 C2         -1.2595   -5.0554    0.8515 C.ar      1 ATP         0.6141
     30 N3         -0.8555   -3.8803    1.2516 N.2       1 ATP        -0.5913
     31 C4         -1.7946   -2.9457    0.9448 C.ar      1 ATP         0.0067
     32 HOG3       -2.9930    7.5346   -1.5277 H         1 ATP         0.4313
     33 HOB2       -5.7382    3.6822   -2.5483 H         1 ATP         0.4716
     34 H5'1       -0.2034    3.2760    1.4767 H         1 ATP         0.0452
     35 H5'2       -1.7842    2.7761    2.1322 H         1 ATP         0.0452
     36 H4'         0.0403    1.7078    3.4343 H         1 ATP         0.0998
     37 H3'         1.5906    1.4859    1.1353 H         1 ATP         0.0544
     38 HO3'        2.6839   -0.1150    2.2479 H         1 ATP         0.3961
     39 H2'        -0.0017    0.0018    0.0005 H         1 ATP         0.0499
     40 HO2'        2.0953   -0.9375    0.0709 H         1 ATP         0.4045
     41 H1'        -0.1998   -1.6319    2.6178 H         1 ATP         0.0912
     42 H8         -3.0558    0.0252    0.8256 H         1 ATP         0.1090
     43 HN62       -4.7047   -5.5592   -0.9421 H         1 ATP         0.3694
     44 H2         -0.6372   -5.9505    1.0077 H         1 ATP         0.0371
     45 H45        -2.6338   -6.3155   -0.0469 H         1 ATP         0.4283
@<TRIPOS>BOND
     1    1    2 2
     2    1    3 1
     3    1    4 1
     4    1    8 1
     5    4   32 1
     6    5    6 2
     7    5    7 1
     8    5    8 1
     9    5   12 1
    10    7   33 1
    11    9   10 2
    12    9   11 1
    13    9   12 1
    14    9   13 1
    15   13   14 1
    16   14   15 1
    17   14   34 1
    18   14   35 1
    19   15   16 1
    20   15   17 1
    21   15   36 1
    22   16   21 1
    23   17   18 1
    24   17   19 1
    25   17   37 1
    26   18   38 1
    27   19   20 1
    28   19   21 1
    29   19   39 1
    30   20   40 1
    31   21   22 1
    32   21   41 1
    33   22   23 ar
    34   22   31 ar
    35   23   24 ar
    36   23   42 1
    37   24   25 ar
    38   25   26 ar
    39   25   31 ar
    40   26   27 2
    41   26   28 ar
    42   27   43 1
    43   28   29 ar
    44   28   45 1
    45   29   30 ar
    46   29   44 1
    47   30   31 ar
@<TRIPOS>SUBSTRUCTURE
     1 ATP         1 GROUP 0 A     ****
@<TRIPOS>MOLECULE
[[[3,4-dihydroxy-5-(6-imino-1~{H}-purin-9-yl)tetrahydrofuran-2-yl]methoxy-oxido-phosphoryl]oxy-hydroxy-phosphoryl] hydrogen phosphate
   45    47     1     0     0
SMALL
USER_CHARGES

@<TRIPOS>ATOM
      1 PG          7.9933    1.0258   -4.7104 P.3       1 ATP         1.5496
      2 O1G         8.9713    2.0431   -5.2549 O.co2     1 ATP        -0.8494
      3 O2G         7.1682    0.1656   -5.6413 O.co2     1 ATP        -0.8494
      4 O3G         8.7867    0.0496   -3.6694 O.3       1 ATP        -0.7845
      5 PB          5.8709    2.8975   -3.8795 P.3       1 ATP         1.9068
      6 O1B         6.3687    4.1863   -4.4638 O.2       1 ATP        -0.8942
      7 O2B         4.7411    2.1400   -4.7532 O.3       1 ATP        -0.8166
      8 O3B         7.0000    1.7641   -3.6481 O.3       1 ATP        -0.8194
      9 PA          5.8654    3.5045   -0.9929 P.3       1 ATP         1.5903
     10 O1A         6.1808    4.9806   -1.1005 O.co2     1 ATP        -0.8519
     11 O2A         6.9315    2.5141   -0.5777 O.co2     1 ATP        -0.8519
     12 O3A         5.2192    2.9999   -2.4049 O.3       1 ATP        -0.8093
     13 O5'         4.5669    3.2939   -0.0211 O.3       1 ATP        -0.5649
     14 C5'         4.0922    1.9801    0.2227 C.3       1 ATP         0.1979
     15 C4'         2.5944    2.0310    0.4653 C.3       1 ATP         0.1179
     16 O4'         1.9327    2.5740   -0.6889 O.3       1 ATP        -0.3878
     17 C3'         1.9685    0.6634    0.6767 C.3       1 ATP         0.1185
     18 O3'         2.1425    0.1975    1.9977 O.3       1 ATP        -0.5544
     19 C2'         0.5176    0.9128    0.3099 C.3       1 ATP         0.0542
     20 O2'        -0.2103    1.4454    1.4152 O.3       1 ATP        -0.5831
     21 C1'         0.6219    1.9765   -0.7844 C.3       1 ATP         0.2222
     22 N9          0.4237    1.4496   -2.1357 N.pl3     1 ATP        -0.1887
     23 C8          1.4069    0.9710   -2.9662 C.ar      1 ATP         0.4447
     24 N7          0.9316    0.5623   -4.1260 N.2       1 ATP        -0.6159
     25 C5         -0.4120    0.7884   -4.0344 C.ar      1 ATP         0.2195
     26 C6         -1.4353    0.5283   -5.0204 C.ar      1 ATP         0.6144
     27 N6         -1.1199    0.0176   -6.1586 N.2       1 ATP        -0.8160
     28 N1         -2.6704    0.9095   -4.5147 N.pl3     1 ATP        -0.8611
     29 C2         -2.8863    1.4571   -3.2520 C.ar      1 ATP         0.6141
     30 N3         -1.9805    1.7017   -2.3442 N.2       1 ATP        -0.5913
     31 C4         -0.7561    1.3381   -2.8112 C.ar      1 ATP         0.0067
     32 HOG3        8.2849   -0.6686   -3.2284 H         1 ATP         0.4313
     33 HOB2        3.8954    2.6015   -4.9376 H         1 ATP         0.4716
     34 H5'1        4.3180    1.3550   -0.6470 H         1 ATP         0.0452
     35 H5'2        4.6084    1.5739    1.0983 H         1 ATP         0.0452
     36 H4'         2.3751    2.7029    1.3156 H         1 ATP         0.0998
     37 H3'         2.4336   -0.1217   -0.0015 H         1 ATP         0.0544
     38 HO3'        3.0987    0.1465    2.1461 H         1 ATP         0.3961
     39 H2'         0.0316    0.0155   -0.0339 H         1 ATP         0.0499
     40 HO2'       -1.1270    1.5823    1.1180 H         1 ATP         0.4045
     41 H1'        -0.1474    2.7798   -0.6651 H         1 ATP         0.0912
     42 H8          2.4466    0.9468   -2.6694 H         1 ATP         0.1090
     43 HN62       -1.9661   -0.0965   -6.7275 H         1 ATP         0.3694
     44 H2         -3.9481    1.6825   -3.0660 H         1 ATP         0.0371
     45 H45        -3.4814    0.7753   -5.1133 H         1 ATP         0.4283
@<TRIPOS>BOND
     1    1    2 2
     2    1    3 1
     3    1    4 1
     4    1    8 1
     5    4   32 1
     6    5    6 2
     7    5    7 1
     8    5    8 1
     9    5   12 1
    10    7   33 1
    11    9   10 2
    12    9   11 1
    13    9   12 1
    14    9   13 1
    15   13   14 1
    16   14   15 1
    17   14   34 1
    18   14   35 1
    19   15   16 1
    20   15   17 1
    21   15   36 1
    22   16   21 1
    23   17   18 1
    24   17   19 1
    25   17   37 1
    26   18   38 1
    27   19   20 1
    28   19   21 1
    29   19   39 1
    30   20   40 1
    31   21   22 1
    32   21   41 1
    33   22   23 ar
    34   22   31 ar
    35   23   24 ar
    36   23   42 1
    37   24   25 ar
    38   25   26 ar
    39   25   31 ar
    40   26   27 2
    41   26   28 ar
    42   27   43 1
    43   28   29 ar
    44   28   45 1
    45   29   30 ar
    46   29   44 1
    47   30   31 ar
@<TRIPOS>SUBSTRUCTURE
     1 ATP         1 GROUP 0 A     ****
@<TRIPOS>MOLECULE
[[[3,4-dihydroxy-5-(6-imino-1~{H}-purin-9-yl)tetrahydrofuran-2-yl]methoxy-oxido-phosphoryl]oxy-hydroxy-phosphoryl] hydrogen phosphate
   45    47     1     0     0
SMALL
USER_CHARGES

@<TRIPOS>ATOM
      1 PG         -7.2923    3.9759    1.0986 P.3       1 ATP         1.5496
      2 O1G        -8.2574    3.4238    0.0731 O.co2     1 ATP        -0.8494
      3 O2G        -7.2176    5.4610    1.3748 O.co2     1 ATP        -0.8494
      4 O3G        -7.5375    3.1973    2.5128 O.3       1 ATP        -0.7845
      5 PB         -4.8171    3.7199   -0.4843 P.3       1 ATP         1.9068
      6 O1B        -5.3644    3.3405   -1.8285 O.2       1 ATP        -0.8942
      7 O2B        -4.4431    5.2833   -0.3130 O.3       1 ATP        -0.8166
      8 O3B        -5.7950    3.4205    0.7675 O.3       1 ATP        -0.8194
      9 PA         -1.9975    2.8865   -0.7222 P.3       1 ATP         1.5903
     10 O1A        -1.3784    4.2664   -0.6707 O.co2     1 ATP        -0.8519
     11 O2A        -2.1187    2.1418   -2.0339 O.co2     1 ATP        -0.8519
     12 O3A        -3.4744    2.9460   -0.0285 O.3       1 ATP        -0.8093
     13 O5'        -1.2434    1.9102    0.3514 O.3       1 ATP        -0.5649
     14 C5'        -0.8811    2.4285    1.6206 C.3       1 ATP         0.1979
     15 C4'        -0.1994    1.3333    2.4288 C.3       1 ATP         0.1179
     16 O4'        -1.1285    0.2356    2.5840 O.3       1 ATP        -0.3878
     17 C3'         1.0324    0.7610    1.7344 C.3       1 ATP         0.1185
     18 O3'         1.9175    0.2377    2.7247 O.3       1 ATP        -0.5544
     19 C2'         0.4468   -0.3802    0.9263 C.3       1 ATP         0.0542
     20 O2'         1.3993   -1.3703    0.5961 O.3       1 ATP        -0.5831
     21 C1'        -0.6159   -0.9100    1.8769 C.3       1 ATP         0.2222
     22 N9         -1.7127   -1.6108    1.2130 N.pl3     1 ATP        -0.1887
     23 C8         -2.8662   -1.0361    0.7388 C.ar      1 ATP         0.4447
     24 N7         -3.6774   -1.9166    0.1867 N.2       1 ATP        -0.6159
     25 C5         -3.0159   -3.1045    0.3123 C.ar      1 ATP         0.2195
     26 C6         -3.4377   -4.4169   -0.1199 C.ar      1 ATP         0.6144
     27 N6         -4.5720   -4.5691   -0.7080 N.2       1 ATP        -0.8160
     28 N1         -2.4600   -5.3463    0.2071 N.pl3     1 ATP        -0.8611
     29 C2         -1.2595   -5.0554    0.8515 C.ar      1 ATP         0.6141
     30 N3         -0.8555   -3.8803    1.2516 N.2       1 ATP        -0.5913
     31 C4         -1.7946   -2.9457    0.9448 C.ar      1 ATP         0.0067
     32 HOG3       -6.9837    3.4446    3.2838 H         1 ATP         0.4313
     33 HOB2       -5.1492    5.9551   -0.4245 H         1 ATP         0.4716
     34 H5'1       -0.2034    3.2760    1.4767 H         1 ATP         0.0452
     35 H5'2       -1.7842    2.7761    2.1322 H         1 ATP         0.0452
     36 H4'         0.0403    1.7078    3.4343 H         1 ATP         0.0998
     37 H3'         1.5906    1.4859    1.1353 H         1 ATP         0.0544
     38 HO3'        2.1521    0.9800    3.3017 H         1 ATP         0.3961
     39 H2'        -0.0017    0.0018    0.0005 H         1 ATP         0.0499
     40 HO2'        0.9369   -2.0558    0.0825 H         1 ATP         0.4045
     41 H1'        -0.1998   -1.6319    2.6178 H         1 ATP         0.0912
     42 H8         -3.0558    0.0252    0.8256 H         1 ATP         0.1090
     43 HN62       -4.7047   -5.5592   -0.9421 H         1 ATP         0.3694
     44 H2         -0.6372   -5.9505    1.0077 H         1 ATP         0.0371
     45 H45        -2.6338   -6.3155   -0.0469 H         1 ATP         0.4283
@<TRIPOS>BOND
     1    1    2 2
     2    1    3 1
     3    1    4 1
     4    1    8 1
     5    4   32 1
     6    5    6 2
     7    5    7 1
     8    5    8 1
     9    5   12 1
    10    7   33 1
    11    9   10 2
    12    9   11 1
    13    9   12 1
    14    9   13 1
    15   13   14 1
    16   14   15 1
    17   14   34 1
    18   14   35 1
    19   15   16 1
    20   15   17 1
    21   15   36 1
    22   16   21 1
    23   17   18 1
    24   17   19 1
    25   17   37 1
    26   18   38 1
    27   19   20 1
    28   19   21 1
    29   19   39 1
    30   20   40 1
    31   21   22 1
    32   21   41 1
    33   22   23 ar
    34   22   31 ar
    35   23   24 ar
    36   23   42 1
    37   24   25 ar
    38   25   26 ar
    39   25   31 ar
    40   26   27 2
    41   26   28 ar
    42   27   43 1
    43   28   29 ar
    44   28   45 1
    45   29   30 ar
    46   29   44 1
    47   30   31 ar
@<TRIPOS>SUBSTRUCTURE
     1 ATP         1 GROUP 0 A     ****
@<TRIPOS>MOLECULE
[[[3,4-dihydroxy-5-(6-imino-1~{H}-purin-9-yl)tetrahydrofuran-2-yl]methoxy-oxido-phosphoryl]oxy-hydroxy-phosphoryl] hydrogen phosphate
   45    47     1     0     0
SMALL
USER_CHARGES

@<TRIPOS>ATOM
      1 PG          0.8822    7.1689   -2.2373 P.3       1 ATP         1.5496
      2 O1G         0.5210    7.2779   -3.7020 O.co2     1 ATP        -0.8494
      3 O2G         2.2743    7.5082   -1.7530 O.co2     1 ATP        -0.8494
      4 O3G        -0.1943    8.0398   -1.3719 O.3       1 ATP        -0.7845
      5 PB          1.0894    4.2312   -2.0808 P.3       1 ATP         1.9068
      6 O1B         0.9849    3.8505   -3.5281 O.2       1 ATP        -0.8942
      7 O2B         2.5944    4.2821   -1.4925 O.3       1 ATP        -0.8166
      8 O3B         0.4815    5.6807   -1.7038 O.3       1 ATP        -0.8194
      9 PA         -1.2907    2.9170   -0.9365 P.3       1 ATP         1.5903
     10 O1A        -1.6997    2.1404   -2.1692 O.co2     1 ATP        -0.8519
     11 O2A        -2.0351    4.1700   -0.5294 O.co2     1 ATP        -0.8519
     12 O3A         0.2982    3.2774   -1.0446 O.3       1 ATP        -0.8093
     13 O5'        -1.2434    1.9102    0.3514 O.3       1 ATP        -0.5649
     14 C5'        -0.8811    2.4285    1.6206 C.3       1 ATP         0.1979
     15 C4'        -0.1994    1.3333    2.4288 C.3       1 ATP         0.1179
     16 O4'        -1.1285    0.2356    2.5840 O.3       1 ATP        -0.3878
     17 C3'         1.0324    0.7610    1.7344 C.3       1 ATP         0.1185
     18 O3'         1.9175    0.2377    2.7247 O.3       1 ATP        -0.5544
     19 C2'         0.4468   -0.3802    0.9263 C.3       1 ATP         0.0542
     20 O2'         1.3993   -1.3703    0.5961 O.3       1 ATP        -0.5831
     21 C1'        -0.6159   -0.9100    1.8769 C.3       1 ATP         0.2222
     22 N9         -1.7127   -1.6108    1.2130 N.pl3     1 ATP        -0.1887
     23 C8         -2.8662   -1.0361    0.7388 C.ar      1 ATP         0.4447
     24 N7         -3.6774   -1.9166    0.1867 N.2       1 ATP        -0.6159
     25 C5         -3.0159   -3.1045    0.3123 C.ar      1 ATP         0.2195
     26 C6         -3.4377   -4.4169   -0.1199 C.ar      1 ATP         0.6144
     27 N6         -4.5720   -4.5691   -0.7080 N.2       1 ATP        -0.8160
     28 N1         -2.4600   -5.3463    0.2071 N.pl3     1 ATP        -0.8611
     29 C2         -1.2595   -5.0554    0.8515 C.ar      1 ATP         0.6141
     30 N3         -0.8555   -3.8803    1.2516 N.2       1 ATP        -0.5913
     31 C4         -1.7946   -2.9457    0.9448 C.ar      1 ATP         0.0067
     32 HOG3       -0.0943    8.0692   -0.3965 H         1 ATP         0.4313
     33 HOB2        3.2410    4.8996   -1.8961 H         1 ATP         0.4716
     34 H5'1       -0.2034    3.2760    1.4767 H         1 ATP         0.0452
     35 H5'2       -1.7842    2.7761    2.1322 H         1 ATP         0.0452
     36 H4'         0.0403    1.7078    3.4343 H         1 ATP         0.0998
     37 H3'         1.5906    1.4859    1.1353 H         1 ATP         0.0544
     38 HO3'        2.6839   -0.1150    2.2479 H         1 ATP         0.3961
     39 H2'        -0.0017    0.0018    0.0005 H         1 ATP         0.0499
     40 HO2'        2.0953   -0.9375    0.0709 H         1 ATP         0.4045
     41 H1'        -0.1998   -1.6319    2.6178 H         1 ATP         0.0912
     42 H8         -3.0558    0.0252    0.8256 H         1 ATP         0.1090
     43 HN62       -4.7047   -5.5592   -0.9421 H         1 ATP         0.3694
     44 H2         -0.6372   -5.9505    1.0077 H         1 ATP         0.0371
     45 H45        -2.6338   -6.3155   -0.0469 H         1 ATP         0.4283
@<TRIPOS>BOND
     1    1    2 2
     2    1    3 1
     3    1    4 1
     4    1    8 1
     5    4   32 1
     6    5    6 2
     7    5    7 1
     8    5    8 1
     9    5   12 1
    10    7   33 1
    11    9   10 2
    12    9   11 1
    13    9   12 1
    14    9   13 1
    15   13   14 1
    16   14   15 1
    17   14   34 1
    18   14   35 1
    19   15   16 1
    20   15   17 1
    21   15   36 1
    22   16   21 1
    23   17   18 1
    24   17   19 1
    25   17   37 1
    26   18   38 1
    27   19   20 1
    28   19   21 1
    29   19   39 1
    30   20   40 1
    31   21   22 1
    32   21   41 1
    33   22   23 ar
    34   22   31 ar
    35   23   24 ar
    36   23   42 1
    37   24   25 ar
    38   25   26 ar
    39   25   31 ar
    40   26   27 2
    41   26   28 ar
    42   27   43 1
    43   28   29 ar
    44   28   45 1
    45   29   30 ar
    46   29   44 1
    47   30   31 ar
@<TRIPOS>SUBSTRUCTURE
     1 ATP         1 GROUP 0 A     ****
@<TRIPOS>MOLECULE
[[[3,4-dihydroxy-5-(6-imino-1~{H}-purin-9-yl)tetrahydrofuran-2-yl]methoxy-oxido-phosphoryl]oxy-hydroxy-phosphoryl] hydrogen phosphate
   45    47     1     0     0
SMALL
USER_CHARGES

@<TRIPOS>ATOM
      1 PG         -0.0694    9.0787    3.5793 P.3       1 ATP         1.5496
      2 O1G        -0.6861   10.0458    2.5933 O.co2     1 ATP        -0.8494
      3 O2G         1.3892    9.1865    3.9645 O.co2     1 ATP        -0.8494
      4 O3G        -0.9676    9.0856    4.9429 O.3       1 ATP        -0.7845
      5 PB          0.1422    6.7440    1.7899 P.3       1 ATP         1.9068
      6 O1B        -0.2222    7.3516    0.4676 O.2       1 ATP        -0.8942
      7 O2B         1.7285    6.5769    2.0534 O.3       1 ATP        -0.8166
      8 O3B        -0.3784    7.5546    3.0878 O.3       1 ATP        -0.8194
      9 PA         -2.0037    4.7527    2.1524 P.3       1 ATP         1.5903
     10 O1A        -2.6321    4.8875    0.7824 O.co2     1 ATP        -0.8519
     11 O2A        -2.6546    5.3784    3.3667 O.co2     1 ATP        -0.8519
     12 O3A        -0.4573    5.2714    2.0756 O.3       1 ATP        -0.8093
     13 O5'        -1.7337    3.1724    2.4752 O.3       1 ATP        -0.5649
     14 C5'        -0.8811    2.4285    1.6206 C.3       1 ATP         0.1979
     15 C4'        -0.1994    1.3333    2.4288 C.3       1 ATP         0.1179
     16 O4'        -1.1285    0.2356    2.5840 O.3       1 ATP        -0.3878
     17 C3'         1.0324    0.7610    1.7344 C.3       1 ATP         0.1185
     18 O3'         1.9175    0.2377    2.7247 O.3       1 ATP        -0.5544
     19 C2'         0.4468   -0.3802    0.9263 C.3       1 ATP         0.0542
     20 O2'         1.3993   -1.3703    0.5961 O.3       1 ATP        -0.5831
     21 C1'        -0.6159   -0.9100    1.8769 C.3       1 ATP         0.2222
     22 N9         -1.7127   -1.6108    1.2130 N.pl3     1 ATP        -0.1887
     23 C8         -2.8662   -1.0361    0.7388 C.ar      1 ATP         0.4447
     24 N7         -3.6774   -1.9166    0.1867 N.2       1 ATP        -0.6159
     25 C5         -3.0159   -3.1045    0.3123 C.ar      1 ATP         0.2195
     26 C6         -3.4377   -4.4169   -0.1199 C.ar      1 ATP         0.6144
     27 N6         -4.5720   -4.5691   -0.7080 N.2       1 ATP        -0.8160
     28 N1         -2.4600   -5.3463    0.2071 N.pl3     1 ATP        -0.8611
     29 C2         -1.2595   -5.0554    0.8515 C.ar      1 ATP         0.6141
     30 N3         -0.8555   -3.8803    1.2516 N.2       1 ATP        -0.5913
     31 C4         -1.7946   -2.9457    0.9448 C.ar      1 ATP         0.0067
     32 HOG3       -0.6945    8.5046    5.6845 H         1 ATP         0.4313
     33 HOB2        2.2555    6.0215    1.4401 H         1 ATP         0.4716
     34 H5'1       -1.4801    1.9928    0.8147 H         1 ATP         0.0452
     35 H5'2       -0.1369    3.1041    1.1872 H         1 ATP         0.0452
     36 H4'         0.0403    1.7078    3.4343 H         1 ATP         0.0998
     37 H3'         1.5906    1.4859    1.1353 H         1 ATP         0.0544
     38 HO3'        2.1521    0.9800    3.3017 H         1 ATP         0.3961
     39 H2'        -0.0017    0.0018    0.0005 H         1 ATP         0.0499
     40 HO2'        2.0953   -0.9375    0.0709 H         1 ATP         0.4045
     41 H1'        -0.1998   -1.6319    2.6178 H         1 ATP         0.0912
     42 H8         -3.0558    0.0252    0.8256 H         1 ATP         0.1090
     43 HN62       -4.7047   -5.5592   -0.9421 H         1 ATP         0.3694
     44 H2         -0.6372   -5.9505    1.0077 H         1 ATP         0.0371
     45 H45        -2.6338   -6.3155   -0.0469 H         1 ATP         0.4283
@<TRIPOS>BOND
     1    1    2 2
     2    1    3 1
     3    1    4 1
     4    1    8 1
     5    4   32 1
     6    5    6 2
     7    5    7 1
     8    5    8 1
     9    5   12 1
    10    7   33 1
    11    9   10 2
    12    9   11 1
    13    9   12 1
    14    9   13 1
    15   13   14 1
    16   14   15 1
    17   14   34 1
    18   14   35 1
    19   15   16 1
    20   15   17 1
    21   15   36 1
    22   16   21 1
    23   17   18 1
    24   17   19 1
    25   17   37 1
    26   18   38 1
    27   19   20 1
    28   19   21 1
    29   19   39 1
    30   20   40 1
    31   21   22 1
    32   21   41 1
    33   22   23 ar
    34   22   31 ar
    35   23   24 ar
    36   23   42 1
    37   24   25 ar
    38   25   26 ar
    39   25   31 ar
    40   26   27 2
    41   26   28 ar
    42   27   43 1
    43   28   29 ar
    44   28   45 1
    45   29   30 ar
    46   29   44 1
    47   30   31 ar
@<TRIPOS>SUBSTRUCTURE
     1 ATP         1 GROUP 0 A     ****
@<TRIPOS>MOLECULE
[[[3,4-dihydroxy-5-(6-imino-1~{H}-purin-9-yl)tetrahydrofuran-2-yl]methoxy-oxido-phosphoryl]oxy-hydroxy-phosphoryl] hydrogen phosphate
   45    47     1     0     0
SMALL
USER_CHARGES

@<TRIPOS>ATOM
      1 PG         -4.6749    7.4039    2.7680 P.3       1 ATP         1.5496
      2 O1G        -5.2106    7.2486    4.1740 O.co2     1 ATP        -0.8494
      3 O2G        -5.5676    7.1819    1.5676 O.co2     1 ATP        -0.8494
      4 O3G        -3.9857    8.8782    2.6360 O.3       1 ATP        -0.7845
      5 PB         -1.9874    6.4367    3.5029 P.3       1 ATP         1.9068
      6 O1B        -1.2220    7.7244    3.5827 O.2       1 ATP        -0.8942
      7 O2B        -2.4921    5.8503    4.9224 O.3       1 ATP        -0.8166
      8 O3B        -3.3337    6.4893    2.6098 O.3       1 ATP        -0.8194
      9 PA         -0.5789    5.0299    1.3262 P.3       1 ATP         1.5903
     10 O1A         0.5634    6.0091    1.1644 O.co2     1 ATP        -0.8519
     11 O2A        -1.7206    5.0026    0.3335 O.co2     1 ATP        -0.8519
     12 O3A        -1.2065    5.1960    2.8244 O.3       1 ATP        -0.8093
     13 O5'         0.0180    3.5131    1.4595 O.3       1 ATP        -0.5649
     14 C5'        -0.8811    2.4285    1.6206 C.3       1 ATP         0.1979
     15 C4'        -0.1994    1.3333    2.4288 C.3       1 ATP         0.1179
     16 O4'        -1.1285    0.2356    2.5840 O.3       1 ATP        -0.3878
     17 C3'         1.0324    0.7610    1.7344 C.3       1 ATP         0.1185
     18 O3'         1.9175    0.2377    2.7247 O.3       1 ATP        -0.5544
     19 C2'         0.4468   -0.3802    0.9263 C.3       1 ATP         0.0542
     20 O2'         1.3993   -1.3703    0.5961 O.3       1 ATP        -0.5831
     21 C1'        -0.6159   -0.9100    1.8769 C.3       1 ATP         0.2222
     22 N9         -1.7127   -1.6108    1.2130 N.pl3     1 ATP        -0.1887
     23 C8         -1.7690   -2.9583    0.9549 C.ar      1 ATP         0.4447
     24 N7         -2.8827   -3.3076    0.3418 N.2       1 ATP        -0.6159
     25 C5         -3.5683   -2.1351    0.2017 C.ar      1 ATP         0.2195
     26 C6         -4.8617   -1.9185   -0.4044 C.ar      1 ATP         0.6144
     27 N6         -5.5166   -2.9094   -0.8994 N.2       1 ATP        -0.8160
     28 N1         -5.1836   -0.5701   -0.3344 N.pl3     1 ATP        -0.8611
     29 C2         -4.3821    0.4180    0.2330 C.ar      1 ATP         0.6141
     30 N3         -3.2117    0.2488    0.7860 N.2       1 ATP        -0.5913
     31 C4         -2.8672   -1.0657    0.7327 C.ar      1 ATP         0.0067
     32 HOG3       -3.5883    9.1323    1.7759 H         1 ATP         0.4313
     33 HOB2       -3.0956    6.3936    5.4727 H         1 ATP         0.4716
     34 H5'1       -1.7770    2.7851    2.1387 H         1 ATP         0.0452
     35 H5'2       -1.1653    2.0543    0.6320 H         1 ATP         0.0452
     36 H4'         0.0403    1.7078    3.4343 H         1 ATP         0.0998
     37 H3'         1.5906    1.4859    1.1353 H         1 ATP         0.0544
     38 HO3'        2.6839   -0.1150    2.2479 H         1 ATP         0.3961
     39 H2'        -0.0017    0.0018    0.0005 H         1 ATP         0.0499
     40 HO2'        2.0953   -0.9375    0.0709 H         1 ATP         0.4045
     41 H1'        -0.1998   -1.6319    2.6178 H         1 ATP         0.0912
     42 H8         -0.9697   -3.6300    1.2371 H         1 ATP         0.1090
     43 HN62       -6.4060   -2.5723   -1.2840 H         1 ATP         0.3694
     44 H2         -4.8409    1.4176    0.1757 H         1 ATP         0.0371
     45 H45        -6.0768   -0.2826   -0.7263 H         1 ATP         0.4283
@<TRIPOS>BOND
     1    1    2 2
     2    1    3 1
     3    1    4 1
     4    1    8 1
     5    4   32 1
     6    5    6 2
     7    5    7 1
     8    5    8 1
     9    5   12 1
    10    7   33 1
    11    9   10 2
    12    9   11 1
    13    9   12 1
    14    9   13 1
    15   13   14 1
    16   14   15 1
    17   14   34 1
    18   14   35 1
    19   15   16 1
    20   15   17 1
    21   15   36 1
    22   16   21 1
    23   17   18 1
    24   17   19 1
    25   17   37 1
    26   18   38 1
    27   19   20 1
    28   19   21 1
    29   19   39 1
    30   20   40 1
    31   21   22 1
    32   21   41 1
    33   22   23 ar
    34   22   31 ar
    35   23   24 ar
    36   23   42 1
    37   24   25 ar
    38   25   26 ar
    39   25   31 ar
    40   26   27 2
    41   26   28 ar
    42   27   43 1
    43   28   29 ar
    44   28   45 1
    45   29   30 ar
    46   29   44 1
    47   30   31 ar
@<TRIPOS>SUBSTRUCTURE
     1 ATP         1 GROUP 0 A     ****
@<TRIPOS>MOLECULE
[[[3,4-dihydroxy-5-(6-imino-1~{H}-purin-9-yl)tetrahydrofuran-2-yl]methoxy-oxido-phosphoryl]oxy-hydroxy-phosphoryl] hydrogen phosphate
   45    47     1     0     0
SMALL
USER_CHARGES

@<TRIPOS>ATOM
      1 PG          1.4456    7.0060    0.6212 P.3       1 ATP         1.5496
      2 O1G         2.0456    8.3403    0.2372 O.co2     1 ATP        -0.8494
      3 O2G         0.7883    6.1225   -0.4155 O.co2     1 ATP        -0.8494
      4 O3G         2.5827    6.1318    1.4016 O.3       1 ATP        -0.7845
      5 PB         -0.3904    6.1566    2.7672 P.3       1 ATP         1.9068
      6 O1B         0.4699    5.1903    3.5264 O.2       1 ATP        -0.8942
      7 O2B        -1.3604    7.0735    3.6794 O.3       1 ATP        -0.8166
      8 O3B         0.4113    7.2295    1.8623 O.3       1 ATP        -0.8194
      9 PA         -2.5926    4.4186    1.8557 P.3       1 ATP         1.5903
     10 O1A        -3.1163    4.0394    0.4875 O.co2     1 ATP        -0.8519
     11 O2A        -3.5304    4.9259    2.9295 O.co2     1 ATP        -0.8519
     12 O3A        -1.3857    5.5034    1.6753 O.3       1 ATP        -0.8093
     13 O5'        -1.7337    3.1724    2.4752 O.3       1 ATP        -0.5649
     14 C5'        -0.8811    2.4285    1.6206 C.3       1 ATP         0.1979
     15 C4'        -0.1994    1.3333    2.4288 C.3       1 ATP         0.1179
     16 O4'        -1.1285    0.2356    2.5840 O.3       1 ATP        -0.3878
     17 C3'         1.0324    0.7610    1.7344 C.3       1 ATP         0.1185
     18 O3'         1.9175    0.2377    2.7247 O.3       1 ATP        -0.5544
     19 C2'         0.4468   -0.3802    0.9263 C.3       1 ATP         0.0542
     20 O2'         1.3993   -1.3703    0.5961 O.3       1 ATP        -0.5831
     21 C1'        -0.6159   -0.9100    1.8769 C.3       1 ATP         0.2222
     22 N9         -1.7127   -1.6108    1.2130 N.pl3     1 ATP        -0.1887
     23 C8         -2.0868   -2.9137    1.4327 C.ar      1 ATP         0.4447
     24 N7         -3.1125   -3.2756    0.6878 N.2       1 ATP        -0.6159
     25 C5         -3.4079   -2.1580   -0.0391 C.ar      1 ATP         0.2195
     26 C6         -4.4483   -1.9775   -1.0249 C.ar      1 ATP         0.6144
     27 N6         -5.2418   -2.9492   -1.3113 N.2       1 ATP        -0.8160
     28 N1         -4.3937   -0.6823   -1.5211 N.pl3     1 ATP        -0.8611
     29 C2         -3.4770    0.2901   -1.1271 C.ar      1 ATP         0.6141
     30 N3         -2.5289    0.1525   -0.2403 N.2       1 ATP        -0.5913
     31 C4         -2.5564   -1.1096    0.2655 C.ar      1 ATP         0.0067
     32 HOG3        2.3457    5.2339    1.7176 H         1 ATP         0.4313
     33 HOB2       -2.0278    6.6364    4.2501 H         1 ATP         0.4716
     34 H5'1       -1.4801    1.9928    0.8147 H         1 ATP         0.0452
     35 H5'2       -0.1369    3.1041    1.1872 H         1 ATP         0.0452
     36 H4'         0.0403    1.7078    3.4343 H         1 ATP         0.0998
     37 H3'         1.5906    1.4859    1.1353 H         1 ATP         0.0544
     38 HO3'        2.6839   -0.1150    2.2479 H         1 ATP         0.3961
     39 H2'        -0.0017    0.0018    0.0005 H         1 ATP         0.0499
     40 HO2'        2.0953   -0.9375    0.0709 H         1 ATP         0.4045
     41 H1'        -0.1998   -1.6319    2.6178 H         1 ATP         0.0912
     42 H8         -1.5740   -3.5449    2.1457 H         1 ATP         0.1090
     43 HN62       -5.9117   -2.6433   -2.0256 H         1 ATP         0.3694
     44 H2         -3.6225    1.2454   -1.6553 H         1 ATP         0.0371
     45 H45        -5.0794   -0.4231   -2.2258 H         1 ATP         0.4283
@<TRIPOS>BOND
     1    1    2 2
     2    1    3 1
     3    1    4 1
     4    1    8 1
     5    4   32 1
     6    5    6 2
     7    5    7 1
     8    5    8 1
     9    5   12 1
    10    7   33 1
    11    9   10 2
    12    9   11 1
    13    9   12 1
    14    9   13 1
    15   13   14 1
    16   14   15 1
    17   14   34 1
    18   14   35 1
    19   15   16 1
    20   15   17 1
    21   15   36 1
    22   16   21 1
    23   17   18 1
    24   17   19 1
    25   17   37 1
    26   18   38 1
    27   19   20 1
    28   19   21 1
    29   19   39 1
    30   20   40 1
    31   21   22 1
    32   21   41 1
    33   22   23 ar
    34   22   31 ar
    35   23   24 ar
    36   23   42 1
    37   24   25 ar
    38   25   26 ar
    39   25   31 ar
    40   26   27 2
    41   26   28 ar
    42   27   43 1
    43   28   29 ar
    44   28   45 1
    45   29   30 ar
    46   29   44 1
    47   30   31 ar
@<TRIPOS>SUBSTRUCTURE
     1 ATP         1 GROUP 0 A     ****
@<TRIPOS>MOLECULE
[[[3,4-dihydroxy-5-(6-imino-1~{H}-purin-9-yl)tetrahydrofuran-2-yl]methoxy-oxido-phosphoryl]oxy-hydroxy-phosphoryl] hydrogen phosphate
   45    47     1     0     0
SMALL
USER_CHARGES

@<TRIPOS>ATOM
      1 PG         -4.4100    7.6456    3.6344 P.3       1 ATP         1.5496
      2 O1G        -3.7978    9.0286    3.6299 O.co2     1 ATP        -0.8494
      3 O2G        -4.9502    7.0391    4.9103 O.co2     1 ATP        -0.8494
      4 O3G        -5.5825    7.5941    2.4991 O.3       1 ATP        -0.7845
      5 PB         -2.6041    6.6540    1.5242 P.3       1 ATP         1.9068
      6 O1B        -3.5045    6.6888    0.3249 O.2       1 ATP        -0.8942
      7 O2B        -1.6037    7.9159    1.6669 O.3       1 ATP        -0.8166
      8 O3B        -3.3598    6.6008    2.9521 O.3       1 ATP        -0.8194
      9 PA         -0.4664    4.8322    0.6228 P.3       1 ATP         1.5903
     10 O1A         0.6558    5.8467    0.5865 O.co2     1 ATP        -0.8519
     11 O2A        -1.1276    4.3642   -0.6553 O.co2     1 ATP        -0.8519
     12 O3A        -1.6298    5.3702    1.6343 O.3       1 ATP        -0.8093
     13 O5'         0.0180    3.5131    1.4595 O.3       1 ATP        -0.5649
     14 C5'        -0.8811    2.4285    1.6206 C.3       1 ATP         0.1979
     15 C4'        -0.1994    1.3333    2.4288 C.3       1 ATP         0.1179
     16 O4'        -1.1285    0.2356    2.5840 O.3       1 ATP        -0.3878
     17 C3'         1.0324    0.7610    1.7344 C.3       1 ATP         0.1185
     18 O3'         1.9175    0.2377    2.7247 O.3       1 ATP        -0.5544
     19 C2'         0.4468   -0.3802    0.9263 C.3       1 ATP         0.0542
     20 O2'         1.3993   -1.3703    0.5961 O.3       1 ATP        -0.5831
     21 C1'        -0.6159   -0.9100    1.8769 C.3       1 ATP         0.2222
     22 N9         -1.7127   -1.6108    1.2130 N.pl3     1 ATP        -0.1887
     23 C8         -2.8662   -1.0361    0.7388 C.ar      1 ATP         0.4447
     24 N7         -3.6774   -1.9166    0.1867 N.2       1 ATP        -0.6159
     25 C5         -3.0159   -3.1045    0.3123 C.ar      1 ATP         0.2195
     26 C6         -3.4377   -4.4169   -0.1199 C.ar      1 ATP         0.6144
     27 N6         -4.5720   -4.5691   -0.7080 N.2       1 ATP        -0.8160
     28 N1         -2.4600   -5.3463    0.2071 N.pl3     1 ATP        -0.8611
     29 C2         -1.2595   -5.0554    0.8515 C.ar      1 ATP         0.6141
     30 N3         -0.8555   -3.8803    1.2516 N.2       1 ATP        -0.5913
     31 C4         -1.7946   -2.9457    0.9448 C.ar      1 ATP         0.0067
     32 HOG3       -5.3361    7.7674    1.5656 H         1 ATP         0.4313
     33 HOB2       -1.9842    8.8168    1.7440 H         1 ATP         0.4716
     34 H5'1       -1.7770    2.7851    2.1387 H         1 ATP         0.0452
     35 H5'2       -1.1653    2.0543    0.6320 H         1 ATP         0.0452
     36 H4'         0.0403    1.7078    3.4343 H         1 ATP         0.0998
     37 H3'         1.5906    1.4859    1.1353 H         1 ATP         0.0544
     38 HO3'        2.6839   -0.1150    2.2479 H         1 ATP         0.3961
     39 H2'        -0.0017    0.0018    0.0005 H         1 ATP         0.0499
     40 HO2'        2.0953   -0.9375    0.0709 H         1 ATP         0.4045
     41 H1'        -0.1998   -1.6319    2.6178 H         1 ATP         0.0912
     42 H8         -3.0558    0.0252    0.8256 H         1 ATP         0.1090
     43 HN62       -4.7047   -5.5592   -0.9421 H         1 ATP         0.3694
     44 H2         -0.6372   -5.9505    1.0077 H         1 ATP         0.0371
     45 H45        -2.6338   -6.3155   -0.0469 H         1 ATP         0.4283
@<TRIPOS>BOND
     1    1    2 2
     2    1    3 1
     3    1    4 1
     4    1    8 1
     5    4   32 1
     6    5    6 2
     7    5    7 1
     8    5    8 1
     9    5   12 1
    10    7   33 1
    11    9   10 2
    12    9   11 1
    13    9   12 1
    14    9   13 1
    15   13   14 1
    16   14   15 1
    17   14   34 1
    18   14   35 1
    19   15   16 1
    20   15   17 1
    21   15   36 1
    22   16   21 1
    23   17   18 1
    24   17   19 1
    25   17   37 1
    26   18   38 1
    27   19   20 1
    28   19   21 1
    29   19   39 1
    30   20   40 1
    31   21   22 1
    32   21   41 1
    33   22   23 ar
    34   22   31 ar
    35   23   24 ar
    36   23   42 1
    37   24   25 ar
    38   25   26 ar
    39   25   31 ar
    40   26   27 2
    41   26   28 ar
    42   27   43 1
    43   28   29 ar
    44   28   45 1
    45   29   30 ar
    46   29   44 1
    47   30   31 ar
@<TRIPOS>SUBSTRUCTURE
     1 ATP         1 GROUP 0 A     ****
@<TRIPOS>MOLECULE
[[[3,4-dihydroxy-5-(6-imino-1~{H}-purin-9-yl)tetrahydrofuran-2-yl]methoxy-oxido-phosphoryl]oxy-hydroxy-phosphoryl] hydrogen phosphate
   45    47     1     0     0
SMALL
USER_CHARGES

@<TRIPOS>ATOM
      1 PG          6.1255    0.3342   -4.1027 P.3       1 ATP         1.5496
      2 O1G         5.7985    0.0733   -5.5562 O.co2     1 ATP        -0.8494
      3 O2G         5.0600    0.2250   -3.0349 O.co2     1 ATP        -0.8494
      4 O3G         7.3853   -0.6133   -3.6768 O.3       1 ATP        -0.7845
      5 PB          7.5505    2.5078   -2.7090 P.3       1 ATP         1.9068
      6 O1B         8.7030    1.7636   -2.1022 O.2       1 ATP        -0.8942
      7 O2B         7.9018    3.9886   -3.2542 O.3       1 ATP        -0.8166
      8 O3B         6.8562    1.7870   -3.9783 O.3       1 ATP        -0.8194
      9 PA          6.1592    3.5242   -0.3148 P.3       1 ATP         1.5903
     10 O1A         6.4222    4.9968   -0.5433 O.co2     1 ATP        -0.8519
     11 O2A         6.9470    2.7492    0.7189 O.co2     1 ATP        -0.8519
     12 O3A         6.2774    2.7406   -1.7424 O.3       1 ATP        -0.8093
     13 O5'         4.5669    3.2939   -0.0211 O.3       1 ATP        -0.5649
     14 C5'         4.0922    1.9801    0.2227 C.3       1 ATP         0.1979
     15 C4'         2.5944    2.0310    0.4653 C.3       1 ATP         0.1179
     16 O4'         1.9327    2.5740   -0.6889 O.3       1 ATP        -0.3878
     17 C3'         1.9685    0.6634    0.6767 C.3       1 ATP         0.1185
     18 O3'         2.1425    0.1975    1.9977 O.3       1 ATP        -0.5544
     19 C2'         0.5176    0.9128    0.3099 C.3       1 ATP         0.0542
     20 O2'        -0.2103    1.4454    1.4152 O.3       1 ATP        -0.5831
     21 C1'         0.6219    1.9765   -0.7844 C.3       1 ATP         0.2222
     22 N9          0.4237    1.4496   -2.1357 N.pl3     1 ATP        -0.1887
     23 C8          1.4069    0.9710   -2.9662 C.ar      1 ATP         0.4447
     24 N7          0.9316    0.5623   -4.1260 N.2       1 ATP        -0.6159
     25 C5         -0.4120    0.7884   -4.0344 C.ar      1 ATP         0.2195
     26 C6         -1.4353    0.5283   -5.0204 C.ar      1 ATP         0.6144
     27 N6         -1.1199    0.0176   -6.1586 N.2       1 ATP        -0.8160
     28 N1         -2.6704    0.9095   -4.5147 N.pl3     1 ATP        -0.8611
     29 C2         -2.8863    1.4571   -3.2520 C.ar      1 ATP         0.6141
     30 N3         -1.9805    1.7017   -2.3442 N.2       1 ATP        -0.5913
     31 C4         -0.7561    1.3381   -2.8112 C.ar      1 ATP         0.0067
     32 HOG3        7.7193   -0.5596   -2.7561 H         1 ATP         0.4313
     33 HOB2        8.2460    4.6571   -2.6241 H         1 ATP         0.4716
     34 H5'1        4.3180    1.3550   -0.6470 H         1 ATP         0.0452
     35 H5'2        4.6084    1.5739    1.0983 H         1 ATP         0.0452
     36 H4'         2.3751    2.7029    1.3156 H         1 ATP         0.0998
     37 H3'         2.4336   -0.1217   -0.0015 H         1 ATP         0.0544
     38 HO3'        3.0987    0.1465    2.1461 H         1 ATP         0.3961
     39 H2'         0.0316    0.0155   -0.0339 H         1 ATP         0.0499
     40 HO2'       -0.1608    0.7921    2.1351 H         1 ATP         0.4045
     41 H1'        -0.1474    2.7798   -0.6651 H         1 ATP         0.0912
     42 H8          2.4466    0.9468   -2.6694 H         1 ATP         0.1090
     43 HN62       -1.9661   -0.0965   -6.7275 H         1 ATP         0.3694
     44 H2         -3.9481    1.6825   -3.0660 H         1 ATP         0.0371
     45 H45        -3.4814    0.7753   -5.1133 H         1 ATP         0.4283
@<TRIPOS>BOND
     1    1    2 2
     2    1    3 1
     3    1    4 1
     4    1    8 1
     5    4   32 1
     6    5    6 2
     7    5    7 1
     8    5    8 1
     9    5   12 1
    10    7   33 1
    11    9   10 2
    12    9   11 1
    13    9   12 1
    14    9   13 1
    15   13   14 1
    16   14   15 1
    17   14   34 1
    18   14   35 1
    19   15   16 1
    20   15   17 1
    21   15   36 1
    22   16   21 1
    23   17   18 1
    24   17   19 1
    25   17   37 1
    26   18   38 1
    27   19   20 1
    28   19   21 1
    29   19   39 1
    30   20   40 1
    31   21   22 1
    32   21   41 1
    33   22   23 ar
    34   22   31 ar
    35   23   24 ar
    36   23   42 1
    37   24   25 ar
    38   25   26 ar
    39   25   31 ar
    40   26   27 2
    41   26   28 ar
    42   27   43 1
    43   28   29 ar
    44   28   45 1
    45   29   30 ar
    46   29   44 1
    47   30   31 ar
@<TRIPOS>SUBSTRUCTURE
     1 ATP         1 GROUP 0 A     ****
@<TRIPOS>MOLECULE
[[[3,4-dihydroxy-5-(6-imino-1~{H}-purin-9-yl)tetrahydrofuran-2-yl]methoxy-oxido-phosphoryl]oxy-hydroxy-phosphoryl] hydrogen phosphate
   45    47     1     0     0
SMALL
USER_CHARGES

@<TRIPOS>ATOM
      1 PG         -2.5418    9.0677    0.2479 P.3       1 ATP         1.5496
      2 O1G        -2.8239    9.8595    1.5053 O.co2     1 ATP        -0.8494
      3 O2G        -3.5652    8.9820   -0.8624 O.co2     1 ATP        -0.8494
      4 O3G        -1.1305    9.5888   -0.3870 O.3       1 ATP        -0.7845
      5 PB         -2.9145    6.3656    1.3694 P.3       1 ATP         1.9068
      6 O1B        -3.4630    6.6835    2.7290 O.2       1 ATP        -0.8942
      7 O2B        -4.0207    5.9640    0.2609 O.3       1 ATP        -0.8166
      8 O3B        -2.0826    7.5594    0.6654 O.3       1 ATP        -0.8194
      9 PA         -0.3961    4.9845    2.0411 P.3       1 ATP         1.5903
     10 O1A        -0.6131    4.8933    3.5359 O.co2     1 ATP        -0.8519
     11 O2A         0.5549    6.0073    1.4587 O.co2     1 ATP        -0.8519
     12 O3A        -1.8451    5.1565    1.3083 O.3       1 ATP        -0.8093
     13 O5'         0.0180    3.5131    1.4595 O.3       1 ATP        -0.5649
     14 C5'        -0.8811    2.4285    1.6206 C.3       1 ATP         0.1979
     15 C4'        -0.1994    1.3333    2.4288 C.3       1 ATP         0.1179
     16 O4'        -1.1285    0.2356    2.5840 O.3       1 ATP        -0.3878
     17 C3'         1.0324    0.7610    1.7344 C.3       1 ATP         0.1185
     18 O3'         1.9175    0.2377    2.7247 O.3       1 ATP        -0.5544
     19 C2'         0.4468   -0.3802    0.9263 C.3       1 ATP         0.0542
     20 O2'         1.3993   -1.3703    0.5961 O.3       1 ATP        -0.5831
     21 C1'        -0.6159   -0.9100    1.8769 C.3       1 ATP         0.2222
     22 N9         -1.7127   -1.6108    1.2130 N.pl3     1 ATP        -0.1887
     23 C8         -2.8662   -1.0361    0.7388 C.ar      1 ATP         0.4447
     24 N7         -3.6774   -1.9166    0.1867 N.2       1 ATP        -0.6159
     25 C5         -3.0159   -3.1045    0.3123 C.ar      1 ATP         0.2195
     26 C6         -3.4377   -4.4169   -0.1199 C.ar      1 ATP         0.6144
     27 N6         -4.5720   -4.5691   -0.7080 N.2       1 ATP        -0.8160
     28 N1         -2.4600   -5.3463    0.2071 N.pl3     1 ATP        -0.8611
     29 C2         -1.2595   -5.0554    0.8515 C.ar      1 ATP         0.6141
     30 N3         -0.8555   -3.8803    1.2516 N.2       1 ATP        -0.5913
     31 C4         -1.7946   -2.9457    0.9448 C.ar      1 ATP         0.0067
     32 HOG3       -0.8070    9.1693   -1.2125 H         1 ATP         0.4313
     33 HOB2       -4.5906    5.1818    0.4210 H         1 ATP         0.4716
     34 H5'1       -1.7770    2.7851    2.1387 H         1 ATP         0.0452
     35 H5'2       -1.1653    2.0543    0.6320 H         1 ATP         0.0452
     36 H4'         0.0403    1.7078    3.4343 H         1 ATP         0.0998
     37 H3'         1.5906    1.4859    1.1353 H         1 ATP         0.0544
     38 HO3'        2.6839   -0.1150    2.2479 H         1 ATP         0.3961
     39 H2'        -0.0017    0.0018    0.0005 H         1 ATP         0.0499
     40 HO2'        0.9369   -2.0558    0.0825 H         1 ATP         0.4045
     41 H1'        -0.1998   -1.6319    2.6178 H         1 ATP         0.0912
     42 H8         -3.0558    0.0252    0.8256 H         1 ATP         0.1090
     43 HN62       -4.7047   -5.5592   -0.9421 H         1 ATP         0.3694
     44 H2         -0.6372   -5.9505    1.0077 H         1 ATP         0.0371
     45 H45        -2.6338   -6.3155   -0.0469 H         1 ATP         0.4283
@<TRIPOS>BOND
     1    1    2 2
     2    1    3 1
     3    1    4 1
     4    1    8 1
     5    4   32 1
     6    5    6 2
     7    5    7 1
     8    5    8 1
     9    5   12 1
    10    7   33 1
    11    9   10 2
    12    9   11 1
    13    9   12 1
    14    9   13 1
    15   13   14 1
    16   14   15 1
    17   14   34 1
    18   14   35 1
    19   15   16 1
    20   15   17 1
    21   15   36 1
    22   16   21 1
    23   17   18 1
    24   17   19 1
    25   17   37 1
    26   18   38 1
    27   19   20 1
    28   19   21 1
    29   19   39 1
    30   20   40 1
    31   21   22 1
    32   21   41 1
    33   22   23 ar
    34   22   31 ar
    35   23   24 ar
    36   23   42 1
    37   24   25 ar
    38   25   26 ar
    39   25   31 ar
    40   26   27 2
    41   26   28 ar
    42   27   43 1
    43   28   29 ar
    44   28   45 1
    45   29   30 ar
    46   29   44 1
    47   30   31 ar
@<TRIPOS>SUBSTRUCTURE
     1 ATP         1 GROUP 0 A     ****
@<TRIPOS>MOLECULE
[[[3,4-dihydroxy-5-(6-imino-1~{H}-purin-9-yl)tetrahydrofuran-2-yl]methoxy-oxido-phosphoryl]oxy-hydroxy-phosphoryl] hydrogen phosphate
   45    47     1     0     0
SMALL
USER_CHARGES

@<TRIPOS>ATOM
      1 PG          4.0186    4.4788   -2.3185 P.3       1 ATP         1.5496
      2 O1G         4.1184    5.9787   -2.1510 O.co2     1 ATP        -0.8494
      3 O2G         4.1785    3.8365   -3.6784 O.co2     1 ATP        -0.8494
      4 O3G         5.0657    3.7711   -1.2846 O.3       1 ATP        -0.7845
      5 PB          1.0894    4.2312   -2.0808 P.3       1 ATP         1.9068
      6 O1B         0.6696    5.6712   -2.0931 O.2       1 ATP        -0.8942
      7 O2B         0.9524    3.4653   -3.4980 O.3       1 ATP        -0.8166
      8 O3B         2.6238    3.9642   -1.6479 O.3       1 ATP        -0.8194
      9 PA         -1.2907    2.9170   -0.9365 P.3       1 ATP         1.5903
     10 O1A        -1.6997    2.1404   -2.1692 O.co2     1 ATP        -0.8519
     11 O2A        -2.0351    4.1700   -0.5294 O.co2     1 ATP        -0.8519
     12 O3A         0.2982    3.2774   -1.0446 O.3       1 ATP        -0.8093
     13 O5'        -1.2434    1.9102    0.3514 O.3       1 ATP        -0.5649
     14 C5'        -0.8811    2.4285    1.6206 C.3       1 ATP         0.1979
     15 C4'        -0.1994    1.3333    2.4288 C.3       1 ATP         0.1179
     16 O4'        -1.1285    0.2356    2.5840 O.3       1 ATP        -0.3878
     17 C3'         1.0324    0.7610    1.7344 C.3       1 ATP         0.1185
     18 O3'         1.9175    0.2377    2.7247 O.3       1 ATP        -0.5544
     19 C2'         0.4468   -0.3802    0.9263 C.3       1 ATP         0.0542
     20 O2'         1.3993   -1.3703    0.5961 O.3       1 ATP        -0.5831
     21 C1'        -0.6159   -0.9100    1.8769 C.3       1 ATP         0.2222
     22 N9         -1.7127   -1.6108    1.2130 N.pl3     1 ATP        -0.1887
     23 C8         -2.8662   -1.0361    0.7388 C.ar      1 ATP         0.4447
     24 N7         -3.6774   -1.9166    0.1867 N.2       1 ATP        -0.6159
     25 C5         -3.0159   -3.1045    0.3123 C.ar      1 ATP         0.2195
     26 C6         -3.4377   -4.4169   -0.1199 C.ar      1 ATP         0.6144
     27 N6         -4.5720   -4.5691   -0.7080 N.2       1 ATP        -0.8160
     28 N1         -2.4600   -5.3463    0.2071 N.pl3     1 ATP        -0.8611
     29 C2         -1.2595   -5.0554    0.8515 C.ar      1 ATP         0.6141
     30 N3         -0.8555   -3.8803    1.2516 N.2       1 ATP        -0.5913
     31 C4         -1.7946   -2.9457    0.9448 C.ar      1 ATP         0.0067
     32 HOG3        5.1197    2.7918   -1.2726 H         1 ATP         0.4313
     33 HOB2        0.0685    3.3995   -3.9183 H         1 ATP         0.4716
     34 H5'1       -0.2034    3.2760    1.4767 H         1 ATP         0.0452
     35 H5'2       -1.7842    2.7761    2.1322 H         1 ATP         0.0452
     36 H4'         0.0403    1.7078    3.4343 H         1 ATP         0.0998
     37 H3'         1.5906    1.4859    1.1353 H         1 ATP         0.0544
     38 HO3'        2.6839   -0.1150    2.2479 H         1 ATP         0.3961
     39 H2'        -0.0017    0.0018    0.0005 H         1 ATP         0.0499
     40 HO2'        2.0953   -0.9375    0.0709 H         1 ATP         0.4045
     41 H1'        -0.1998   -1.6319    2.6178 H         1 ATP         0.0912
     42 H8         -3.0558    0.0252    0.8256 H         1 ATP         0.1090
     43 HN62       -4.7047   -5.5592   -0.9421 H         1 ATP         0.3694
     44 H2         -0.6372   -5.9505    1.0077 H         1 ATP         0.0371
     45 H45        -2.6338   -6.3155   -0.0469 H         1 ATP         0.4283
@<TRIPOS>BOND
     1    1    2 2
     2    1    3 1
     3    1    4 1
     4    1    8 1
     5    4   32 1
     6    5    6 2
     7    5    7 1
     8    5    8 1
     9    5   12 1
    10    7   33 1
    11    9   10 2
    12    9   11 1
    13    9   12 1
    14    9   13 1
    15   13   14 1
    16   14   15 1
    17   14   34 1
    18   14   35 1
    19   15   16 1
    20   15   17 1
    21   15   36 1
    22   16   21 1
    23   17   18 1
    24   17   19 1
    25   17   37 1
    26   18   38 1
    27   19   20 1
    28   19   21 1
    29   19   39 1
    30   20   40 1
    31   21   22 1
    32   21   41 1
    33   22   23 ar
    34   22   31 ar
    35   23   24 ar
    36   23   42 1
    37   24   25 ar
    38   25   26 ar
    39   25   31 ar
    40   26   27 2
    41   26   28 ar
    42   27   43 1
    43   28   29 ar
    44   28   45 1
    45   29   30 ar
    46   29   44 1
    47   30   31 ar
@<TRIPOS>SUBSTRUCTURE
     1 ATP         1 GROUP 0 A     ****
@<TRIPOS>MOLECULE
[[[3,4-dihydroxy-5-(6-imino-1~{H}-purin-9-yl)tetrahydrofuran-2-yl]methoxy-oxido-phosphoryl]oxy-hydroxy-phosphoryl] hydrogen phosphate
   45    47     1     0     0
SMALL
USER_CHARGES

@<TRIPOS>ATOM
      1 PG         -2.3855    2.2706    6.4439 P.3       1 ATP         1.5496
      2 O1G        -1.7222    1.4689    5.3461 O.co2     1 ATP        -0.8494
      3 O2G        -3.8885    2.2628    6.6120 O.co2     1 ATP        -0.8494
      4 O3G        -1.7024    1.8613    7.8695 O.3       1 ATP        -0.7845
      5 PB         -2.1147    4.9424    5.2250 P.3       1 ATP         1.9068
      6 O1B        -3.5506    5.3040    4.9846 O.2       1 ATP        -0.8942
      7 O2B        -1.1685    6.1672    5.6919 O.3       1 ATP        -0.8166
      8 O3B        -1.8680    3.8148    6.3566 O.3       1 ATP        -0.8194
      9 PA         -1.0307    4.9147    2.4817 P.3       1 ATP         1.5903
     10 O1A        -0.1060    6.1042    2.6224 O.co2     1 ATP        -0.8519
     11 O2A        -2.3465    5.0409    1.7450 O.co2     1 ATP        -0.8519
     12 O3A        -1.3309    4.3029    3.9655 O.3       1 ATP        -0.8093
     13 O5'        -0.2061    3.6558    1.8418 O.3       1 ATP        -0.5649
     14 C5'        -0.8811    2.4285    1.6206 C.3       1 ATP         0.1979
     15 C4'        -0.1994    1.3333    2.4288 C.3       1 ATP         0.1179
     16 O4'        -1.1285    0.2356    2.5840 O.3       1 ATP        -0.3878
     17 C3'         1.0324    0.7610    1.7344 C.3       1 ATP         0.1185
     18 O3'         1.9175    0.2377    2.7247 O.3       1 ATP        -0.5544
     19 C2'         0.4468   -0.3802    0.9263 C.3       1 ATP         0.0542
     20 O2'         1.3993   -1.3703    0.5961 O.3       1 ATP        -0.5831
     21 C1'        -0.6159   -0.9100    1.8769 C.3       1 ATP         0.2222
     22 N9         -1.7127   -1.6108    1.2130 N.pl3     1 ATP        -0.1887
     23 C8         -2.8662   -1.0361    0.7388 C.ar      1 ATP         0.4447
     24 N7         -3.6774   -1.9166    0.1867 N.2       1 ATP        -0.6159
     25 C5         -3.0159   -3.1045    0.3123 C.ar      1 ATP         0.2195
     26 C6         -3.4377   -4.4169   -0.1199 C.ar      1 ATP         0.6144
     27 N6         -4.5720   -4.5691   -0.7080 N.2       1 ATP        -0.8160
     28 N1         -2.4600   -5.3463    0.2071 N.pl3     1 ATP        -0.8611
     29 C2         -1.2595   -5.0554    0.8515 C.ar      1 ATP         0.6141
     30 N3         -0.8555   -3.8803    1.2516 N.2       1 ATP        -0.5913
     31 C4         -1.7946   -2.9457    0.9448 C.ar      1 ATP         0.0067
     32 HOG3       -2.0269    2.2989    8.6852 H         1 ATP         0.4313
     33 HOB2       -1.0700    6.9432    5.0999 H         1 ATP         0.4716
     34 H5'1       -1.9255    2.5382    1.9293 H         1 ATP         0.0452
     35 H5'2       -0.8473    2.1932    0.5521 H         1 ATP         0.0452
     36 H4'         0.0403    1.7078    3.4343 H         1 ATP         0.0998
     37 H3'         1.5906    1.4859    1.1353 H         1 ATP         0.0544
     38 HO3'        2.6839   -0.1150    2.2479 H         1 ATP         0.3961
     39 H2'        -0.0017    0.0018    0.0005 H         1 ATP         0.0499
     40 HO2'        2.0953   -0.9375    0.0709 H         1 ATP         0.4045
     41 H1'        -0.1998   -1.6319    2.6178 H         1 ATP         0.0912
     42 H8         -3.0558    0.0252    0.8256 H         1 ATP         0.1090
     43 HN62       -4.7047   -5.5592   -0.9421 H         1 ATP         0.3694
     44 H2         -0.6372   -5.9505    1.0077 H         1 ATP         0.0371
     45 H45        -2.6338   -6.3155   -0.0469 H         1 ATP         0.4283
@<TRIPOS>BOND
     1    1    2 2
     2    1    3 1
     3    1    4 1
     4    1    8 1
     5    4   32 1
     6    5    6 2
     7    5    7 1
     8    5    8 1
     9    5   12 1
    10    7   33 1
    11    9   10 2
    12    9   11 1
    13    9   12 1
    14    9   13 1
    15   13   14 1
    16   14   15 1
    17   14   34 1
    18   14   35 1
    19   15   16 1
    20   15   17 1
    21   15   36 1
    22   16   21 1
    23   17   18 1
    24   17   19 1
    25   17   37 1
    26   18   38 1
    27   19   20 1
    28   19   21 1
    29   19   39 1
    30   20   40 1
    31   21   22 1
    32   21   41 1
    33   22   23 ar
    34   22   31 ar
    35   23   24 ar
    36   23   42 1
    37   24   25 ar
    38   25   26 ar
    39   25   31 ar
    40   26   27 2
    41   26   28 ar
    42   27   43 1
    43   28   29 ar
    44   28   45 1
    45   29   30 ar
    46   29   44 1
    47   30   31 ar
@<TRIPOS>SUBSTRUCTURE
     1 ATP         1 GROUP 0 A     ****
@<TRIPOS>MOLECULE
[[[3,4-dihydroxy-5-(6-imino-1~{H}-purin-9-yl)tetrahydrofuran-2-yl]methoxy-oxido-phosphoryl]oxy-hydroxy-phosphoryl] hydrogen phosphate
   45    47     1     0     0
SMALL
USER_CHARGES

@<TRIPOS>ATOM
      1 PG          1.5635    5.4552    6.9717 P.3       1 ATP         1.5496
      2 O1G         0.7766    5.8623    8.1976 O.co2     1 ATP        -0.8494
      3 O2G         2.5153    6.4218    6.3031 O.co2     1 ATP        -0.8494
      4 O3G         2.3748    4.0792    7.3100 O.3       1 ATP        -0.7845
      5 PB         -0.6302    5.6014    5.0059 P.3       1 ATP         1.9068
      6 O1B        -1.7186    6.2303    5.8245 O.2       1 ATP        -0.8942
      7 O2B         0.1811    6.6192    4.0469 O.3       1 ATP        -0.8166
      8 O3B         0.5324    4.8654    5.8541 O.3       1 ATP        -0.8194
      9 PA         -2.1560    4.4277    2.7709 P.3       1 ATP         1.5903
     10 O1A        -1.6129    5.3159    1.6726 O.co2     1 ATP        -0.8519
     11 O2A        -3.5422    4.6538    3.3339 O.co2     1 ATP        -0.8519
     12 O3A        -1.0946    4.4160    4.0116 O.3       1 ATP        -0.8093
     13 O5'        -2.0402    2.8619    2.3130 O.3       1 ATP        -0.5649
     14 C5'        -0.8811    2.4285    1.6206 C.3       1 ATP         0.1979
     15 C4'        -0.1994    1.3333    2.4288 C.3       1 ATP         0.1179
     16 O4'        -1.1285    0.2356    2.5840 O.3       1 ATP        -0.3878
     17 C3'         1.0324    0.7610    1.7344 C.3       1 ATP         0.1185
     18 O3'         1.9175    0.2377    2.7247 O.3       1 ATP        -0.5544
     19 C2'         0.4468   -0.3802    0.9263 C.3       1 ATP         0.0542
     20 O2'         1.3993   -1.3703    0.5961 O.3       1 ATP        -0.5831
     21 C1'        -0.6159   -0.9100    1.8769 C.3       1 ATP         0.2222
     22 N9         -1.7127   -1.6108    1.2130 N.pl3     1 ATP        -0.1887
     23 C8         -2.5485   -1.0808    0.2609 C.ar      1 ATP         0.4447
     24 N7         -3.4476   -1.9486   -0.1593 N.2       1 ATP        -0.6159
     25 C5         -3.1762   -3.0816    0.5530 C.ar      1 ATP         0.2195
     26 C6         -3.8510   -4.3579    0.5006 C.ar      1 ATP         0.6144
     27 N6         -4.8468   -4.5293   -0.2961 N.2       1 ATP        -0.8160
     28 N1         -3.2499   -5.2342    1.3937 N.pl3     1 ATP        -0.8611
     29 C2         -2.1646   -4.9275    2.2116 C.ar      1 ATP         0.6141
     30 N3         -1.5382   -3.7840    2.2778 N.2       1 ATP        -0.5913
     31 C4         -2.1054   -2.9018    1.4120 C.ar      1 ATP         0.0067
     32 HOG3        2.9366    3.6843    6.6095 H         1 ATP         0.4313
     33 HOB2       -0.3099    7.1146    3.3573 H         1 ATP         0.4716
     34 H5'1       -1.1769    2.0503    0.6369 H         1 ATP         0.0452
     35 H5'2       -0.2081    3.2815    1.4877 H         1 ATP         0.0452
     36 H4'         0.0403    1.7078    3.4343 H         1 ATP         0.0998
     37 H3'         1.5906    1.4859    1.1353 H         1 ATP         0.0544
     38 HO3'        2.1521    0.9800    3.3017 H         1 ATP         0.3961
     39 H2'        -0.0017    0.0018    0.0005 H         1 ATP         0.0499
     40 HO2'        0.9369   -2.0558    0.0825 H         1 ATP         0.4045
     41 H1'        -0.1998   -1.6319    2.6178 H         1 ATP         0.0912
     42 H8         -2.4515   -0.0599   -0.0829 H         1 ATP         0.1090
     43 HN62       -5.1990   -5.4882   -0.2004 H         1 ATP         0.3694
     44 H2         -1.8555   -5.7783    2.8388 H         1 ATP         0.0371
     45 H45        -3.6312   -6.1750    1.4526 H         1 ATP         0.4283
@<TRIPOS>BOND
     1    1    2 2
     2    1    3 1
     3    1    4 1
     4    1    8 1
     5    4   32 1
     6    5    6 2
     7    5    7 1
     8    5    8 1
     9    5   12 1
    10    7   33 1
    11    9   10 2
    12    9   11 1
    13    9   12 1
    14    9   13 1
    15   13   14 1
    16   14   15 1
    17   14   34 1
    18   14   35 1
    19   15   16 1
    20   15   17 1
    21   15   36 1
    22   16   21 1
    23   17   18 1
    24   17   19 1
    25   17   37 1
    26   18   38 1
    27   19   20 1
    28   19   21 1
    29   19   39 1
    30   20   40 1
    31   21   22 1
    32   21   41 1
    33   22   23 ar
    34   22   31 ar
    35   23   24 ar
    36   23   42 1
    37   24   25 ar
    38   25   26 ar
    39   25   31 ar
    40   26   27 2
    41   26   28 ar
    42   27   43 1
    43   28   29 ar
    44   28   45 1
    45   29   30 ar
    46   29   44 1
    47   30   31 ar
@<TRIPOS>SUBSTRUCTURE
     1 ATP         1 GROUP 0 A     ****
@<TRIPOS>MOLECULE
[[[3,4-dihydroxy-5-(6-imino-1~{H}-purin-9-yl)tetrahydrofuran-2-yl]methoxy-oxido-phosphoryl]oxy-hydroxy-phosphoryl] hydrogen phosphate
   45    47     1     0     0
SMALL
USER_CHARGES

@<TRIPOS>ATOM
      1 PG         -4.2372    5.3508   -1.0634 P.3       1 ATP         1.5496
      2 O1G        -5.6654    4.9718   -1.3862 O.co2     1 ATP        -0.8494
      3 O2G        -3.0907    4.4278   -1.4116 O.co2     1 ATP        -0.8494
      4 O3G        -3.9331    6.8206   -1.7064 O.3       1 ATP        -0.7845
      5 PB         -2.9145    6.3656    1.3694 P.3       1 ATP         1.9068
      6 O1B        -2.4173    7.7008    0.8999 O.2       1 ATP        -0.8942
      7 O2B        -3.4540    6.3323    2.8931 O.3       1 ATP        -0.8166
      8 O3B        -4.1399    5.7473    0.5156 O.3       1 ATP        -0.8194
      9 PA         -0.3961    4.9845    2.0411 P.3       1 ATP         1.5903
     10 O1A        -0.6131    4.8933    3.5359 O.co2     1 ATP        -0.8519
     11 O2A         0.5549    6.0073    1.4587 O.co2     1 ATP        -0.8519
     12 O3A        -1.8451    5.1565    1.3083 O.3       1 ATP        -0.8093
     13 O5'         0.0180    3.5131    1.4595 O.3       1 ATP        -0.5649
     14 C5'        -0.8811    2.4285    1.6206 C.3       1 ATP         0.1979
     15 C4'        -0.1994    1.3333    2.4288 C.3       1 ATP         0.1179
     16 O4'        -1.1285    0.2356    2.5840 O.3       1 ATP        -0.3878
     17 C3'         1.0324    0.7610    1.7344 C.3       1 ATP         0.1185
     18 O3'         1.9175    0.2377    2.7247 O.3       1 ATP        -0.5544
     19 C2'         0.4468   -0.3802    0.9263 C.3       1 ATP         0.0542
     20 O2'         1.3993   -1.3703    0.5961 O.3       1 ATP        -0.5831
     21 C1'        -0.6159   -0.9100    1.8769 C.3       1 ATP         0.2222
     22 N9         -1.7127   -1.6108    1.2130 N.pl3     1 ATP        -0.1887
     23 C8         -1.7690   -2.9583    0.9549 C.ar      1 ATP         0.4447
     24 N7         -2.8827   -3.3076    0.3418 N.2       1 ATP        -0.6159
     25 C5         -3.5683   -2.1351    0.2017 C.ar      1 ATP         0.2195
     26 C6         -4.8617   -1.9185   -0.4044 C.ar      1 ATP         0.6144
     27 N6         -5.5166   -2.9094   -0.8994 N.2       1 ATP        -0.8160
     28 N1         -5.1836   -0.5701   -0.3344 N.pl3     1 ATP        -0.8611
     29 C2         -4.3821    0.4180    0.2330 C.ar      1 ATP         0.6141
     30 N3         -3.2117    0.2488    0.7860 N.2       1 ATP        -0.5913
     31 C4         -2.8672   -1.0657    0.7327 C.ar      1 ATP         0.0067
     32 HOG3       -3.0408    7.2088   -1.5823 H         1 ATP         0.4313
     33 HOB2       -2.8389    6.5695    3.6195 H         1 ATP         0.4716
     34 H5'1       -1.7770    2.7851    2.1387 H         1 ATP         0.0452
     35 H5'2       -1.1653    2.0543    0.6320 H         1 ATP         0.0452
     36 H4'         0.0403    1.7078    3.4343 H         1 ATP         0.0998
     37 H3'         1.5906    1.4859    1.1353 H         1 ATP         0.0544
     38 HO3'        2.6839   -0.1150    2.2479 H         1 ATP         0.3961
     39 H2'        -0.0017    0.0018    0.0005 H         1 ATP         0.0499
     40 HO2'        2.0953   -0.9375    0.0709 H         1 ATP         0.4045
     41 H1'        -0.1998   -1.6319    2.6178 H         1 ATP         0.0912
     42 H8         -0.9697   -3.6300    1.2371 H         1 ATP         0.1090
     43 HN62       -6.4060   -2.5723   -1.2840 H         1 ATP         0.3694
     44 H2         -4.8409    1.4176    0.1757 H         1 ATP         0.0371
     45 H45        -6.0768   -0.2826   -0.7263 H         1 ATP         0.4283
@<TRIPOS>BOND
     1    1    2 2
     2    1    3 1
     3    1    4 1
     4    1    8 1
     5    4   32 1
     6    5    6 2
     7    5    7 1
     8    5    8 1
     9    5   12 1
    10    7   33 1
    11    9   10 2
    12    9   11 1
    13    9   12 1
    14    9   13 1
    15   13   14 1
    16   14   15 1
    17   14   34 1
    18   14   35 1
    19   15   16 1
    20   15   17 1
    21   15   36 1
    22   16   21 1
    23   17   18 1
    24   17   19 1
    25   17   37 1
    26   18   38 1
    27   19   20 1
    28   19   21 1
    29   19   39 1
    30   20   40 1
    31   21   22 1
    32   21   41 1
    33   22   23 ar
    34   22   31 ar
    35   23   24 ar
    36   23   42 1
    37   24   25 ar
    38   25   26 ar
    39   25   31 ar
    40   26   27 2
    41   26   28 ar
    42   27   43 1
    43   28   29 ar
    44   28   45 1
    45   29   30 ar
    46   29   44 1
    47   30   31 ar
@<TRIPOS>SUBSTRUCTURE
     1 ATP         1 GROUP 0 A     ****
@<TRIPOS>MOLECULE
[[[3,4-dihydroxy-5-(6-imino-1~{H}-purin-9-yl)tetrahydrofuran-2-yl]methoxy-oxido-phosphoryl]oxy-hydroxy-phosphoryl] hydrogen phosphate
   45    47     1     0     0
SMALL
USER_CHARGES

@<TRIPOS>ATOM
      1 PG         -0.3961    5.6294   -1.6419 P.3       1 ATP         1.5496
      2 O1G        -0.6951    4.9722   -2.9710 O.co2     1 ATP        -0.8494
      3 O2G         0.2941    4.8644   -0.5347 O.co2     1 ATP        -0.8494
      4 O3G         0.4386    7.0049   -1.9201 O.3       1 ATP        -0.7845
      5 PB         -3.1303    5.5883   -0.5371 P.3       1 ATP         1.9068
      6 O1B        -4.1952    6.5335   -0.0651 O.2       1 ATP        -0.8942
      7 O2B        -3.5611    4.6281   -1.7643 O.3       1 ATP        -0.8166
      8 O3B        -1.7692    6.2878   -1.0576 O.3       1 ATP        -0.8194
      9 PA         -3.3161    3.4232    1.4577 P.3       1 ATP         1.5903
     10 O1A        -3.8157    2.3394    0.5273 O.co2     1 ATP        -0.8519
     11 O2A        -4.2602    4.1149    2.4168 O.co2     1 ATP        -0.8519
     12 O3A        -2.5554    4.5662    0.5739 O.3       1 ATP        -0.8093
     13 O5'        -2.0402    2.8619    2.3130 O.3       1 ATP        -0.5649
     14 C5'        -0.8811    2.4285    1.6206 C.3       1 ATP         0.1979
     15 C4'        -0.1994    1.3333    2.4288 C.3       1 ATP         0.1179
     16 O4'        -1.1285    0.2356    2.5840 O.3       1 ATP        -0.3878
     17 C3'         1.0324    0.7610    1.7344 C.3       1 ATP         0.1185
     18 O3'         1.9175    0.2377    2.7247 O.3       1 ATP        -0.5544
     19 C2'         0.4468   -0.3802    0.9263 C.3       1 ATP         0.0542
     20 O2'         1.3993   -1.3703    0.5961 O.3       1 ATP        -0.5831
     21 C1'        -0.6159   -0.9100    1.8769 C.3       1 ATP         0.2222
     22 N9         -1.7127   -1.6108    1.2130 N.pl3     1 ATP        -0.1887
     23 C8         -2.5485   -1.0808    0.2609 C.ar      1 ATP         0.4447
     24 N7         -3.4476   -1.9486   -0.1593 N.2       1 ATP        -0.6159
     25 C5         -3.1762   -3.0816    0.5530 C.ar      1 ATP         0.2195
     26 C6         -3.8510   -4.3579    0.5006 C.ar      1 ATP         0.6144
     27 N6         -4.8468   -4.5293   -0.2961 N.2       1 ATP        -0.8160
     28 N1         -3.2499   -5.2342    1.3937 N.pl3     1 ATP        -0.8611
     29 C2         -2.1646   -4.9275    2.2116 C.ar      1 ATP         0.6141
     30 N3         -1.5382   -3.7840    2.2778 N.2       1 ATP        -0.5913
     31 C4         -2.1054   -2.9018    1.4120 C.ar      1 ATP         0.0067
     32 HOG3        0.7094    7.5501   -1.1509 H         1 ATP         0.4313
     33 HOB2       -2.9076    3.9876   -2.1178 H         1 ATP         0.4716
     34 H5'1       -1.1769    2.0503    0.6369 H         1 ATP         0.0452
     35 H5'2       -0.2081    3.2815    1.4877 H         1 ATP         0.0452
     36 H4'         0.0403    1.7078    3.4343 H         1 ATP         0.0998
     37 H3'         1.5906    1.4859    1.1353 H         1 ATP         0.0544
     38 HO3'        2.6839   -0.1150    2.2479 H         1 ATP         0.3961
     39 H2'        -0.0017    0.0018    0.0005 H         1 ATP         0.0499
     40 HO2'        0.9369   -2.0558    0.0825 H         1 ATP         0.4045
     41 H1'        -0.1998   -1.6319    2.6178 H         1 ATP         0.0912
     42 H8         -2.4515   -0.0599   -0.0829 H         1 ATP         0.1090
     43 HN62       -5.1990   -5.4882   -0.2004 H         1 ATP         0.3694
     44 H2         -1.8555   -5.7783    2.8388 H         1 ATP         0.0371
     45 H45        -3.6312   -6.1750    1.4526 H         1 ATP         0.4283
@<TRIPOS>BOND
     1    1    2 2
     2    1    3 1
     3    1    4 1
     4    1    8 1
     5    4   32 1
     6    5    6 2
     7    5    7 1
     8    5    8 1
     9    5   12 1
    10    7   33 1
    11    9   10 2
    12    9   11 1
    13    9   12 1
    14    9   13 1
    15   13   14 1
    16   14   15 1
    17   14   34 1
    18   14   35 1
    19   15   16 1
    20   15   17 1
    21   15   36 1
    22   16   21 1
    23   17   18 1
    24   17   19 1
    25   17   37 1
    26   18   38 1
    27   19   20 1
    28   19   21 1
    29   19   39 1
    30   20   40 1
    31   21   22 1
    32   21   41 1
    33   22   23 ar
    34   22   31 ar
    35   23   24 ar
    36   23   42 1
    37   24   25 ar
    38   25   26 ar
    39   25   31 ar
    40   26   27 2
    41   26   28 ar
    42   27   43 1
    43   28   29 ar
    44   28   45 1
    45   29   30 ar
    46   29   44 1
    47   30   31 ar
@<TRIPOS>SUBSTRUCTURE
     1 ATP         1 GROUP 0 A     ****
@<TRIPOS>MOLECULE
[[[3,4-dihydroxy-5-(6-imino-1~{H}-purin-9-yl)tetrahydrofuran-2-yl]methoxy-oxido-phosphoryl]oxy-hydroxy-phosphoryl] hydrogen phosphate
   45    47     1     0     0
SMALL
USER_CHARGES

@<TRIPOS>ATOM
      1 PG          3.4113    4.3192   -0.2645 P.3       1 ATP         1.5496
      2 O1G         4.8803    4.0067   -0.4431 O.co2     1 ATP        -0.8494
      3 O2G         2.6337    3.7561    0.9041 O.co2     1 ATP        -0.8494
      4 O3G         3.2207    5.9408   -0.2808 O.3       1 ATP        -0.7845
      5 PB          1.0894    4.2312   -2.0808 P.3       1 ATP         1.9068
      6 O1B         0.6696    5.6712   -2.0931 O.2       1 ATP        -0.8942
      7 O2B         0.9524    3.4653   -3.4980 O.3       1 ATP        -0.8166
      8 O3B         2.6238    3.9642   -1.6479 O.3       1 ATP        -0.8194
      9 PA         -1.2907    2.9170   -0.9365 P.3       1 ATP         1.5903
     10 O1A        -1.6997    2.1404   -2.1692 O.co2     1 ATP        -0.8519
     11 O2A        -2.0351    4.1700   -0.5294 O.co2     1 ATP        -0.8519
     12 O3A         0.2982    3.2774   -1.0446 O.3       1 ATP        -0.8093
     13 O5'        -1.2434    1.9102    0.3514 O.3       1 ATP        -0.5649
     14 C5'        -0.8811    2.4285    1.6206 C.3       1 ATP         0.1979
     15 C4'        -0.1994    1.3333    2.4288 C.3       1 ATP         0.1179
     16 O4'        -1.1285    0.2356    2.5840 O.3       1 ATP        -0.3878
     17 C3'         1.0324    0.7610    1.7344 C.3       1 ATP         0.1185
     18 O3'         1.9175    0.2377    2.7247 O.3       1 ATP        -0.5544
     19 C2'         0.4468   -0.3802    0.9263 C.3       1 ATP         0.0542
     20 O2'         1.3993   -1.3703    0.5961 O.3       1 ATP        -0.5831
     21 C1'        -0.6159   -0.9100    1.8769 C.3       1 ATP         0.2222
     22 N9         -1.7127   -1.6108    1.2130 N.pl3     1 ATP        -0.1887
     23 C8         -2.8662   -1.0361    0.7388 C.ar      1 ATP         0.4447
     24 N7         -3.6774   -1.9166    0.1867 N.2       1 ATP        -0.6159
     25 C5         -3.0159   -3.1045    0.3123 C.ar      1 ATP         0.2195
     26 C6         -3.4377   -4.4169   -0.1199 C.ar      1 ATP         0.6144
     27 N6         -4.5720   -4.5691   -0.7080 N.2       1 ATP        -0.8160
     28 N1         -2.4600   -5.3463    0.2071 N.pl3     1 ATP        -0.8611
     29 C2         -1.2595   -5.0554    0.8515 C.ar      1 ATP         0.6141
     30 N3         -0.8555   -3.8803    1.2516 N.2       1 ATP        -0.5913
     31 C4         -1.7946   -2.9457    0.9448 C.ar      1 ATP         0.0067
     32 HOG3        2.3162    6.3055   -0.1751 H         1 ATP         0.4313
     33 HOB2        0.0685    3.3995   -3.9183 H         1 ATP         0.4716
     34 H5'1       -0.2034    3.2760    1.4767 H         1 ATP         0.0452
     35 H5'2       -1.7842    2.7761    2.1322 H         1 ATP         0.0452
     36 H4'         0.0403    1.7078    3.4343 H         1 ATP         0.0998
     37 H3'         1.5906    1.4859    1.1353 H         1 ATP         0.0544
     38 HO3'        2.6839   -0.1150    2.2479 H         1 ATP         0.3961
     39 H2'        -0.0017    0.0018    0.0005 H         1 ATP         0.0499
     40 HO2'        2.0953   -0.9375    0.0709 H         1 ATP         0.4045
     41 H1'        -0.1998   -1.6319    2.6178 H         1 ATP         0.0912
     42 H8         -3.0558    0.0252    0.8256 H         1 ATP         0.1090
     43 HN62       -4.7047   -5.5592   -0.9421 H         1 ATP         0.3694
     44 H2         -0.6372   -5.9505    1.0077 H         1 ATP         0.0371
     45 H45        -2.6338   -6.3155   -0.0469 H         1 ATP         0.4283
@<TRIPOS>BOND
     1    1    2 2
     2    1    3 1
     3    1    4 1
     4    1    8 1
     5    4   32 1
     6    5    6 2
     7    5    7 1
     8    5    8 1
     9    5   12 1
    10    7   33 1
    11    9   10 2
    12    9   11 1
    13    9   12 1
    14    9   13 1
    15   13   14 1
    16   14   15 1
    17   14   34 1
    18   14   35 1
    19   15   16 1
    20   15   17 1
    21   15   36 1
    22   16   21 1
    23   17   18 1
    24   17   19 1
    25   17   37 1
    26   18   38 1
    27   19   20 1
    28   19   21 1
    29   19   39 1
    30   20   40 1
    31   21   22 1
    32   21   41 1
    33   22   23 ar
    34   22   31 ar
    35   23   24 ar
    36   23   42 1
    37   24   25 ar
    38   25   26 ar
    39   25   31 ar
    40   26   27 2
    41   26   28 ar
    42   27   43 1
    43   28   29 ar
    44   28   45 1
    45   29   30 ar
    46   29   44 1
    47   30   31 ar
@<TRIPOS>SUBSTRUCTURE
     1 ATP         1 GROUP 0 A     ****
@<TRIPOS>MOLECULE
[[[3,4-dihydroxy-5-(6-imino-1~{H}-purin-9-yl)tetrahydrofuran-2-yl]methoxy-oxido-phosphoryl]oxy-hydroxy-phosphoryl] hydrogen phosphate
   45    47     1     0     0
SMALL
USER_CHARGES

@<TRIPOS>ATOM
      1 PG          6.3565   -1.9508   -2.3823 P.3       1 ATP         1.5496
      2 O1G         6.8966   -0.5807   -2.7269 O.co2     1 ATP        -0.8494
      3 O2G         4.9486   -2.3497   -2.7645 O.co2     1 ATP        -0.8494
      4 O3G         7.3891   -3.0755   -2.9613 O.3       1 ATP        -0.7845
      5 PB          5.8972   -1.5015    0.4960 P.3       1 ATP         1.9068
      6 O1B         4.4029   -1.6064    0.5763 O.2       1 ATP        -0.8942
      7 O2B         6.6970   -2.1340    1.7506 O.3       1 ATP        -0.8166
      8 O3B         6.5704   -2.2171   -0.7875 O.3       1 ATP        -0.8194
      9 PA          6.3564    1.2770    1.3735 P.3       1 ATP         1.5903
     10 O1A         6.9876    2.4827    0.7119 O.co2     1 ATP        -0.8519
     11 O2A         6.7838    0.8427    2.7586 O.co2     1 ATP        -0.8519
     12 O3A         6.4907   -0.0043    0.3705 O.3       1 ATP        -0.8093
     13 O5'         4.7294    1.4426    1.3698 O.3       1 ATP        -0.5649
     14 C5'         4.0922    1.9801    0.2227 C.3       1 ATP         0.1979
     15 C4'         2.5944    2.0310    0.4653 C.3       1 ATP         0.1179
     16 O4'         1.9327    2.5740   -0.6889 O.3       1 ATP        -0.3878
     17 C3'         1.9685    0.6634    0.6767 C.3       1 ATP         0.1185
     18 O3'         2.1425    0.1975    1.9977 O.3       1 ATP        -0.5544
     19 C2'         0.5176    0.9128    0.3099 C.3       1 ATP         0.0542
     20 O2'        -0.2103    1.4454    1.4152 O.3       1 ATP        -0.5831
     21 C1'         0.6219    1.9765   -0.7844 C.3       1 ATP         0.2222
     22 N9          0.4237    1.4496   -2.1357 N.pl3     1 ATP        -0.1887
     23 C8          1.4069    0.9710   -2.9662 C.ar      1 ATP         0.4447
     24 N7          0.9316    0.5623   -4.1260 N.2       1 ATP        -0.6159
     25 C5         -0.4120    0.7884   -4.0344 C.ar      1 ATP         0.2195
     26 C6         -1.4353    0.5283   -5.0204 C.ar      1 ATP         0.6144
     27 N6         -1.1199    0.0176   -6.1586 N.2       1 ATP        -0.8160
     28 N1         -2.6704    0.9095   -4.5147 N.pl3     1 ATP        -0.8611
     29 C2         -2.8863    1.4571   -3.2520 C.ar      1 ATP         0.6141
     30 N3         -1.9805    1.7017   -2.3442 N.2       1 ATP        -0.5913
     31 C4         -0.7561    1.3381   -2.8112 C.ar      1 ATP         0.0067
     32 HOG3        7.1768   -4.0222   -2.8171 H         1 ATP         0.4313
     33 HOB2        6.5863   -3.0877    1.9518 H         1 ATP         0.4716
     34 H5'1        4.4844    2.9853    0.0382 H         1 ATP         0.0452
     35 H5'2        4.3192    1.3445   -0.6391 H         1 ATP         0.0452
     36 H4'         2.3751    2.7029    1.3156 H         1 ATP         0.0998
     37 H3'         2.4336   -0.1217   -0.0015 H         1 ATP         0.0544
     38 HO3'        3.0987    0.1465    2.1461 H         1 ATP         0.3961
     39 H2'         0.0316    0.0155   -0.0339 H         1 ATP         0.0499
     40 HO2'       -0.1608    0.7921    2.1351 H         1 ATP         0.4045
     41 H1'        -0.1474    2.7798   -0.6651 H         1 ATP         0.0912
     42 H8          2.4466    0.9468   -2.6694 H         1 ATP         0.1090
     43 HN62       -1.9661   -0.0965   -6.7275 H         1 ATP         0.3694
     44 H2         -3.9481    1.6825   -3.0660 H         1 ATP         0.0371
     45 H45        -3.4814    0.7753   -5.1133 H         1 ATP         0.4283
@<TRIPOS>BOND
     1    1    2 2
     2    1    3 1
     3    1    4 1
     4    1    8 1
     5    4   32 1
     6    5    6 2
     7    5    7 1
     8    5    8 1
     9    5   12 1
    10    7   33 1
    11    9   10 2
    12    9   11 1
    13    9   12 1
    14    9   13 1
    15   13   14 1
    16   14   15 1
    17   14   34 1
    18   14   35 1
    19   15   16 1
    20   15   17 1
    21   15   36 1
    22   16   21 1
    23   17   18 1
    24   17   19 1
    25   17   37 1
    26   18   38 1
    27   19   20 1
    28   19   21 1
    29   19   39 1
    30   20   40 1
    31   21   22 1
    32   21   41 1
    33   22   23 ar
    34   22   31 ar
    35   23   24 ar
    36   23   42 1
    37   24   25 ar
    38   25   26 ar
    39   25   31 ar
    40   26   27 2
    41   26   28 ar
    42   27   43 1
    43   28   29 ar
    44   28   45 1
    45   29   30 ar
    46   29   44 1
    47   30   31 ar
@<TRIPOS>SUBSTRUCTURE
     1 ATP         1 GROUP 0 A     ****
@<TRIPOS>MOLECULE
[[[3,4-dihydroxy-5-(6-imino-1~{H}-purin-9-yl)tetrahydrofuran-2-yl]methoxy-oxido-phosphoryl]oxy-hydroxy-phosphoryl] hydrogen phosphate
   45    47     1     0     0
SMALL
USER_CHARGES

@<TRIPOS>ATOM
      1 PG         -7.7865    2.4317    0.0337 P.3       1 ATP         1.5496
      2 O1G        -8.3657    1.0539   -0.1987 O.co2     1 ATP        -0.8494
      3 O2G        -7.8950    3.5084   -1.0229 O.co2     1 ATP        -0.8494
      4 O3G        -8.3879    3.0173    1.4342 O.3       1 ATP        -0.7845
      5 PB         -4.9421    1.7538   -0.3507 P.3       1 ATP         1.9068
      6 O1B        -5.0401    0.3441   -0.8540 O.2       1 ATP        -0.8942
      7 O2B        -4.7396    2.8776   -1.4951 O.3       1 ATP        -0.8166
      8 O3B        -6.2251    2.2799    0.4799 O.3       1 ATP        -0.8194
      9 PA         -3.3161    3.4232    1.4577 P.3       1 ATP         1.5903
     10 O1A        -4.4240    3.8226    2.4079 O.co2     1 ATP        -0.8519
     11 O2A        -2.7983    4.3962    0.4208 O.co2     1 ATP        -0.8519
     12 O3A        -3.7469    2.0445    0.6965 O.3       1 ATP        -0.8093
     13 O5'        -2.0402    2.8619    2.3130 O.3       1 ATP        -0.5649
     14 C5'        -0.8811    2.4285    1.6206 C.3       1 ATP         0.1979
     15 C4'        -0.1994    1.3333    2.4288 C.3       1 ATP         0.1179
     16 O4'        -1.1285    0.2356    2.5840 O.3       1 ATP        -0.3878
     17 C3'         1.0324    0.7610    1.7344 C.3       1 ATP         0.1185
     18 O3'         1.9175    0.2377    2.7247 O.3       1 ATP        -0.5544
     19 C2'         0.4468   -0.3802    0.9263 C.3       1 ATP         0.0542
     20 O2'         1.3993   -1.3703    0.5961 O.3       1 ATP        -0.5831
     21 C1'        -0.6159   -0.9100    1.8769 C.3       1 ATP         0.2222
     22 N9         -1.7127   -1.6108    1.2130 N.pl3     1 ATP        -0.1887
     23 C8         -3.0370   -1.2489    1.2455 C.ar      1 ATP         0.4447
     24 N7         -3.8008   -2.0709    0.5534 N.2       1 ATP        -0.6159
     25 C5         -2.9295   -2.9976    0.0567 C.ar      1 ATP         0.2195
     26 C6         -3.2152   -4.1411   -0.7786 C.ar      1 ATP         0.6144
     27 N6         -4.4238   -4.3865   -1.1456 N.2       1 ATP        -0.8160
     28 N1         -2.0349   -4.8186   -1.0521 N.pl3     1 ATP        -0.8611
     29 C2         -0.7728   -4.4501   -0.5916 C.ar      1 ATP         0.6141
     30 N3         -0.4885   -3.4234    0.1630 N.2       1 ATP        -0.5913
     31 C4         -1.6274   -2.7377    0.4492 C.ar      1 ATP         0.0067
     32 HOG3       -8.1051    3.9098    1.7266 H         1 ATP         0.4313
     33 HOB2       -5.4235    2.9742   -2.1917 H         1 ATP         0.4716
     34 H5'1       -1.1769    2.0503    0.6369 H         1 ATP         0.0452
     35 H5'2       -0.2081    3.2815    1.4877 H         1 ATP         0.0452
     36 H4'         0.0403    1.7078    3.4343 H         1 ATP         0.0998
     37 H3'         1.5906    1.4859    1.1353 H         1 ATP         0.0544
     38 HO3'        2.1521    0.9800    3.3017 H         1 ATP         0.3961
     39 H2'        -0.0017    0.0018    0.0005 H         1 ATP         0.0499
     40 HO2'        1.7495   -1.7243    1.4324 H         1 ATP         0.4045
     41 H1'        -0.1998   -1.6319    2.6178 H         1 ATP         0.0912
     42 H8         -3.3806   -0.3795    1.7893 H         1 ATP         0.1090
     43 HN62       -4.4384   -5.2300   -1.7295 H         1 ATP         0.3694
     44 H2          0.0180   -5.1355   -0.9348 H         1 ATP         0.0371
     45 H45        -2.0977   -5.6477   -1.6374 H         1 ATP         0.4283
@<TRIPOS>BOND
     1    1    2 2
     2    1    3 1
     3    1    4 1
     4    1    8 1
     5    4   32 1
     6    5    6 2
     7    5    7 1
     8    5    8 1
     9    5   12 1
    10    7   33 1
    11    9   10 2
    12    9   11 1
    13    9   12 1
    14    9   13 1
    15   13   14 1
    16   14   15 1
    17   14   34 1
    18   14   35 1
    19   15   16 1
    20   15   17 1
    21   15   36 1
    22   16   21 1
    23   17   18 1
    24   17   19 1
    25   17   37 1
    26   18   38 1
    27   19   20 1
    28   19   21 1
    29   19   39 1
    30   20   40 1
    31   21   22 1
    32   21   41 1
    33   22   23 ar
    34   22   31 ar
    35   23   24 ar
    36   23   42 1
    37   24   25 ar
    38   25   26 ar
    39   25   31 ar
    40   26   27 2
    41   26   28 ar
    42   27   43 1
    43   28   29 ar
    44   28   45 1
    45   29   30 ar
    46   29   44 1
    47   30   31 ar
@<TRIPOS>SUBSTRUCTURE
     1 ATP         1 GROUP 0 A     ****
@<TRIPOS>MOLECULE
[[[3,4-dihydroxy-5-(6-imino-1~{H}-purin-9-yl)tetrahydrofuran-2-yl]methoxy-oxido-phosphoryl]oxy-hydroxy-phosphoryl] hydrogen phosphate
   45    47     1     0     0
SMALL
USER_CHARGES

@<TRIPOS>ATOM
      1 PG         -0.2977    8.7514    1.2397 P.3       1 ATP         1.5496
      2 O1G        -0.2821    9.1158   -0.2282 O.co2     1 ATP        -0.8494
      3 O2G         0.9622    8.8284    2.0728 O.co2     1 ATP        -0.8494
      4 O3G        -1.4621    9.6259    1.9784 O.3       1 ATP        -0.7845
      5 PB         -2.3658    6.6802    0.8779 P.3       1 ATP         1.9068
      6 O1B        -3.5871    7.3916    1.3806 O.2       1 ATP        -0.8942
      7 O2B        -2.1938    6.6664   -0.7295 O.3       1 ATP        -0.8166
      8 O3B        -0.9574    7.2694    1.4089 O.3       1 ATP        -0.8194
      9 PA         -2.1560    4.4277    2.7709 P.3       1 ATP         1.5903
     10 O1A        -3.4707    4.6479    3.4869 O.co2     1 ATP        -0.8519
     11 O2A        -0.8473    4.8292    3.4158 O.co2     1 ATP        -0.8519
     12 O3A        -2.2360    5.1255    1.2968 O.3       1 ATP        -0.8093
     13 O5'        -2.0402    2.8619    2.3130 O.3       1 ATP        -0.5649
     14 C5'        -0.8811    2.4285    1.6206 C.3       1 ATP         0.1979
     15 C4'        -0.1994    1.3333    2.4288 C.3       1 ATP         0.1179
     16 O4'        -1.1285    0.2356    2.5840 O.3       1 ATP        -0.3878
     17 C3'         1.0324    0.7610    1.7344 C.3       1 ATP         0.1185
     18 O3'         1.9175    0.2377    2.7247 O.3       1 ATP        -0.5544
     19 C2'         0.4468   -0.3802    0.9263 C.3       1 ATP         0.0542
     20 O2'         1.3993   -1.3703    0.5961 O.3       1 ATP        -0.5831
     21 C1'        -0.6159   -0.9100    1.8769 C.3       1 ATP         0.2222
     22 N9         -1.7127   -1.6108    1.2130 N.pl3     1 ATP        -0.1887
     23 C8         -1.7690   -2.9583    0.9549 C.ar      1 ATP         0.4447
     24 N7         -2.8827   -3.3076    0.3418 N.2       1 ATP        -0.6159
     25 C5         -3.5683   -2.1351    0.2017 C.ar      1 ATP         0.2195
     26 C6         -4.8617   -1.9185   -0.4044 C.ar      1 ATP         0.6144
     27 N6         -5.5166   -2.9094   -0.8994 N.2       1 ATP        -0.8160
     28 N1         -5.1836   -0.5701   -0.3344 N.pl3     1 ATP        -0.8611
     29 C2         -4.3821    0.4180    0.2330 C.ar      1 ATP         0.6141
     30 N3         -3.2117    0.2488    0.7860 N.2       1 ATP        -0.5913
     31 C4         -2.8672   -1.0657    0.7327 C.ar      1 ATP         0.0067
     32 HOG3       -1.5984    9.5020    2.9419 H         1 ATP         0.4313
     33 HOB2       -2.1230    7.5207   -1.2065 H         1 ATP         0.4716
     34 H5'1       -1.1769    2.0503    0.6369 H         1 ATP         0.0452
     35 H5'2       -0.2081    3.2815    1.4877 H         1 ATP         0.0452
     36 H4'         0.0403    1.7078    3.4343 H         1 ATP         0.0998
     37 H3'         1.5906    1.4859    1.1353 H         1 ATP         0.0544
     38 HO3'        2.6839   -0.1150    2.2479 H         1 ATP         0.3961
     39 H2'        -0.0017    0.0018    0.0005 H         1 ATP         0.0499
     40 HO2'        0.9369   -2.0558    0.0825 H         1 ATP         0.4045
     41 H1'        -0.1998   -1.6319    2.6178 H         1 ATP         0.0912
     42 H8         -0.9697   -3.6300    1.2371 H         1 ATP         0.1090
     43 HN62       -6.4060   -2.5723   -1.2840 H         1 ATP         0.3694
     44 H2         -4.8409    1.4176    0.1757 H         1 ATP         0.0371
     45 H45        -6.0768   -0.2826   -0.7263 H         1 ATP         0.4283
@<TRIPOS>BOND
     1    1    2 2
     2    1    3 1
     3    1    4 1
     4    1    8 1
     5    4   32 1
     6    5    6 2
     7    5    7 1
     8    5    8 1
     9    5   12 1
    10    7   33 1
    11    9   10 2
    12    9   11 1
    13    9   12 1
    14    9   13 1
    15   13   14 1
    16   14   15 1
    17   14   34 1
    18   14   35 1
    19   15   16 1
    20   15   17 1
    21   15   36 1
    22   16   21 1
    23   17   18 1
    24   17   19 1
    25   17   37 1
    26   18   38 1
    27   19   20 1
    28   19   21 1
    29   19   39 1
    30   20   40 1
    31   21   22 1
    32   21   41 1
    33   22   23 ar
    34   22   31 ar
    35   23   24 ar
    36   23   42 1
    37   24   25 ar
    38   25   26 ar
    39   25   31 ar
    40   26   27 2
    41   26   28 ar
    42   27   43 1
    43   28   29 ar
    44   28   45 1
    45   29   30 ar
    46   29   44 1
    47   30   31 ar
@<TRIPOS>SUBSTRUCTURE
     1 ATP         1 GROUP 0 A     ****
@<TRIPOS>MOLECULE
[[[3,4-dihydroxy-5-(6-imino-1~{H}-purin-9-yl)tetrahydrofuran-2-yl]methoxy-oxido-phosphoryl]oxy-hydroxy-phosphoryl] hydrogen phosphate
   45    47     1     0     0
SMALL
USER_CHARGES

@<TRIPOS>ATOM
      1 PG          7.8376    3.7825    5.1307 P.3       1 ATP         1.5496
      2 O1G         6.6341    3.4944    6.0003 O.co2     1 ATP        -0.8494
      3 O2G         8.5216    5.1308    5.1727 O.co2     1 ATP        -0.8494
      4 O3G         8.9578    2.6244    5.3959 O.3       1 ATP        -0.7845
      5 PB          6.4228    4.1112    2.5639 P.3       1 ATP         1.9068
      6 O1B         4.9914    4.0999    3.0124 O.2       1 ATP        -0.8942
      7 O2B         7.0492    5.5794    2.3077 O.3       1 ATP        -0.8166
      8 O3B         7.4700    3.4206    3.5834 O.3       1 ATP        -0.8194
      9 PA          6.1592    3.5242   -0.3148 P.3       1 ATP         1.5903
     10 O1A         6.6758    2.4088   -1.1974 O.co2     1 ATP        -0.8519
     11 O2A         6.3637    4.9731   -0.7001 O.co2     1 ATP        -0.8519
     12 O3A         6.7372    3.3096    1.1971 O.3       1 ATP        -0.8093
     13 O5'         4.5669    3.2939   -0.0211 O.3       1 ATP        -0.5649
     14 C5'         4.0922    1.9801    0.2227 C.3       1 ATP         0.1979
     15 C4'         2.5944    2.0310    0.4653 C.3       1 ATP         0.1179
     16 O4'         1.9327    2.5740   -0.6889 O.3       1 ATP        -0.3878
     17 C3'         1.9685    0.6634    0.6767 C.3       1 ATP         0.1185
     18 O3'         2.1425    0.1975    1.9977 O.3       1 ATP        -0.5544
     19 C2'         0.5176    0.9128    0.3099 C.3       1 ATP         0.0542
     20 O2'        -0.2103    1.4454    1.4152 O.3       1 ATP        -0.5831
     21 C1'         0.6219    1.9765   -0.7844 C.3       1 ATP         0.2222
     22 N9          0.4237    1.4496   -2.1357 N.pl3     1 ATP        -0.1887
     23 C8          1.4069    0.9710   -2.9662 C.ar      1 ATP         0.4447
     24 N7          0.9316    0.5623   -4.1260 N.2       1 ATP        -0.6159
     25 C5         -0.4120    0.7884   -4.0344 C.ar      1 ATP         0.2195
     26 C6         -1.4353    0.5283   -5.0204 C.ar      1 ATP         0.6144
     27 N6         -1.1199    0.0176   -6.1586 N.2       1 ATP        -0.8160
     28 N1         -2.6704    0.9095   -4.5147 N.pl3     1 ATP        -0.8611
     29 C2         -2.8863    1.4571   -3.2520 C.ar      1 ATP         0.6141
     30 N3         -1.9805    1.7017   -2.3442 N.2       1 ATP        -0.5913
     31 C4         -0.7561    1.3381   -2.8112 C.ar      1 ATP         0.0067
     32 HOG3        9.8038    2.6715    4.9017 H         1 ATP         0.4313
     33 HOB2        6.6367    6.1601    1.6333 H         1 ATP         0.4716
     34 H5'1        4.3180    1.3550   -0.6470 H         1 ATP         0.0452
     35 H5'2        4.6084    1.5739    1.0983 H         1 ATP         0.0452
     36 H4'         2.3751    2.7029    1.3156 H         1 ATP         0.0998
     37 H3'         2.4336   -0.1217   -0.0015 H         1 ATP         0.0544
     38 HO3'        1.7160   -0.6716    2.0397 H         1 ATP         0.3961
     39 H2'         0.0316    0.0155   -0.0339 H         1 ATP         0.0499
     40 HO2'       -0.1608    0.7921    2.1351 H         1 ATP         0.4045
     41 H1'        -0.1474    2.7798   -0.6651 H         1 ATP         0.0912
     42 H8          2.4466    0.9468   -2.6694 H         1 ATP         0.1090
     43 HN62       -1.9661   -0.0965   -6.7275 H         1 ATP         0.3694
     44 H2         -3.9481    1.6825   -3.0660 H         1 ATP         0.0371
     45 H45        -3.4814    0.7753   -5.1133 H         1 ATP         0.4283
@<TRIPOS>BOND
     1    1    2 2
     2    1    3 1
     3    1    4 1
     4    1    8 1
     5    4   32 1
     6    5    6 2
     7    5    7 1
     8    5    8 1
     9    5   12 1
    10    7   33 1
    11    9   10 2
    12    9   11 1
    13    9   12 1
    14    9   13 1
    15   13   14 1
    16   14   15 1
    17   14   34 1
    18   14   35 1
    19   15   16 1
    20   15   17 1
    21   15   36 1
    22   16   21 1
    23   17   18 1
    24   17   19 1
    25   17   37 1
    26   18   38 1
    27   19   20 1
    28   19   21 1
    29   19   39 1
    30   20   40 1
    31   21   22 1
    32   21   41 1
    33   22   23 ar
    34   22   31 ar
    35   23   24 ar
    36   23   42 1
    37   24   25 ar
    38   25   26 ar
    39   25   31 ar
    40   26   27 2
    41   26   28 ar
    42   27   43 1
    43   28   29 ar
    44   28   45 1
    45   29   30 ar
    46   29   44 1
    47   30   31 ar
@<TRIPOS>SUBSTRUCTURE
     1 ATP         1 GROUP 0 A     ****
@<TRIPOS>MOLECULE
[[[3,4-dihydroxy-5-(6-imino-1~{H}-purin-9-yl)tetrahydrofuran-2-yl]methoxy-oxido-phosphoryl]oxy-hydroxy-phosphoryl] hydrogen phosphate
   45    47     1     0     0
SMALL
USER_CHARGES

@<TRIPOS>ATOM
      1 PG         -6.1296    5.7958    0.1573 P.3       1 ATP         1.5496
      2 O1G        -5.9880    6.6369   -1.0917 O.co2     1 ATP        -0.8494
      3 O2G        -7.0707    6.2062    1.2679 O.co2     1 ATP        -0.8494
      4 O3G        -6.4872    4.2656   -0.2862 O.3       1 ATP        -0.7845
      5 PB         -3.3087    4.9369    0.1038 P.3       1 ATP         1.9068
      6 O1B        -3.4338    3.5474   -0.4475 O.2       1 ATP        -0.8942
      7 O2B        -2.8948    6.0675   -0.9749 O.3       1 ATP        -0.8166
      8 O3B        -4.6483    5.5307    0.7863 O.3       1 ATP        -0.8194
      9 PA         -2.1560    4.4277    2.7709 P.3       1 ATP         1.5903
     10 O1A        -3.4707    4.6479    3.4869 O.co2     1 ATP        -0.8519
     11 O2A        -0.8473    4.8292    3.4158 O.co2     1 ATP        -0.8519
     12 O3A        -2.2360    5.1255    1.2968 O.3       1 ATP        -0.8093
     13 O5'        -2.0402    2.8619    2.3130 O.3       1 ATP        -0.5649
     14 C5'        -0.8811    2.4285    1.6206 C.3       1 ATP         0.1979
     15 C4'        -0.1994    1.3333    2.4288 C.3       1 ATP         0.1179
     16 O4'        -1.1285    0.2356    2.5840 O.3       1 ATP        -0.3878
     17 C3'         1.0324    0.7610    1.7344 C.3       1 ATP         0.1185
     18 O3'         1.9175    0.2377    2.7247 O.3       1 ATP        -0.5544
     19 C2'         0.4468   -0.3802    0.9263 C.3       1 ATP         0.0542
     20 O2'         1.3993   -1.3703    0.5961 O.3       1 ATP        -0.5831
     21 C1'        -0.6159   -0.9100    1.8769 C.3       1 ATP         0.2222
     22 N9         -1.7127   -1.6108    1.2130 N.pl3     1 ATP        -0.1887
     23 C8         -2.8662   -1.0361    0.7388 C.ar      1 ATP         0.4447
     24 N7         -3.6774   -1.9166    0.1867 N.2       1 ATP        -0.6159
     25 C5         -3.0159   -3.1045    0.3123 C.ar      1 ATP         0.2195
     26 C6         -3.4377   -4.4169   -0.1199 C.ar      1 ATP         0.6144
     27 N6         -4.5720   -4.5691   -0.7080 N.2       1 ATP        -0.8160
     28 N1         -2.4600   -5.3463    0.2071 N.pl3     1 ATP        -0.8611
     29 C2         -1.2595   -5.0554    0.8515 C.ar      1 ATP         0.6141
     30 N3         -0.8555   -3.8803    1.2516 N.2       1 ATP        -0.5913
     31 C4         -1.7946   -2.9457    0.9448 C.ar      1 ATP         0.0067
     32 HOG3       -5.8496    3.7833   -0.8546 H         1 ATP         0.4313
     33 HOB2       -3.4798    6.2239   -1.7467 H         1 ATP         0.4716
     34 H5'1       -1.1769    2.0503    0.6369 H         1 ATP         0.0452
     35 H5'2       -0.2081    3.2815    1.4877 H         1 ATP         0.0452
     36 H4'         0.0403    1.7078    3.4343 H         1 ATP         0.0998
     37 H3'         1.5906    1.4859    1.1353 H         1 ATP         0.0544
     38 HO3'        2.6839   -0.1150    2.2479 H         1 ATP         0.3961
     39 H2'        -0.0017    0.0018    0.0005 H         1 ATP         0.0499
     40 HO2'        2.0953   -0.9375    0.0709 H         1 ATP         0.4045
     41 H1'        -0.1998   -1.6319    2.6178 H         1 ATP         0.0912
     42 H8         -3.0558    0.0252    0.8256 H         1 ATP         0.1090
     43 HN62       -4.7047   -5.5592   -0.9421 H         1 ATP         0.3694
     44 H2         -0.6372   -5.9505    1.0077 H         1 ATP         0.0371
     45 H45        -2.6338   -6.3155   -0.0469 H         1 ATP         0.4283
@<TRIPOS>BOND
     1    1    2 2
     2    1    3 1
     3    1    4 1
     4    1    8 1
     5    4   32 1
     6    5    6 2
     7    5    7 1
     8    5    8 1
     9    5   12 1
    10    7   33 1
    11    9   10 2
    12    9   11 1
    13    9   12 1
    14    9   13 1
    15   13   14 1
    16   14   15 1
    17   14   34 1
    18   14   35 1
    19   15   16 1
    20   15   17 1
    21   15   36 1
    22   16   21 1
    23   17   18 1
    24   17   19 1
    25   17   37 1
    26   18   38 1
    27   19   20 1
    28   19   21 1
    29   19   39 1
    30   20   40 1
    31   21   22 1
    32   21   41 1
    33   22   23 ar
    34   22   31 ar
    35   23   24 ar
    36   23   42 1
    37   24   25 ar
    38   25   26 ar
    39   25   31 ar
    40   26   27 2
    41   26   28 ar
    42   27   43 1
    43   28   29 ar
    44   28   45 1
    45   29   30 ar
    46   29   44 1
    47   30   31 ar
@<TRIPOS>SUBSTRUCTURE
     1 ATP         1 GROUP 0 A     ****
@<TRIPOS>MOLECULE
[[[3,4-dihydroxy-5-(6-imino-1~{H}-purin-9-yl)tetrahydrofuran-2-yl]methoxy-oxido-phosphoryl]oxy-hydroxy-phosphoryl] hydrogen phosphate
   45    47     1     0     0
SMALL
USER_CHARGES

@<TRIPOS>ATOM
      1 PG         -4.2585    4.6454   -1.4176 P.3       1 ATP         1.5496
      2 O1G        -4.0809    3.9800   -0.0710 O.co2     1 ATP        -0.8494
      3 O2G        -4.5956    3.8323   -2.6475 O.co2     1 ATP        -0.8494
      4 O3G        -5.3641    5.8372   -1.2650 O.3       1 ATP        -0.7845
      5 PB         -1.4126    5.1413   -2.0113 P.3       1 ATP         1.9068
      6 O1B        -1.2011    4.2555   -3.2034 O.2       1 ATP        -0.8942
      7 O2B        -0.6291    6.5546   -2.0601 O.3       1 ATP        -0.8166
      8 O3B        -2.9473    5.5636   -1.7301 O.3       1 ATP        -0.8194
      9 PA          0.4529    3.9703   -0.0492 P.3       1 ATP         1.5903
     10 O1A         1.4112    5.1385    0.0342 O.co2     1 ATP        -0.8519
     11 O2A         0.8147    2.7278   -0.8334 O.co2     1 ATP        -0.8519
     12 O3A        -0.9915    4.5116   -0.5846 O.3       1 ATP        -0.8093
     13 O5'         0.0180    3.5131    1.4595 O.3       1 ATP        -0.5649
     14 C5'        -0.8811    2.4285    1.6206 C.3       1 ATP         0.1979
     15 C4'        -0.1994    1.3333    2.4288 C.3       1 ATP         0.1179
     16 O4'        -1.1285    0.2356    2.5840 O.3       1 ATP        -0.3878
     17 C3'         1.0324    0.7610    1.7344 C.3       1 ATP         0.1185
     18 O3'         1.9175    0.2377    2.7247 O.3       1 ATP        -0.5544
     19 C2'         0.4468   -0.3802    0.9263 C.3       1 ATP         0.0542
     20 O2'         1.3993   -1.3703    0.5961 O.3       1 ATP        -0.5831
     21 C1'        -0.6159   -0.9100    1.8769 C.3       1 ATP         0.2222
     22 N9         -1.7127   -1.6108    1.2130 N.pl3     1 ATP        -0.1887
     23 C8         -2.8662   -1.0361    0.7388 C.ar      1 ATP         0.4447
     24 N7         -3.6774   -1.9166    0.1867 N.2       1 ATP        -0.6159
     25 C5         -3.0159   -3.1045    0.3123 C.ar      1 ATP         0.2195
     26 C6         -3.4377   -4.4169   -0.1199 C.ar      1 ATP         0.6144
     27 N6         -4.5720   -4.5691   -0.7080 N.2       1 ATP        -0.8160
     28 N1         -2.4600   -5.3463    0.2071 N.pl3     1 ATP        -0.8611
     29 C2         -1.2595   -5.0554    0.8515 C.ar      1 ATP         0.6141
     30 N3         -0.8555   -3.8803    1.2516 N.2       1 ATP        -0.5913
     31 C4         -1.7946   -2.9457    0.9448 C.ar      1 ATP         0.0067
     32 HOG3       -5.5915    6.3674   -2.0584 H         1 ATP         0.4313
     33 HOB2       -0.8199    7.1779   -2.7932 H         1 ATP         0.4716
     34 H5'1       -1.7770    2.7851    2.1387 H         1 ATP         0.0452
     35 H5'2       -1.1653    2.0543    0.6320 H         1 ATP         0.0452
     36 H4'         0.0403    1.7078    3.4343 H         1 ATP         0.0998
     37 H3'         1.5906    1.4859    1.1353 H         1 ATP         0.0544
     38 HO3'        2.1521    0.9800    3.3017 H         1 ATP         0.3961
     39 H2'        -0.0017    0.0018    0.0005 H         1 ATP         0.0499
     40 HO2'        0.9369   -2.0558    0.0825 H         1 ATP         0.4045
     41 H1'        -0.1998   -1.6319    2.6178 H         1 ATP         0.0912
     42 H8         -3.0558    0.0252    0.8256 H         1 ATP         0.1090
     43 HN62       -4.7047   -5.5592   -0.9421 H         1 ATP         0.3694
     44 H2         -0.6372   -5.9505    1.0077 H         1 ATP         0.0371
     45 H45        -2.6338   -6.3155   -0.0469 H         1 ATP         0.4283
@<TRIPOS>BOND
     1    1    2 2
     2    1    3 1
     3    1    4 1
     4    1    8 1
     5    4   32 1
     6    5    6 2
     7    5    7 1
     8    5    8 1
     9    5   12 1
    10    7   33 1
    11    9   10 2
    12    9   11 1
    13    9   12 1
    14    9   13 1
    15   13   14 1
    16   14   15 1
    17   14   34 1
    18   14   35 1
    19   15   16 1
    20   15   17 1
    21   15   36 1
    22   16   21 1
    23   17   18 1
    24   17   19 1
    25   17   37 1
    26   18   38 1
    27   19   20 1
    28   19   21 1
    29   19   39 1
    30   20   40 1
    31   21   22 1
    32   21   41 1
    33   22   23 ar
    34   22   31 ar
    35   23   24 ar
    36   23   42 1
    37   24   25 ar
    38   25   26 ar
    39   25   31 ar
    40   26   27 2
    41   26   28 ar
    42   27   43 1
    43   28   29 ar
    44   28   45 1
    45   29   30 ar
    46   29   44 1
    47   30   31 ar
@<TRIPOS>SUBSTRUCTURE
     1 ATP         1 GROUP 0 A     ****
@<TRIPOS>MOLECULE
[[[3,4-dihydroxy-5-(6-imino-1~{H}-purin-9-yl)tetrahydrofuran-2-yl]methoxy-oxido-phosphoryl]oxy-hydroxy-phosphoryl] hydrogen phosphate
   45    47     1     0     0
SMALL
USER_CHARGES

@<TRIPOS>ATOM
      1 PG          6.1182   -3.0744   -0.9789 P.3       1 ATP         1.5496
      2 O1G         4.7840   -2.5324   -0.5164 O.co2     1 ATP        -0.8494
      3 O2G         6.8280   -4.1597   -0.2005 O.co2     1 ATP        -0.8494
      4 O3G         5.9701   -3.5616   -2.5303 O.3       1 ATP        -0.7845
      5 PB          7.7987   -0.7974   -0.1488 P.3       1 ATP         1.9068
      6 O1B         8.6451   -1.4283    0.9169 O.2       1 ATP        -0.8942
      7 O2B         8.5622    0.2792   -1.0824 O.3       1 ATP        -0.8166
      8 O3B         7.1439   -1.8273   -1.2087 O.3       1 ATP        -0.8194
      9 PA          6.3564    1.2770    1.3735 P.3       1 ATP         1.5903
     10 O1A         6.9876    2.4827    0.7119 O.co2     1 ATP        -0.8519
     11 O2A         6.7838    0.8427    2.7586 O.co2     1 ATP        -0.8519
     12 O3A         6.4907   -0.0043    0.3705 O.3       1 ATP        -0.8093
     13 O5'         4.7294    1.4426    1.3698 O.3       1 ATP        -0.5649
     14 C5'         4.0922    1.9801    0.2227 C.3       1 ATP         0.1979
     15 C4'         2.5944    2.0310    0.4653 C.3       1 ATP         0.1179
     16 O4'         1.9327    2.5740   -0.6889 O.3       1 ATP        -0.3878
     17 C3'         1.9685    0.6634    0.6767 C.3       1 ATP         0.1185
     18 O3'         2.1425    0.1975    1.9977 O.3       1 ATP        -0.5544
     19 C2'         0.5176    0.9128    0.3099 C.3       1 ATP         0.0542
     20 O2'        -0.2103    1.4454    1.4152 O.3       1 ATP        -0.5831
     21 C1'         0.6219    1.9765   -0.7844 C.3       1 ATP         0.2222
     22 N9          0.4237    1.4496   -2.1357 N.pl3     1 ATP        -0.1887
     23 C8          1.4069    0.9710   -2.9662 C.ar      1 ATP         0.4447
     24 N7          0.9316    0.5623   -4.1260 N.2       1 ATP        -0.6159
     25 C5         -0.4120    0.7884   -4.0344 C.ar      1 ATP         0.2195
     26 C6         -1.4353    0.5283   -5.0204 C.ar      1 ATP         0.6144
     27 N6         -1.1199    0.0176   -6.1586 N.2       1 ATP        -0.8160
     28 N1         -2.6704    0.9095   -4.5147 N.pl3     1 ATP        -0.8611
     29 C2         -2.8863    1.4571   -3.2520 C.ar      1 ATP         0.6141
     30 N3         -1.9805    1.7017   -2.3442 N.2       1 ATP        -0.5913
     31 C4         -0.7561    1.3381   -2.8112 C.ar      1 ATP         0.0067
     32 HOG3        6.7565   -3.9407   -2.9776 H         1 ATP         0.4313
     33 HOB2        8.9596    1.0726   -0.6642 H         1 ATP         0.4716
     34 H5'1        4.4844    2.9853    0.0382 H         1 ATP         0.0452
     35 H5'2        4.3192    1.3445   -0.6391 H         1 ATP         0.0452
     36 H4'         2.3751    2.7029    1.3156 H         1 ATP         0.0998
     37 H3'         2.4336   -0.1217   -0.0015 H         1 ATP         0.0544
     38 HO3'        1.7160   -0.6716    2.0397 H         1 ATP         0.3961
     39 H2'         0.0316    0.0155   -0.0339 H         1 ATP         0.0499
     40 HO2'       -1.1270    1.5823    1.1180 H         1 ATP         0.4045
     41 H1'        -0.1474    2.7798   -0.6651 H         1 ATP         0.0912
     42 H8          2.4466    0.9468   -2.6694 H         1 ATP         0.1090
     43 HN62       -1.9661   -0.0965   -6.7275 H         1 ATP         0.3694
     44 H2         -3.9481    1.6825   -3.0660 H         1 ATP         0.0371
     45 H45        -3.4814    0.7753   -5.1133 H         1 ATP         0.4283
@<TRIPOS>BOND
     1    1    2 2
     2    1    3 1
     3    1    4 1
     4    1    8 1
     5    4   32 1
     6    5    6 2
     7    5    7 1
     8    5    8 1
     9    5   12 1
    10    7   33 1
    11    9   10 2
    12    9   11 1
    13    9   12 1
    14    9   13 1
    15   13   14 1
    16   14   15 1
    17   14   34 1
    18   14   35 1
    19   15   16 1
    20   15   17 1
    21   15   36 1
    22   16   21 1
    23   17   18 1
    24   17   19 1
    25   17   37 1
    26   18   38 1
    27   19   20 1
    28   19   21 1
    29   19   39 1
    30   20   40 1
    31   21   22 1
    32   21   41 1
    33   22   23 ar
    34   22   31 ar
    35   23   24 ar
    36   23   42 1
    37   24   25 ar
    38   25   26 ar
    39   25   31 ar
    40   26   27 2
    41   26   28 ar
    42   27   43 1
    43   28   29 ar
    44   28   45 1
    45   29   30 ar
    46   29   44 1
    47   30   31 ar
@<TRIPOS>SUBSTRUCTURE
     1 ATP         1 GROUP 0 A     ****
@<TRIPOS>MOLECULE
[[[3,4-dihydroxy-5-(6-imino-1~{H}-purin-9-yl)tetrahydrofuran-2-yl]methoxy-oxido-phosphoryl]oxy-hydroxy-phosphoryl] hydrogen phosphate
   45    47     1     0     0
SMALL
USER_CHARGES

@<TRIPOS>ATOM
      1 PG          5.0057   -4.3783   -1.3608 P.3       1 ATP         1.5496
      2 O1G         5.3891   -5.4845   -0.4032 O.co2     1 ATP        -0.8494
      3 O2G         5.7242   -4.2097   -2.6809 O.co2     1 ATP        -0.8494
      4 O3G         3.4022   -4.4777   -1.6522 O.3       1 ATP        -0.7845
      5 PB          6.2538   -2.1307    0.0845 P.3       1 ATP         1.9068
      6 O1B         7.0228   -2.8553    1.1493 O.2       1 ATP        -0.8942
      7 O2B         7.1241   -1.6753   -1.1995 O.3       1 ATP        -0.8166
      8 O3B         5.0235   -2.9573   -0.5604 O.3       1 ATP        -0.8194
      9 PA          6.1201    0.6015    1.1882 P.3       1 ATP         1.5903
     10 O1A         6.9864    1.2777    0.1479 O.co2     1 ATP        -0.8519
     11 O2A         6.6660    0.2886    2.5644 O.co2     1 ATP        -0.8519
     12 O3A         5.5121   -0.7744    0.5532 O.3       1 ATP        -0.8093
     13 O5'         4.7294    1.4426    1.3698 O.3       1 ATP        -0.5649
     14 C5'         4.0922    1.9801    0.2227 C.3       1 ATP         0.1979
     15 C4'         2.5944    2.0310    0.4653 C.3       1 ATP         0.1179
     16 O4'         1.9327    2.5740   -0.6889 O.3       1 ATP        -0.3878
     17 C3'         1.9685    0.6634    0.6767 C.3       1 ATP         0.1185
     18 O3'         2.1425    0.1975    1.9977 O.3       1 ATP        -0.5544
     19 C2'         0.5176    0.9128    0.3099 C.3       1 ATP         0.0542
     20 O2'        -0.2103    1.4454    1.4152 O.3       1 ATP        -0.5831
     21 C1'         0.6219    1.9765   -0.7844 C.3       1 ATP         0.2222
     22 N9          0.4237    1.4496   -2.1357 N.pl3     1 ATP        -0.1887
     23 C8          1.4069    0.9710   -2.9662 C.ar      1 ATP         0.4447
     24 N7          0.9316    0.5623   -4.1260 N.2       1 ATP        -0.6159
     25 C5         -0.4120    0.7884   -4.0344 C.ar      1 ATP         0.2195
     26 C6         -1.4353    0.5283   -5.0204 C.ar      1 ATP         0.6144
     27 N6         -1.1199    0.0176   -6.1586 N.2       1 ATP        -0.8160
     28 N1         -2.6704    0.9095   -4.5147 N.pl3     1 ATP        -0.8611
     29 C2         -2.8863    1.4571   -3.2520 C.ar      1 ATP         0.6141
     30 N3         -1.9805    1.7017   -2.3442 N.2       1 ATP        -0.5913
     31 C4         -0.7561    1.3381   -2.8112 C.ar      1 ATP         0.0067
     32 HOG3        2.9968   -3.8231   -2.2600 H         1 ATP         0.4313
     33 HOB2        7.8815   -1.0659   -1.0675 H         1 ATP         0.4716
     34 H5'1        4.4844    2.9853    0.0382 H         1 ATP         0.0452
     35 H5'2        4.3192    1.3445   -0.6391 H         1 ATP         0.0452
     36 H4'         2.3751    2.7029    1.3156 H         1 ATP         0.0998
     37 H3'         2.4336   -0.1217   -0.0015 H         1 ATP         0.0544
     38 HO3'        3.0987    0.1465    2.1461 H         1 ATP         0.3961
     39 H2'         0.0316    0.0155   -0.0339 H         1 ATP         0.0499
     40 HO2'       -0.1608    0.7921    2.1351 H         1 ATP         0.4045
     41 H1'        -0.1474    2.7798   -0.6651 H         1 ATP         0.0912
     42 H8          2.4466    0.9468   -2.6694 H         1 ATP         0.1090
     43 HN62       -1.9661   -0.0965   -6.7275 H         1 ATP         0.3694
     44 H2         -3.9481    1.6825   -3.0660 H         1 ATP         0.0371
     45 H45        -3.4814    0.7753   -5.1133 H         1 ATP         0.4283
@<TRIPOS>BOND
     1    1    2 2
     2    1    3 1
     3    1    4 1
     4    1    8 1
     5    4   32 1
     6    5    6 2
     7    5    7 1
     8    5    8 1
     9    5   12 1
    10    7   33 1
    11    9   10 2
    12    9   11 1
    13    9   12 1
    14    9   13 1
    15   13   14 1
    16   14   15 1
    17   14   34 1
    18   14   35 1
    19   15   16 1
    20   15   17 1
    21   15   36 1
    22   16   21 1
    23   17   18 1
    24   17   19 1
    25   17   37 1
    26   18   38 1
    27   19   20 1
    28   19   21 1
    29   19   39 1
    30   20   40 1
    31   21   22 1
    32   21   41 1
    33   22   23 ar
    34   22   31 ar
    35   23   24 ar
    36   23   42 1
    37   24   25 ar
    38   25   26 ar
    39   25   31 ar
    40   26   27 2
    41   26   28 ar
    42   27   43 1
    43   28   29 ar
    44   28   45 1
    45   29   30 ar
    46   29   44 1
    47   30   31 ar
@<TRIPOS>SUBSTRUCTURE
     1 ATP         1 GROUP 0 A     ****
@<TRIPOS>MOLECULE
[[[3,4-dihydroxy-5-(6-imino-1~{H}-purin-9-yl)tetrahydrofuran-2-yl]methoxy-oxido-phosphoryl]oxy-hydroxy-phosphoryl] hydrogen phosphate
   45    47     1     0     0
SMALL
USER_CHARGES

@<TRIPOS>ATOM
      1 PG          7.2368    3.6426    4.5175 P.3       1 ATP         1.5496
      2 O1G         5.7581    3.6529    4.1995 O.co2     1 ATP        -0.8494
      3 O2G         7.9607    4.9178    4.8882 O.co2     1 ATP        -0.8494
      4 O3G         7.5081    2.5342    5.6854 O.3       1 ATP        -0.7845
      5 PB          8.2497    3.3731    1.7608 P.3       1 ATP         1.9068
      6 O1B         8.9597    4.6818    1.5780 O.2       1 ATP        -0.8942
      7 O2B         8.9740    2.0993    1.0779 O.3       1 ATP        -0.8166
      8 O3B         8.0347    2.9141    3.2957 O.3       1 ATP        -0.8194
      9 PA          6.1592    3.5242   -0.3148 P.3       1 ATP         1.5903
     10 O1A         6.6758    2.4088   -1.1974 O.co2     1 ATP        -0.8519
     11 O2A         6.3637    4.9731   -0.7001 O.co2     1 ATP        -0.8519
     12 O3A         6.7372    3.3096    1.1971 O.3       1 ATP        -0.8093
     13 O5'         4.5669    3.2939   -0.0211 O.3       1 ATP        -0.5649
     14 C5'         4.0922    1.9801    0.2227 C.3       1 ATP         0.1979
     15 C4'         2.5944    2.0310    0.4653 C.3       1 ATP         0.1179
     16 O4'         1.9327    2.5740   -0.6889 O.3       1 ATP        -0.3878
     17 C3'         1.9685    0.6634    0.6767 C.3       1 ATP         0.1185
     18 O3'         2.1425    0.1975    1.9977 O.3       1 ATP        -0.5544
     19 C2'         0.5176    0.9128    0.3099 C.3       1 ATP         0.0542
     20 O2'        -0.2103    1.4454    1.4152 O.3       1 ATP        -0.5831
     21 C1'         0.6219    1.9765   -0.7844 C.3       1 ATP         0.2222
     22 N9          0.4237    1.4496   -2.1357 N.pl3     1 ATP        -0.1887
     23 C8          1.4069    0.9710   -2.9662 C.ar      1 ATP         0.4447
     24 N7          0.9316    0.5623   -4.1260 N.2       1 ATP        -0.6159
     25 C5         -0.4120    0.7884   -4.0344 C.ar      1 ATP         0.2195
     26 C6         -1.4353    0.5283   -5.0204 C.ar      1 ATP         0.6144
     27 N6         -1.1199    0.0176   -6.1586 N.2       1 ATP        -0.8160
     28 N1         -2.6704    0.9095   -4.5147 N.pl3     1 ATP        -0.8611
     29 C2         -2.8863    1.4571   -3.2520 C.ar      1 ATP         0.6141
     30 N3         -1.9805    1.7017   -2.3442 N.2       1 ATP        -0.5913
     31 C4         -0.7561    1.3381   -2.8112 C.ar      1 ATP         0.0067
     32 HOG3        8.4271    2.4073    6.0039 H         1 ATP         0.4313
     33 HOB2        9.1196    2.0999    0.1078 H         1 ATP         0.4716
     34 H5'1        4.3180    1.3550   -0.6470 H         1 ATP         0.0452
     35 H5'2        4.6084    1.5739    1.0983 H         1 ATP         0.0452
     36 H4'         2.3751    2.7029    1.3156 H         1 ATP         0.0998
     37 H3'         2.4336   -0.1217   -0.0015 H         1 ATP         0.0544
     38 HO3'        3.0987    0.1465    2.1461 H         1 ATP         0.3961
     39 H2'         0.0316    0.0155   -0.0339 H         1 ATP         0.0499
     40 HO2'       -0.1608    0.7921    2.1351 H         1 ATP         0.4045
     41 H1'        -0.1474    2.7798   -0.6651 H         1 ATP         0.0912
     42 H8          2.4466    0.9468   -2.6694 H         1 ATP         0.1090
     43 HN62       -1.9661   -0.0965   -6.7275 H         1 ATP         0.3694
     44 H2         -3.9481    1.6825   -3.0660 H         1 ATP         0.0371
     45 H45        -3.4814    0.7753   -5.1133 H         1 ATP         0.4283
@<TRIPOS>BOND
     1    1    2 2
     2    1    3 1
     3    1    4 1
     4    1    8 1
     5    4   32 1
     6    5    6 2
     7    5    7 1
     8    5    8 1
     9    5   12 1
    10    7   33 1
    11    9   10 2
    12    9   11 1
    13    9   12 1
    14    9   13 1
    15   13   14 1
    16   14   15 1
    17   14   34 1
    18   14   35 1
    19   15   16 1
    20   15   17 1
    21   15   36 1
    22   16   21 1
    23   17   18 1
    24   17   19 1
    25   17   37 1
    26   18   38 1
    27   19   20 1
    28   19   21 1
    29   19   39 1
    30   20   40 1
    31   21   22 1
    32   21   41 1
    33   22   23 ar
    34   22   31 ar
    35   23   24 ar
    36   23   42 1
    37   24   25 ar
    38   25   26 ar
    39   25   31 ar
    40   26   27 2
    41   26   28 ar
    42   27   43 1
    43   28   29 ar
    44   28   45 1
    45   29   30 ar
    46   29   44 1
    47   30   31 ar
@<TRIPOS>SUBSTRUCTURE
     1 ATP         1 GROUP 0 A     ****
@<TRIPOS>MOLECULE
[[[3,4-dihydroxy-5-(6-imino-1~{H}-purin-9-yl)tetrahydrofuran-2-yl]methoxy-oxido-phosphoryl]oxy-hydroxy-phosphoryl] hydrogen phosphate
   45    47     1     0     0
SMALL
USER_CHARGES

@<TRIPOS>ATOM
      1 PG          5.2305    1.0975    5.2517 P.3       1 ATP         1.5496
      2 O1G         5.6639    0.7955    6.6690 O.co2     1 ATP        -0.8494
      3 O2G         5.7723    0.2996    4.0868 O.co2     1 ATP        -0.8494
      4 O3G         3.5992    1.0624    5.1901 O.3       1 ATP        -0.7845
      5 PB          5.0342    3.5880    3.6842 P.3       1 ATP         1.9068
      6 O1B         3.5634    3.6385    3.3936 O.2       1 ATP        -0.8942
      7 O2B         5.7231    5.0194    3.9841 O.3       1 ATP        -0.8166
      8 O3B         5.4544    2.6862    4.9582 O.3       1 ATP        -0.8194
      9 PA          6.1803    3.4024    0.9726 P.3       1 ATP         1.5903
     10 O1A         7.0450    2.3713    0.2804 O.co2     1 ATP        -0.8519
     11 O2A         6.5612    4.8668    0.9578 O.co2     1 ATP        -0.8519
     12 O3A         5.9578    2.9464    2.5246 O.3       1 ATP        -0.8093
     13 O5'         4.6405    3.2701    0.4379 O.3       1 ATP        -0.5649
     14 C5'         4.0922    1.9801    0.2227 C.3       1 ATP         0.1979
     15 C4'         2.5944    2.0310    0.4653 C.3       1 ATP         0.1179
     16 O4'         1.9327    2.5740   -0.6889 O.3       1 ATP        -0.3878
     17 C3'         1.9685    0.6634    0.6767 C.3       1 ATP         0.1185
     18 O3'         2.1425    0.1975    1.9977 O.3       1 ATP        -0.5544
     19 C2'         0.5176    0.9128    0.3099 C.3       1 ATP         0.0542
     20 O2'        -0.2103    1.4454    1.4152 O.3       1 ATP        -0.5831
     21 C1'         0.6219    1.9765   -0.7844 C.3       1 ATP         0.2222
     22 N9          0.4237    1.4496   -2.1357 N.pl3     1 ATP        -0.1887
     23 C8          1.4069    0.9710   -2.9662 C.ar      1 ATP         0.4447
     24 N7          0.9316    0.5623   -4.1260 N.2       1 ATP        -0.6159
     25 C5         -0.4120    0.7884   -4.0344 C.ar      1 ATP         0.2195
     26 C6         -1.4353    0.5283   -5.0204 C.ar      1 ATP         0.6144
     27 N6         -1.1199    0.0176   -6.1586 N.2       1 ATP        -0.8160
     28 N1         -2.6704    0.9095   -4.5147 N.pl3     1 ATP        -0.8611
     29 C2         -2.8863    1.4571   -3.2520 C.ar      1 ATP         0.6141
     30 N3         -1.9805    1.7017   -2.3442 N.2       1 ATP        -0.5913
     31 C4         -0.7561    1.3381   -2.8112 C.ar      1 ATP         0.0067
     32 HOG3        3.1607    1.2403    4.3309 H         1 ATP         0.4313
     33 HOB2        5.6922    5.7150    3.2931 H         1 ATP         0.4716
     34 H5'1        4.3029    1.6730   -0.8066 H         1 ATP         0.0452
     35 H5'2        4.5678    1.2739    0.9106 H         1 ATP         0.0452
     36 H4'         2.3751    2.7029    1.3156 H         1 ATP         0.0998
     37 H3'         2.4336   -0.1217   -0.0015 H         1 ATP         0.0544
     38 HO3'        1.7160   -0.6716    2.0397 H         1 ATP         0.3961
     39 H2'         0.0316    0.0155   -0.0339 H         1 ATP         0.0499
     40 HO2'       -0.1608    0.7921    2.1351 H         1 ATP         0.4045
     41 H1'        -0.1474    2.7798   -0.6651 H         1 ATP         0.0912
     42 H8          2.4466    0.9468   -2.6694 H         1 ATP         0.1090
     43 HN62       -1.9661   -0.0965   -6.7275 H         1 ATP         0.3694
     44 H2         -3.9481    1.6825   -3.0660 H         1 ATP         0.0371
     45 H45        -3.4814    0.7753   -5.1133 H         1 ATP         0.4283
@<TRIPOS>BOND
     1    1    2 2
     2    1    3 1
     3    1    4 1
     4    1    8 1
     5    4   32 1
     6    5    6 2
     7    5    7 1
     8    5    8 1
     9    5   12 1
    10    7   33 1
    11    9   10 2
    12    9   11 1
    13    9   12 1
    14    9   13 1
    15   13   14 1
    16   14   15 1
    17   14   34 1
    18   14   35 1
    19   15   16 1
    20   15   17 1
    21   15   36 1
    22   16   21 1
    23   17   18 1
    24   17   19 1
    25   17   37 1
    26   18   38 1
    27   19   20 1
    28   19   21 1
    29   19   39 1
    30   20   40 1
    31   21   22 1
    32   21   41 1
    33   22   23 ar
    34   22   31 ar
    35   23   24 ar
    36   23   42 1
    37   24   25 ar
    38   25   26 ar
    39   25   31 ar
    40   26   27 2
    41   26   28 ar
    42   27   43 1
    43   28   29 ar
    44   28   45 1
    45   29   30 ar
    46   29   44 1
    47   30   31 ar
@<TRIPOS>SUBSTRUCTURE
     1 ATP         1 GROUP 0 A     ****
@<TRIPOS>MOLECULE
[[[3,4-dihydroxy-5-(6-imino-1~{H}-purin-9-yl)tetrahydrofuran-2-yl]methoxy-oxido-phosphoryl]oxy-hydroxy-phosphoryl] hydrogen phosphate
   45    47     1     0     0
SMALL
USER_CHARGES

@<TRIPOS>ATOM
      1 PG          9.8949    0.8210   -2.1119 P.3       1 ATP         1.5496
      2 O1G        10.9677    1.8642   -2.3320 O.co2     1 ATP        -0.8494
      3 O2G         9.6446   -0.2641   -3.1353 O.co2     1 ATP        -0.8494
      4 O3G        10.1470    0.1166   -0.6605 O.3       1 ATP        -0.7845
      5 PB          7.5505    2.5078   -2.7090 P.3       1 ATP         1.9068
      6 O1B         8.2070    3.7503   -3.2338 O.2       1 ATP        -0.8942
      7 O2B         7.0003    1.4931   -3.8409 O.3       1 ATP        -0.8166
      8 O3B         8.4866    1.5737   -1.7795 O.3       1 ATP        -0.8194
      9 PA          6.1592    3.5242   -0.3148 P.3       1 ATP         1.5903
     10 O1A         6.4222    4.9968   -0.5433 O.co2     1 ATP        -0.8519
     11 O2A         6.9470    2.7492    0.7189 O.co2     1 ATP        -0.8519
     12 O3A         6.2774    2.7406   -1.7424 O.3       1 ATP        -0.8093
     13 O5'         4.5669    3.2939   -0.0211 O.3       1 ATP        -0.5649
     14 C5'         4.0922    1.9801    0.2227 C.3       1 ATP         0.1979
     15 C4'         2.5944    2.0310    0.4653 C.3       1 ATP         0.1179
     16 O4'         1.9327    2.5740   -0.6889 O.3       1 ATP        -0.3878
     17 C3'         1.9685    0.6634    0.6767 C.3       1 ATP         0.1185
     18 O3'         2.1425    0.1975    1.9977 O.3       1 ATP        -0.5544
     19 C2'         0.5176    0.9128    0.3099 C.3       1 ATP         0.0542
     20 O2'        -0.2103    1.4454    1.4152 O.3       1 ATP        -0.5831
     21 C1'         0.6219    1.9765   -0.7844 C.3       1 ATP         0.2222
     22 N9          0.4237    1.4496   -2.1357 N.pl3     1 ATP        -0.1887
     23 C8          1.4069    0.9710   -2.9662 C.ar      1 ATP         0.4447
     24 N7          0.9316    0.5623   -4.1260 N.2       1 ATP        -0.6159
     25 C5         -0.4120    0.7884   -4.0344 C.ar      1 ATP         0.2195
     26 C6         -1.4353    0.5283   -5.0204 C.ar      1 ATP         0.6144
     27 N6         -1.1199    0.0176   -6.1586 N.2       1 ATP        -0.8160
     28 N1         -2.6704    0.9095   -4.5147 N.pl3     1 ATP        -0.8611
     29 C2         -2.8863    1.4571   -3.2520 C.ar      1 ATP         0.6141
     30 N3         -1.9805    1.7017   -2.3442 N.2       1 ATP        -0.5913
     31 C4         -0.7561    1.3381   -2.8112 C.ar      1 ATP         0.0067
     32 HOG3        9.5291   -0.5877   -0.3699 H         1 ATP         0.4313
     33 HOB2        7.6341    1.1124   -4.4855 H         1 ATP         0.4716
     34 H5'1        4.3180    1.3550   -0.6470 H         1 ATP         0.0452
     35 H5'2        4.6084    1.5739    1.0983 H         1 ATP         0.0452
     36 H4'         2.3751    2.7029    1.3156 H         1 ATP         0.0998
     37 H3'         2.4336   -0.1217   -0.0015 H         1 ATP         0.0544
     38 HO3'        1.7160   -0.6716    2.0397 H         1 ATP         0.3961
     39 H2'         0.0316    0.0155   -0.0339 H         1 ATP         0.0499
     40 HO2'       -0.1608    0.7921    2.1351 H         1 ATP         0.4045
     41 H1'        -0.1474    2.7798   -0.6651 H         1 ATP         0.0912
     42 H8          2.4466    0.9468   -2.6694 H         1 ATP         0.1090
     43 HN62       -1.9661   -0.0965   -6.7275 H         1 ATP         0.3694
     44 H2         -3.9481    1.6825   -3.0660 H         1 ATP         0.0371
     45 H45        -3.4814    0.7753   -5.1133 H         1 ATP         0.4283
@<TRIPOS>BOND
     1    1    2 2
     2    1    3 1
     3    1    4 1
     4    1    8 1
     5    4   32 1
     6    5    6 2
     7    5    7 1
     8    5    8 1
     9    5   12 1
    10    7   33 1
    11    9   10 2
    12    9   11 1
    13    9   12 1
    14    9   13 1
    15   13   14 1
    16   14   15 1
    17   14   34 1
    18   14   35 1
    19   15   16 1
    20   15   17 1
    21   15   36 1
    22   16   21 1
    23   17   18 1
    24   17   19 1
    25   17   37 1
    26   18   38 1
    27   19   20 1
    28   19   21 1
    29   19   39 1
    30   20   40 1
    31   21   22 1
    32   21   41 1
    33   22   23 ar
    34   22   31 ar
    35   23   24 ar
    36   23   42 1
    37   24   25 ar
    38   25   26 ar
    39   25   31 ar
    40   26   27 2
    41   26   28 ar
    42   27   43 1
    43   28   29 ar
    44   28   45 1
    45   29   30 ar
    46   29   44 1
    47   30   31 ar
@<TRIPOS>SUBSTRUCTURE
     1 ATP         1 GROUP 0 A     ****
@<TRIPOS>MOLECULE
[[[3,4-dihydroxy-5-(6-imino-1~{H}-purin-9-yl)tetrahydrofuran-2-yl]methoxy-oxido-phosphoryl]oxy-hydroxy-phosphoryl] hydrogen phosphate
   45    47     1     0     0
SMALL
USER_CHARGES

@<TRIPOS>ATOM
      1 PG         -3.0170    4.6616    5.6211 P.3       1 ATP         1.5496
      2 O1G        -2.4108    3.3674    5.1258 O.co2     1 ATP        -0.8494
      3 O2G        -4.4914    4.9473    5.4425 O.co2     1 ATP        -0.8494
      4 O3G        -2.6423    4.8383    7.2005 O.3       1 ATP        -0.7845
      5 PB         -1.9874    6.4367    3.5029 P.3       1 ATP         1.9068
      6 O1B        -3.2586    6.8564    2.8259 O.2       1 ATP        -0.8942
      7 O2B        -0.8603    7.5898    3.6199 O.3       1 ATP        -0.8166
      8 O3B        -2.1567    5.9110    5.0221 O.3       1 ATP        -0.8194
      9 PA         -0.5789    5.0299    1.3262 P.3       1 ATP         1.5903
     10 O1A         0.5634    6.0091    1.1644 O.co2     1 ATP        -0.8519
     11 O2A        -1.7206    5.0026    0.3335 O.co2     1 ATP        -0.8519
     12 O3A        -1.2065    5.1960    2.8244 O.3       1 ATP        -0.8093
     13 O5'         0.0180    3.5131    1.4595 O.3       1 ATP        -0.5649
     14 C5'        -0.8811    2.4285    1.6206 C.3       1 ATP         0.1979
     15 C4'        -0.1994    1.3333    2.4288 C.3       1 ATP         0.1179
     16 O4'        -1.1285    0.2356    2.5840 O.3       1 ATP        -0.3878
     17 C3'         1.0324    0.7610    1.7344 C.3       1 ATP         0.1185
     18 O3'         1.9175    0.2377    2.7247 O.3       1 ATP        -0.5544
     19 C2'         0.4468   -0.3802    0.9263 C.3       1 ATP         0.0542
     20 O2'         1.3993   -1.3703    0.5961 O.3       1 ATP        -0.5831
     21 C1'        -0.6159   -0.9100    1.8769 C.3       1 ATP         0.2222
     22 N9         -1.7127   -1.6108    1.2130 N.pl3     1 ATP        -0.1887
     23 C8         -2.0868   -2.9137    1.4327 C.ar      1 ATP         0.4447
     24 N7         -3.1125   -3.2756    0.6878 N.2       1 ATP        -0.6159
     25 C5         -3.4079   -2.1580   -0.0391 C.ar      1 ATP         0.2195
     26 C6         -4.4483   -1.9775   -1.0249 C.ar      1 ATP         0.6144
     27 N6         -5.2418   -2.9492   -1.3113 N.2       1 ATP        -0.8160
     28 N1         -4.3937   -0.6823   -1.5211 N.pl3     1 ATP        -0.8611
     29 C2         -3.4770    0.2901   -1.1271 C.ar      1 ATP         0.6141
     30 N3         -2.5289    0.1525   -0.2403 N.2       1 ATP        -0.5913
     31 C4         -2.5564   -1.1096    0.2655 C.ar      1 ATP         0.0067
     32 HOG3       -2.9661    5.6360    7.6706 H         1 ATP         0.4313
     33 HOB2       -1.0719    8.4121    4.1111 H         1 ATP         0.4716
     34 H5'1       -1.7770    2.7851    2.1387 H         1 ATP         0.0452
     35 H5'2       -1.1653    2.0543    0.6320 H         1 ATP         0.0452
     36 H4'         0.0403    1.7078    3.4343 H         1 ATP         0.0998
     37 H3'         1.5906    1.4859    1.1353 H         1 ATP         0.0544
     38 HO3'        2.1521    0.9800    3.3017 H         1 ATP         0.3961
     39 H2'        -0.0017    0.0018    0.0005 H         1 ATP         0.0499
     40 HO2'        0.9369   -2.0558    0.0825 H         1 ATP         0.4045
     41 H1'        -0.1998   -1.6319    2.6178 H         1 ATP         0.0912
     42 H8         -1.5740   -3.5449    2.1457 H         1 ATP         0.1090
     43 HN62       -5.9117   -2.6433   -2.0256 H         1 ATP         0.3694
     44 H2         -3.6225    1.2454   -1.6553 H         1 ATP         0.0371
     45 H45        -5.0794   -0.4231   -2.2258 H         1 ATP         0.4283
@<TRIPOS>BOND
     1    1    2 2
     2    1    3 1
     3    1    4 1
     4    1    8 1
     5    4   32 1
     6    5    6 2
     7    5    7 1
     8    5    8 1
     9    5   12 1
    10    7   33 1
    11    9   10 2
    12    9   11 1
    13    9   12 1
    14    9   13 1
    15   13   14 1
    16   14   15 1
    17   14   34 1
    18   14   35 1
    19   15   16 1
    20   15   17 1
    21   15   36 1
    22   16   21 1
    23   17   18 1
    24   17   19 1
    25   17   37 1
    26   18   38 1
    27   19   20 1
    28   19   21 1
    29   19   39 1
    30   20   40 1
    31   21   22 1
    32   21   41 1
    33   22   23 ar
    34   22   31 ar
    35   23   24 ar
    36   23   42 1
    37   24   25 ar
    38   25   26 ar
    39   25   31 ar
    40   26   27 2
    41   26   28 ar
    42   27   43 1
    43   28   29 ar
    44   28   45 1
    45   29   30 ar
    46   29   44 1
    47   30   31 ar
@<TRIPOS>SUBSTRUCTURE
     1 ATP         1 GROUP 0 A     ****
@<TRIPOS>MOLECULE
[[[3,4-dihydroxy-5-(6-imino-1~{H}-purin-9-yl)tetrahydrofuran-2-yl]methoxy-oxido-phosphoryl]oxy-hydroxy-phosphoryl] hydrogen phosphate
   45    47     1     0     0
SMALL
USER_CHARGES

@<TRIPOS>ATOM
      1 PG         -3.3373    6.7191    5.6233 P.3       1 ATP         1.5496
      2 O1G        -2.9279    8.1733    5.6974 O.co2     1 ATP        -0.8494
      3 O2G        -3.5836    5.9163    6.8811 O.co2     1 ATP        -0.8494
      4 O3G        -4.6547    6.5998    4.6659 O.3       1 ATP        -0.7845
      5 PB         -0.7090    5.5862    4.9118 P.3       1 ATP         1.9068
      6 O1B         0.1817    6.7824    5.0742 O.2       1 ATP        -0.8942
      7 O2B        -0.7153    4.5618    6.1624 O.3       1 ATP        -0.8166
      8 O3B        -2.2739    5.9184    4.6808 O.3       1 ATP        -0.8194
      9 PA         -0.3961    4.9845    2.0411 P.3       1 ATP         1.5903
     10 O1A         0.7136    5.9718    1.7518 O.co2     1 ATP        -0.8519
     11 O2A        -1.8198    5.2756    1.6189 O.co2     1 ATP        -0.8519
     12 O3A        -0.3946    4.6439    3.6380 O.3       1 ATP        -0.8093
     13 O5'         0.0180    3.5131    1.4595 O.3       1 ATP        -0.5649
     14 C5'        -0.8811    2.4285    1.6206 C.3       1 ATP         0.1979
     15 C4'        -0.1994    1.3333    2.4288 C.3       1 ATP         0.1179
     16 O4'        -1.1285    0.2356    2.5840 O.3       1 ATP        -0.3878
     17 C3'         1.0324    0.7610    1.7344 C.3       1 ATP         0.1185
     18 O3'         1.9175    0.2377    2.7247 O.3       1 ATP        -0.5544
     19 C2'         0.4468   -0.3802    0.9263 C.3       1 ATP         0.0542
     20 O2'         1.3993   -1.3703    0.5961 O.3       1 ATP        -0.5831
     21 C1'        -0.6159   -0.9100    1.8769 C.3       1 ATP         0.2222
     22 N9         -1.7127   -1.6108    1.2130 N.pl3     1 ATP        -0.1887
     23 C8         -1.7690   -2.9583    0.9549 C.ar      1 ATP         0.4447
     24 N7         -2.8827   -3.3076    0.3418 N.2       1 ATP        -0.6159
     25 C5         -3.5683   -2.1351    0.2017 C.ar      1 ATP         0.2195
     26 C6         -4.8617   -1.9185   -0.4044 C.ar      1 ATP         0.6144
     27 N6         -5.5166   -2.9094   -0.8994 N.2       1 ATP        -0.8160
     28 N1         -5.1836   -0.5701   -0.3344 N.pl3     1 ATP        -0.8611
     29 C2         -4.3821    0.4180    0.2330 C.ar      1 ATP         0.6141
     30 N3         -3.2117    0.2488    0.7860 N.2       1 ATP        -0.5913
     31 C4         -2.8672   -1.0657    0.7327 C.ar      1 ATP         0.0067
     32 HOG3       -5.0445    5.7120    4.5170 H         1 ATP         0.4313
     33 HOB2       -0.9993    4.8890    7.0425 H         1 ATP         0.4716
     34 H5'1       -1.7770    2.7851    2.1387 H         1 ATP         0.0452
     35 H5'2       -1.1653    2.0543    0.6320 H         1 ATP         0.0452
     36 H4'         0.0403    1.7078    3.4343 H         1 ATP         0.0998
     37 H3'         1.5906    1.4859    1.1353 H         1 ATP         0.0544
     38 HO3'        2.6839   -0.1150    2.2479 H         1 ATP         0.3961
     39 H2'        -0.0017    0.0018    0.0005 H         1 ATP         0.0499
     40 HO2'        2.0953   -0.9375    0.0709 H         1 ATP         0.4045
     41 H1'        -0.1998   -1.6319    2.6178 H         1 ATP         0.0912
     42 H8         -0.9697   -3.6300    1.2371 H         1 ATP         0.1090
     43 HN62       -6.4060   -2.5723   -1.2840 H         1 ATP         0.3694
     44 H2         -4.8409    1.4176    0.1757 H         1 ATP         0.0371
     45 H45        -6.0768   -0.2826   -0.7263 H         1 ATP         0.4283
@<TRIPOS>BOND
     1    1    2 2
     2    1    3 1
     3    1    4 1
     4    1    8 1
     5    4   32 1
     6    5    6 2
     7    5    7 1
     8    5    8 1
     9    5   12 1
    10    7   33 1
    11    9   10 2
    12    9   11 1
    13    9   12 1
    14    9   13 1
    15   13   14 1
    16   14   15 1
    17   14   34 1
    18   14   35 1
    19   15   16 1
    20   15   17 1
    21   15   36 1
    22   16   21 1
    23   17   18 1
    24   17   19 1
    25   17   37 1
    26   18   38 1
    27   19   20 1
    28   19   21 1
    29   19   39 1
    30   20   40 1
    31   21   22 1
    32   21   41 1
    33   22   23 ar
    34   22   31 ar
    35   23   24 ar
    36   23   42 1
    37   24   25 ar
    38   25   26 ar
    39   25   31 ar
    40   26   27 2
    41   26   28 ar
    42   27   43 1
    43   28   29 ar
    44   28   45 1
    45   29   30 ar
    46   29   44 1
    47   30   31 ar
@<TRIPOS>SUBSTRUCTURE
     1 ATP         1 GROUP 0 A     ****
@<TRIPOS>MOLECULE
[[[3,4-dihydroxy-5-(6-imino-1~{H}-purin-9-yl)tetrahydrofuran-2-yl]methoxy-oxido-phosphoryl]oxy-hydroxy-phosphoryl] hydrogen phosphate
   45    47     1     0     0
SMALL
USER_CHARGES

@<TRIPOS>ATOM
      1 PG          2.5225    7.7285    2.5097 P.3       1 ATP         1.5496
      2 O1G         2.2148    8.7976    3.5343 O.co2     1 ATP        -0.8494
      3 O2G         2.9591    8.0970    1.1094 O.co2     1 ATP        -0.8494
      4 O3G         3.6251    6.7048    3.1440 O.3       1 ATP        -0.7845
      5 PB         -0.2512    6.9411    1.8892 P.3       1 ATP         1.9068
      6 O1B        -1.0279    7.9954    2.6211 O.2       1 ATP        -0.8942
      7 O2B        -0.0631    7.2042    0.3052 O.3       1 ATP        -0.8166
      8 O3B         1.2571    6.7033    2.4197 O.3       1 ATP        -0.8194
      9 PA         -1.1367    4.4807    3.2541 P.3       1 ATP         1.5903
     10 O1A        -2.2255    5.1045    4.0999 O.co2     1 ATP        -0.8519
     11 O2A         0.1945    4.1001    3.8648 O.co2     1 ATP        -0.8519
     12 O3A        -0.8531    5.4441    1.9667 O.3       1 ATP        -0.8093
     13 O5'        -1.7337    3.1724    2.4752 O.3       1 ATP        -0.5649
     14 C5'        -0.8811    2.4285    1.6206 C.3       1 ATP         0.1979
     15 C4'        -0.1994    1.3333    2.4288 C.3       1 ATP         0.1179
     16 O4'        -1.1285    0.2356    2.5840 O.3       1 ATP        -0.3878
     17 C3'         1.0324    0.7610    1.7344 C.3       1 ATP         0.1185
     18 O3'         1.9175    0.2377    2.7247 O.3       1 ATP        -0.5544
     19 C2'         0.4468   -0.3802    0.9263 C.3       1 ATP         0.0542
     20 O2'         1.3993   -1.3703    0.5961 O.3       1 ATP        -0.5831
     21 C1'        -0.6159   -0.9100    1.8769 C.3       1 ATP         0.2222
     22 N9         -1.7127   -1.6108    1.2130 N.pl3     1 ATP        -0.1887
     23 C8         -2.8662   -1.0361    0.7388 C.ar      1 ATP         0.4447
     24 N7         -3.6774   -1.9166    0.1867 N.2       1 ATP        -0.6159
     25 C5         -3.0159   -3.1045    0.3123 C.ar      1 ATP         0.2195
     26 C6         -3.4377   -4.4169   -0.1199 C.ar      1 ATP         0.6144
     27 N6         -4.5720   -4.5691   -0.7080 N.2       1 ATP        -0.8160
     28 N1         -2.4600   -5.3463    0.2071 N.pl3     1 ATP        -0.8611
     29 C2         -1.2595   -5.0554    0.8515 C.ar      1 ATP         0.6141
     30 N3         -0.8555   -3.8803    1.2516 N.2       1 ATP        -0.5913
     31 C4         -1.7946   -2.9457    0.9448 C.ar      1 ATP         0.0067
     32 HOG3        3.9304    5.9501    2.5968 H         1 ATP         0.4313
     33 HOB2        0.4004    8.0170    0.0109 H         1 ATP         0.4716
     34 H5'1       -1.4801    1.9928    0.8147 H         1 ATP         0.0452
     35 H5'2       -0.1369    3.1041    1.1872 H         1 ATP         0.0452
     36 H4'         0.0403    1.7078    3.4343 H         1 ATP         0.0998
     37 H3'         1.5906    1.4859    1.1353 H         1 ATP         0.0544
     38 HO3'        2.1521    0.9800    3.3017 H         1 ATP         0.3961
     39 H2'        -0.0017    0.0018    0.0005 H         1 ATP         0.0499
     40 HO2'        2.0953   -0.9375    0.0709 H         1 ATP         0.4045
     41 H1'        -0.1998   -1.6319    2.6178 H         1 ATP         0.0912
     42 H8         -3.0558    0.0252    0.8256 H         1 ATP         0.1090
     43 HN62       -4.7047   -5.5592   -0.9421 H         1 ATP         0.3694
     44 H2         -0.6372   -5.9505    1.0077 H         1 ATP         0.0371
     45 H45        -2.6338   -6.3155   -0.0469 H         1 ATP         0.4283
@<TRIPOS>BOND
     1    1    2 2
     2    1    3 1
     3    1    4 1
     4    1    8 1
     5    4   32 1
     6    5    6 2
     7    5    7 1
     8    5    8 1
     9    5   12 1
    10    7   33 1
    11    9   10 2
    12    9   11 1
    13    9   12 1
    14    9   13 1
    15   13   14 1
    16   14   15 1
    17   14   34 1
    18   14   35 1
    19   15   16 1
    20   15   17 1
    21   15   36 1
    22   16   21 1
    23   17   18 1
    24   17   19 1
    25   17   37 1
    26   18   38 1
    27   19   20 1
    28   19   21 1
    29   19   39 1
    30   20   40 1
    31   21   22 1
    32   21   41 1
    33   22   23 ar
    34   22   31 ar
    35   23   24 ar
    36   23   42 1
    37   24   25 ar
    38   25   26 ar
    39   25   31 ar
    40   26   27 2
    41   26   28 ar
    42   27   43 1
    43   28   29 ar
    44   28   45 1
    45   29   30 ar
    46   29   44 1
    47   30   31 ar
@<TRIPOS>SUBSTRUCTURE
     1 ATP         1 GROUP 0 A     ****
@<TRIPOS>MOLECULE
[[[3,4-dihydroxy-5-(6-imino-1~{H}-purin-9-yl)tetrahydrofuran-2-yl]methoxy-oxido-phosphoryl]oxy-hydroxy-phosphoryl] hydrogen phosphate
   45    47     1     0     0
SMALL
USER_CHARGES

@<TRIPOS>ATOM
      1 PG         -1.5187    3.6965   -4.5802 P.3       1 ATP         1.5496
      2 O1G        -0.6188    4.6148   -5.3768 O.co2     1 ATP        -0.8494
      3 O2G        -3.0183    3.7167   -4.7758 O.co2     1 ATP        -0.8494
      4 O3G        -0.9919    2.1626   -4.7693 O.3       1 ATP        -0.7845
      5 PB         -1.4126    5.1413   -2.0113 P.3       1 ATP         1.9068
      6 O1B        -0.6934    6.3966   -2.4083 O.2       1 ATP        -0.8942
      7 O2B        -3.0213    5.2729   -1.9199 O.3       1 ATP        -0.8166
      8 O3B        -1.1868    3.8776   -2.9936 O.3       1 ATP        -0.8194
      9 PA          0.4529    3.9703   -0.0492 P.3       1 ATP         1.5903
     10 O1A         1.4112    5.1385    0.0342 O.co2     1 ATP        -0.8519
     11 O2A         0.8147    2.7278   -0.8334 O.co2     1 ATP        -0.8519
     12 O3A        -0.9915    4.5116   -0.5846 O.3       1 ATP        -0.8093
     13 O5'         0.0180    3.5131    1.4595 O.3       1 ATP        -0.5649
     14 C5'        -0.8811    2.4285    1.6206 C.3       1 ATP         0.1979
     15 C4'        -0.1994    1.3333    2.4288 C.3       1 ATP         0.1179
     16 O4'        -1.1285    0.2356    2.5840 O.3       1 ATP        -0.3878
     17 C3'         1.0324    0.7610    1.7344 C.3       1 ATP         0.1185
     18 O3'         1.9175    0.2377    2.7247 O.3       1 ATP        -0.5544
     19 C2'         0.4468   -0.3802    0.9263 C.3       1 ATP         0.0542
     20 O2'         1.3993   -1.3703    0.5961 O.3       1 ATP        -0.5831
     21 C1'        -0.6159   -0.9100    1.8769 C.3       1 ATP         0.2222
     22 N9         -1.7127   -1.6108    1.2130 N.pl3     1 ATP        -0.1887
     23 C8         -2.8662   -1.0361    0.7388 C.ar      1 ATP         0.4447
     24 N7         -3.6774   -1.9166    0.1867 N.2       1 ATP        -0.6159
     25 C5         -3.0159   -3.1045    0.3123 C.ar      1 ATP         0.2195
     26 C6         -3.4377   -4.4169   -0.1199 C.ar      1 ATP         0.6144
     27 N6         -4.5720   -4.5691   -0.7080 N.2       1 ATP        -0.8160
     28 N1         -2.4600   -5.3463    0.2071 N.pl3     1 ATP        -0.8611
     29 C2         -1.2595   -5.0554    0.8515 C.ar      1 ATP         0.6141
     30 N3         -0.8555   -3.8803    1.2516 N.2       1 ATP        -0.5913
     31 C4         -1.7946   -2.9457    0.9448 C.ar      1 ATP         0.0067
     32 HOG3       -1.4757    1.4430   -4.3107 H         1 ATP         0.4313
     33 HOB2       -3.4096    5.9183   -1.2916 H         1 ATP         0.4716
     34 H5'1       -1.7770    2.7851    2.1387 H         1 ATP         0.0452
     35 H5'2       -1.1653    2.0543    0.6320 H         1 ATP         0.0452
     36 H4'         0.0403    1.7078    3.4343 H         1 ATP         0.0998
     37 H3'         1.5906    1.4859    1.1353 H         1 ATP         0.0544
     38 HO3'        2.6839   -0.1150    2.2479 H         1 ATP         0.3961
     39 H2'        -0.0017    0.0018    0.0005 H         1 ATP         0.0499
     40 HO2'        0.9369   -2.0558    0.0825 H         1 ATP         0.4045
     41 H1'        -0.1998   -1.6319    2.6178 H         1 ATP         0.0912
     42 H8         -3.0558    0.0252    0.8256 H         1 ATP         0.1090
     43 HN62       -4.7047   -5.5592   -0.9421 H         1 ATP         0.3694
     44 H2         -0.6372   -5.9505    1.0077 H         1 ATP         0.0371
     45 H45        -2.6338   -6.3155   -0.0469 H         1 ATP         0.4283
@<TRIPOS>BOND
     1    1    2 2
     2    1    3 1
     3    1    4 1
     4    1    8 1
     5    4   32 1
     6    5    6 2
     7    5    7 1
     8    5    8 1
     9    5   12 1
    10    7   33 1
    11    9   10 2
    12    9   11 1
    13    9   12 1
    14    9   13 1
    15   13   14 1
    16   14   15 1
    17   14   34 1
    18   14   35 1
    19   15   16 1
    20   15   17 1
    21   15   36 1
    22   16   21 1
    23   17   18 1
    24   17   19 1
    25   17   37 1
    26   18   38 1
    27   19   20 1
    28   19   21 1
    29   19   39 1
    30   20   40 1
    31   21   22 1
    32   21   41 1
    33   22   23 ar
    34   22   31 ar
    35   23   24 ar
    36   23   42 1
    37   24   25 ar
    38   25   26 ar
    39   25   31 ar
    40   26   27 2
    41   26   28 ar
    42   27   43 1
    43   28   29 ar
    44   28   45 1
    45   29   30 ar
    46   29   44 1
    47   30   31 ar
@<TRIPOS>SUBSTRUCTURE
     1 ATP         1 GROUP 0 A     ****
@<TRIPOS>MOLECULE
[[[3,4-dihydroxy-5-(6-imino-1~{H}-purin-9-yl)tetrahydrofuran-2-yl]methoxy-oxido-phosphoryl]oxy-hydroxy-phosphoryl] hydrogen phosphate
   45    47     1     0     0
SMALL
USER_CHARGES

@<TRIPOS>ATOM
      1 PG          5.2885    2.9092    5.2299 P.3       1 ATP         1.5496
      2 O1G         6.1615    1.8703    4.5619 O.co2     1 ATP        -0.8494
      3 O2G         3.8268    2.6351    5.5051 O.co2     1 ATP        -0.8494
      4 O3G         6.0021    3.3659    6.6257 O.3       1 ATP        -0.7845
      5 PB          4.9483    4.7099    2.9190 P.3       1 ATP         1.9068
      6 O1B         3.4764    4.5818    2.6593 O.2       1 ATP        -0.8942
      7 O2B         5.5556    6.1926    2.7043 O.3       1 ATP        -0.8166
      8 O3B         5.4215    4.3148    4.4133 O.3       1 ATP        -0.8194
      9 PA          6.0978    3.6800    0.4053 P.3       1 ATP         1.5903
     10 O1A         7.0182    2.5228    0.0832 O.co2     1 ATP        -0.8519
     11 O2A         6.3951    5.0713   -0.1103 O.co2     1 ATP        -0.8519
     12 O3A         5.9046    3.7640    2.0244 O.3       1 ATP        -0.8093
     13 O5'         4.5669    3.2939   -0.0211 O.3       1 ATP        -0.5649
     14 C5'         4.0922    1.9801    0.2227 C.3       1 ATP         0.1979
     15 C4'         2.5944    2.0310    0.4653 C.3       1 ATP         0.1179
     16 O4'         1.9327    2.5740   -0.6889 O.3       1 ATP        -0.3878
     17 C3'         1.9685    0.6634    0.6767 C.3       1 ATP         0.1185
     18 O3'         2.1425    0.1975    1.9977 O.3       1 ATP        -0.5544
     19 C2'         0.5176    0.9128    0.3099 C.3       1 ATP         0.0542
     20 O2'        -0.2103    1.4454    1.4152 O.3       1 ATP        -0.5831
     21 C1'         0.6219    1.9765   -0.7844 C.3       1 ATP         0.2222
     22 N9          0.4237    1.4496   -2.1357 N.pl3     1 ATP        -0.1887
     23 C8          1.4069    0.9710   -2.9662 C.ar      1 ATP         0.4447
     24 N7          0.9316    0.5623   -4.1260 N.2       1 ATP        -0.6159
     25 C5         -0.4120    0.7884   -4.0344 C.ar      1 ATP         0.2195
     26 C6         -1.4353    0.5283   -5.0204 C.ar      1 ATP         0.6144
     27 N6         -1.1199    0.0176   -6.1586 N.2       1 ATP        -0.8160
     28 N1         -2.6704    0.9095   -4.5147 N.pl3     1 ATP        -0.8611
     29 C2         -2.8863    1.4571   -3.2520 C.ar      1 ATP         0.6141
     30 N3         -1.9805    1.7017   -2.3442 N.2       1 ATP        -0.5913
     31 C4         -0.7561    1.3381   -2.8112 C.ar      1 ATP         0.0067
     32 HOG3        5.5548    4.0406    7.1796 H         1 ATP         0.4313
     33 HOB2        5.4840    6.6113    1.8201 H         1 ATP         0.4716
     34 H5'1        4.3180    1.3550   -0.6470 H         1 ATP         0.0452
     35 H5'2        4.6084    1.5739    1.0983 H         1 ATP         0.0452
     36 H4'         2.3751    2.7029    1.3156 H         1 ATP         0.0998
     37 H3'         2.4336   -0.1217   -0.0015 H         1 ATP         0.0544
     38 HO3'        1.7160   -0.6716    2.0397 H         1 ATP         0.3961
     39 H2'         0.0316    0.0155   -0.0339 H         1 ATP         0.0499
     40 HO2'       -0.1608    0.7921    2.1351 H         1 ATP         0.4045
     41 H1'        -0.1474    2.7798   -0.6651 H         1 ATP         0.0912
     42 H8          2.4466    0.9468   -2.6694 H         1 ATP         0.1090
     43 HN62       -1.9661   -0.0965   -6.7275 H         1 ATP         0.3694
     44 H2         -3.9481    1.6825   -3.0660 H         1 ATP         0.0371
     45 H45        -3.4814    0.7753   -5.1133 H         1 ATP         0.4283
@<TRIPOS>BOND
     1    1    2 2
     2    1    3 1
     3    1    4 1
     4    1    8 1
     5    4   32 1
     6    5    6 2
     7    5    7 1
     8    5    8 1
     9    5   12 1
    10    7   33 1
    11    9   10 2
    12    9   11 1
    13    9   12 1
    14    9   13 1
    15   13   14 1
    16   14   15 1
    17   14   34 1
    18   14   35 1
    19   15   16 1
    20   15   17 1
    21   15   36 1
    22   16   21 1
    23   17   18 1
    24   17   19 1
    25   17   37 1
    26   18   38 1
    27   19   20 1
    28   19   21 1
    29   19   39 1
    30   20   40 1
    31   21   22 1
    32   21   41 1
    33   22   23 ar
    34   22   31 ar
    35   23   24 ar
    36   23   42 1
    37   24   25 ar
    38   25   26 ar
    39   25   31 ar
    40   26   27 2
    41   26   28 ar
    42   27   43 1
    43   28   29 ar
    44   28   45 1
    45   29   30 ar
    46   29   44 1
    47   30   31 ar
@<TRIPOS>SUBSTRUCTURE
     1 ATP         1 GROUP 0 A     ****
@<TRIPOS>MOLECULE
[[[3,4-dihydroxy-5-(6-imino-1~{H}-purin-9-yl)tetrahydrofuran-2-yl]methoxy-oxido-phosphoryl]oxy-hydroxy-phosphoryl] hydrogen phosphate
   45    47     1     0     0
SMALL
USER_CHARGES

@<TRIPOS>ATOM
      1 PG         -4.6825    5.1116   -2.6350 P.3       1 ATP         1.5496
      2 O1G        -4.2376    6.0396   -3.7434 O.co2     1 ATP        -0.8494
      3 O2G        -5.9029    5.4280   -1.7997 O.co2     1 ATP        -0.8494
      4 O3G        -4.8526    3.6099   -3.2533 O.3       1 ATP        -0.7845
      5 PB         -2.6209    5.8224   -0.6494 P.3       1 ATP         1.9068
      6 O1B        -1.9685    7.0005   -1.3103 O.2       1 ATP        -0.8942
      7 O2B        -3.7148    6.1906    0.4826 O.3       1 ATP        -0.8166
      8 O3B        -3.4184    4.8286   -1.6439 O.3       1 ATP        -0.8194
      9 PA         -0.5789    5.0299    1.3262 P.3       1 ATP         1.5903
     10 O1A        -1.3654    5.3738    2.5725 O.co2     1 ATP        -0.8519
     11 O2A         0.5326    5.9338    0.8392 O.co2     1 ATP        -0.8519
     12 O3A        -1.6231    4.7921    0.0937 O.3       1 ATP        -0.8093
     13 O5'         0.0180    3.5131    1.4595 O.3       1 ATP        -0.5649
     14 C5'        -0.8811    2.4285    1.6206 C.3       1 ATP         0.1979
     15 C4'        -0.1994    1.3333    2.4288 C.3       1 ATP         0.1179
     16 O4'        -1.1285    0.2356    2.5840 O.3       1 ATP        -0.3878
     17 C3'         1.0324    0.7610    1.7344 C.3       1 ATP         0.1185
     18 O3'         1.9175    0.2377    2.7247 O.3       1 ATP        -0.5544
     19 C2'         0.4468   -0.3802    0.9263 C.3       1 ATP         0.0542
     20 O2'         1.3993   -1.3703    0.5961 O.3       1 ATP        -0.5831
     21 C1'        -0.6159   -0.9100    1.8769 C.3       1 ATP         0.2222
     22 N9         -1.7127   -1.6108    1.2130 N.pl3     1 ATP        -0.1887
     23 C8         -2.0868   -2.9137    1.4327 C.ar      1 ATP         0.4447
     24 N7         -3.1125   -3.2756    0.6878 N.2       1 ATP        -0.6159
     25 C5         -3.4079   -2.1580   -0.0391 C.ar      1 ATP         0.2195
     26 C6         -4.4483   -1.9775   -1.0249 C.ar      1 ATP         0.6144
     27 N6         -5.2418   -2.9492   -1.3113 N.2       1 ATP        -0.8160
     28 N1         -4.3937   -0.6823   -1.5211 N.pl3     1 ATP        -0.8611
     29 C2         -3.4770    0.2901   -1.1271 C.ar      1 ATP         0.6141
     30 N3         -2.5289    0.1525   -0.2403 N.2       1 ATP        -0.5913
     31 C4         -2.5564   -1.1096    0.2655 C.ar      1 ATP         0.0067
     32 HOG3       -5.1388    2.8881   -2.6540 H         1 ATP         0.4313
     33 HOB2       -3.4320    6.7114    1.2643 H         1 ATP         0.4716
     34 H5'1       -1.7770    2.7851    2.1387 H         1 ATP         0.0452
     35 H5'2       -1.1653    2.0543    0.6320 H         1 ATP         0.0452
     36 H4'         0.0403    1.7078    3.4343 H         1 ATP         0.0998
     37 H3'         1.5906    1.4859    1.1353 H         1 ATP         0.0544
     38 HO3'        2.1521    0.9800    3.3017 H         1 ATP         0.3961
     39 H2'        -0.0017    0.0018    0.0005 H         1 ATP         0.0499
     40 HO2'        0.9369   -2.0558    0.0825 H         1 ATP         0.4045
     41 H1'        -0.1998   -1.6319    2.6178 H         1 ATP         0.0912
     42 H8         -1.5740   -3.5449    2.1457 H         1 ATP         0.1090
     43 HN62       -5.9117   -2.6433   -2.0256 H         1 ATP         0.3694
     44 H2         -3.6225    1.2454   -1.6553 H         1 ATP         0.0371
     45 H45        -5.0794   -0.4231   -2.2258 H         1 ATP         0.4283
@<TRIPOS>BOND
     1    1    2 2
     2    1    3 1
     3    1    4 1
     4    1    8 1
     5    4   32 1
     6    5    6 2
     7    5    7 1
     8    5    8 1
     9    5   12 1
    10    7   33 1
    11    9   10 2
    12    9   11 1
    13    9   12 1
    14    9   13 1
    15   13   14 1
    16   14   15 1
    17   14   34 1
    18   14   35 1
    19   15   16 1
    20   15   17 1
    21   15   36 1
    22   16   21 1
    23   17   18 1
    24   17   19 1
    25   17   37 1
    26   18   38 1
    27   19   20 1
    28   19   21 1
    29   19   39 1
    30   20   40 1
    31   21   22 1
    32   21   41 1
    33   22   23 ar
    34   22   31 ar
    35   23   24 ar
    36   23   42 1
    37   24   25 ar
    38   25   26 ar
    39   25   31 ar
    40   26   27 2
    41   26   28 ar
    42   27   43 1
    43   28   29 ar
    44   28   45 1
    45   29   30 ar
    46   29   44 1
    47   30   31 ar
@<TRIPOS>SUBSTRUCTURE
     1 ATP         1 GROUP 0 A     ****
@<TRIPOS>MOLECULE
[[[3,4-dihydroxy-5-(6-imino-1~{H}-purin-9-yl)tetrahydrofuran-2-yl]methoxy-oxido-phosphoryl]oxy-hydroxy-phosphoryl] hydrogen phosphate
   45    47     1     0     0
SMALL
USER_CHARGES

@<TRIPOS>ATOM
      1 PG          7.2512   -0.7494    3.0728 P.3       1 ATP         1.5496
      2 O1G         5.8583   -0.1627    3.0150 O.co2     1 ATP        -0.8494
      3 O2G         8.4076    0.0482    3.6331 O.co2     1 ATP        -0.8494
      4 O3G         7.1790   -2.1793    3.8580 O.3       1 ATP        -0.7845
      5 PB          7.9213   -0.5040    0.2113 P.3       1 ATP         1.9068
      6 O1B         9.0417    0.4926    0.2550 O.2       1 ATP        -0.8942
      7 O2B         8.0933   -1.6809   -0.8836 O.3       1 ATP        -0.8166
      8 O3B         7.6537   -1.3012    1.5917 O.3       1 ATP        -0.8194
      9 PA          5.8978    0.9308   -1.3849 P.3       1 ATP         1.5903
     10 O1A         5.9208    0.0232   -2.5955 O.co2     1 ATP        -0.8519
     11 O2A         6.5852    2.2785   -1.4154 O.co2     1 ATP        -0.8519
     12 O3A         6.4548    0.1006   -0.0939 O.3       1 ATP        -0.8093
     13 O5'         4.3515    1.1574   -0.9027 O.3       1 ATP        -0.5649
     14 C5'         4.0922    1.9801    0.2227 C.3       1 ATP         0.1979
     15 C4'         2.5944    2.0310    0.4653 C.3       1 ATP         0.1179
     16 O4'         1.9327    2.5740   -0.6889 O.3       1 ATP        -0.3878
     17 C3'         1.9685    0.6634    0.6767 C.3       1 ATP         0.1185
     18 O3'         2.1425    0.1975    1.9977 O.3       1 ATP        -0.5544
     19 C2'         0.5176    0.9128    0.3099 C.3       1 ATP         0.0542
     20 O2'        -0.2103    1.4454    1.4152 O.3       1 ATP        -0.5831
     21 C1'         0.6219    1.9765   -0.7844 C.3       1 ATP         0.2222
     22 N9          0.4237    1.4496   -2.1357 N.pl3     1 ATP        -0.1887
     23 C8          1.4069    0.9710   -2.9662 C.ar      1 ATP         0.4447
     24 N7          0.9316    0.5623   -4.1260 N.2       1 ATP        -0.6159
     25 C5         -0.4120    0.7884   -4.0344 C.ar      1 ATP         0.2195
     26 C6         -1.4353    0.5283   -5.0204 C.ar      1 ATP         0.6144
     27 N6         -1.1199    0.0176   -6.1586 N.2       1 ATP        -0.8160
     28 N1         -2.6704    0.9095   -4.5147 N.pl3     1 ATP        -0.8611
     29 C2         -2.8863    1.4571   -3.2520 C.ar      1 ATP         0.6141
     30 N3         -1.9805    1.7017   -2.3442 N.2       1 ATP        -0.5913
     31 C4         -0.7561    1.3381   -2.8112 C.ar      1 ATP         0.0067
     32 HOG3        8.0090   -2.6881    3.9783 H         1 ATP         0.4313
     33 HOB2        8.1673   -1.4400   -1.8317 H         1 ATP         0.4716
     34 H5'1        4.6070    1.5617    1.0934 H         1 ATP         0.0452
     35 H5'2        4.4825    2.9836    0.0252 H         1 ATP         0.0452
     36 H4'         2.3751    2.7029    1.3156 H         1 ATP         0.0998
     37 H3'         2.4336   -0.1217   -0.0015 H         1 ATP         0.0544
     38 HO3'        1.7160   -0.6716    2.0397 H         1 ATP         0.3961
     39 H2'         0.0316    0.0155   -0.0339 H         1 ATP         0.0499
     40 HO2'       -1.1270    1.5823    1.1180 H         1 ATP         0.4045
     41 H1'        -0.1474    2.7798   -0.6651 H         1 ATP         0.0912
     42 H8          2.4466    0.9468   -2.6694 H         1 ATP         0.1090
     43 HN62       -1.9661   -0.0965   -6.7275 H         1 ATP         0.3694
     44 H2         -3.9481    1.6825   -3.0660 H         1 ATP         0.0371
     45 H45        -3.4814    0.7753   -5.1133 H         1 ATP         0.4283
@<TRIPOS>BOND
     1    1    2 2
     2    1    3 1
     3    1    4 1
     4    1    8 1
     5    4   32 1
     6    5    6 2
     7    5    7 1
     8    5    8 1
     9    5   12 1
    10    7   33 1
    11    9   10 2
    12    9   11 1
    13    9   12 1
    14    9   13 1
    15   13   14 1
    16   14   15 1
    17   14   34 1
    18   14   35 1
    19   15   16 1
    20   15   17 1
    21   15   36 1
    22   16   21 1
    23   17   18 1
    24   17   19 1
    25   17   37 1
    26   18   38 1
    27   19   20 1
    28   19   21 1
    29   19   39 1
    30   20   40 1
    31   21   22 1
    32   21   41 1
    33   22   23 ar
    34   22   31 ar
    35   23   24 ar
    36   23   42 1
    37   24   25 ar
    38   25   26 ar
    39   25   31 ar
    40   26   27 2
    41   26   28 ar
    42   27   43 1
    43   28   29 ar
    44   28   45 1
    45   29   30 ar
    46   29   44 1
    47   30   31 ar
@<TRIPOS>SUBSTRUCTURE
     1 ATP         1 GROUP 0 A     ****
@<TRIPOS>MOLECULE
[[[3,4-dihydroxy-5-(6-imino-1~{H}-purin-9-yl)tetrahydrofuran-2-yl]methoxy-oxido-phosphoryl]oxy-hydroxy-phosphoryl] hydrogen phosphate
   45    47     1     0     0
SMALL
USER_CHARGES

@<TRIPOS>ATOM
      1 PG          0.9144    4.1159   -5.0226 P.3       1 ATP         1.5496
      2 O1G         2.3910    3.9719   -5.3169 O.co2     1 ATP        -0.8494
      3 O2G         0.2022    5.4312   -5.2467 O.co2     1 ATP        -0.8494
      4 O3G         0.1089    2.9462   -5.8283 O.3       1 ATP        -0.7845
      5 PB          1.0894    4.2312   -2.0808 P.3       1 ATP         1.9068
      6 O1B         2.5725    4.3274   -1.8770 O.2       1 ATP        -0.8942
      7 O2B         0.2942    5.6365   -2.0022 O.3       1 ATP        -0.8166
      8 O3B         0.6276    3.6086   -3.4993 O.3       1 ATP        -0.8194
      9 PA         -1.2907    2.9170   -0.9365 P.3       1 ATP         1.5903
     10 O1A        -1.6997    2.1404   -2.1692 O.co2     1 ATP        -0.8519
     11 O2A        -2.0351    4.1700   -0.5294 O.co2     1 ATP        -0.8519
     12 O3A         0.2982    3.2774   -1.0446 O.3       1 ATP        -0.8093
     13 O5'        -1.2434    1.9102    0.3514 O.3       1 ATP        -0.5649
     14 C5'        -0.8811    2.4285    1.6206 C.3       1 ATP         0.1979
     15 C4'        -0.1994    1.3333    2.4288 C.3       1 ATP         0.1179
     16 O4'        -1.1285    0.2356    2.5840 O.3       1 ATP        -0.3878
     17 C3'         1.0324    0.7610    1.7344 C.3       1 ATP         0.1185
     18 O3'         1.9175    0.2377    2.7247 O.3       1 ATP        -0.5544
     19 C2'         0.4468   -0.3802    0.9263 C.3       1 ATP         0.0542
     20 O2'         1.3993   -1.3703    0.5961 O.3       1 ATP        -0.5831
     21 C1'        -0.6159   -0.9100    1.8769 C.3       1 ATP         0.2222
     22 N9         -1.7127   -1.6108    1.2130 N.pl3     1 ATP        -0.1887
     23 C8         -2.8662   -1.0361    0.7388 C.ar      1 ATP         0.4447
     24 N7         -3.6774   -1.9166    0.1867 N.2       1 ATP        -0.6159
     25 C5         -3.0159   -3.1045    0.3123 C.ar      1 ATP         0.2195
     26 C6         -3.4377   -4.4169   -0.1199 C.ar      1 ATP         0.6144
     27 N6         -4.5720   -4.5691   -0.7080 N.2       1 ATP        -0.8160
     28 N1         -2.4600   -5.3463    0.2071 N.pl3     1 ATP        -0.8611
     29 C2         -1.2595   -5.0554    0.8515 C.ar      1 ATP         0.6141
     30 N3         -0.8555   -3.8803    1.2516 N.2       1 ATP        -0.5913
     31 C4         -1.7946   -2.9457    0.9448 C.ar      1 ATP         0.0067
     32 HOG3       -0.8671    2.9054   -5.7391 H         1 ATP         0.4313
     33 HOB2        0.5250    6.3485   -2.6363 H         1 ATP         0.4716
     34 H5'1       -0.2034    3.2760    1.4767 H         1 ATP         0.0452
     35 H5'2       -1.7842    2.7761    2.1322 H         1 ATP         0.0452
     36 H4'         0.0403    1.7078    3.4343 H         1 ATP         0.0998
     37 H3'         1.5906    1.4859    1.1353 H         1 ATP         0.0544
     38 HO3'        2.6839   -0.1150    2.2479 H         1 ATP         0.3961
     39 H2'        -0.0017    0.0018    0.0005 H         1 ATP         0.0499
     40 HO2'        2.0953   -0.9375    0.0709 H         1 ATP         0.4045
     41 H1'        -0.1998   -1.6319    2.6178 H         1 ATP         0.0912
     42 H8         -3.0558    0.0252    0.8256 H         1 ATP         0.1090
     43 HN62       -4.7047   -5.5592   -0.9421 H         1 ATP         0.3694
     44 H2         -0.6372   -5.9505    1.0077 H         1 ATP         0.0371
     45 H45        -2.6338   -6.3155   -0.0469 H         1 ATP         0.4283
@<TRIPOS>BOND
     1    1    2 2
     2    1    3 1
     3    1    4 1
     4    1    8 1
     5    4   32 1
     6    5    6 2
     7    5    7 1
     8    5    8 1
     9    5   12 1
    10    7   33 1
    11    9   10 2
    12    9   11 1
    13    9   12 1
    14    9   13 1
    15   13   14 1
    16   14   15 1
    17   14   34 1
    18   14   35 1
    19   15   16 1
    20   15   17 1
    21   15   36 1
    22   16   21 1
    23   17   18 1
    24   17   19 1
    25   17   37 1
    26   18   38 1
    27   19   20 1
    28   19   21 1
    29   19   39 1
    30   20   40 1
    31   21   22 1
    32   21   41 1
    33   22   23 ar
    34   22   31 ar
    35   23   24 ar
    36   23   42 1
    37   24   25 ar
    38   25   26 ar
    39   25   31 ar
    40   26   27 2
    41   26   28 ar
    42   27   43 1
    43   28   29 ar
    44   28   45 1
    45   29   30 ar
    46   29   44 1
    47   30   31 ar
@<TRIPOS>SUBSTRUCTURE
     1 ATP         1 GROUP 0 A     ****
@<TRIPOS>MOLECULE
[[[3,4-dihydroxy-5-(6-imino-1~{H}-purin-9-yl)tetrahydrofuran-2-yl]methoxy-oxido-phosphoryl]oxy-hydroxy-phosphoryl] hydrogen phosphate
   45    47     1     0     0
SMALL
USER_CHARGES

@<TRIPOS>ATOM
      1 PG         -1.0799    9.5294    2.6733 P.3       1 ATP         1.5496
      2 O1G        -2.3541   10.0470    2.0438 O.co2     1 ATP        -0.8494
      3 O2G         0.2609   10.1361    2.3248 O.co2     1 ATP        -0.8494
      4 O3G        -1.2554    9.5570    4.2964 O.3       1 ATP        -0.7845
      5 PB         -2.0756    6.7569    2.8157 P.3       1 ATP         1.9068
      6 O1B        -2.4446    6.6501    4.2658 O.2       1 ATP        -0.8942
      7 O2B        -3.3092    7.0568    1.8149 O.3       1 ATP        -0.8166
      8 O3B        -1.0042    7.9141    2.4606 O.3       1 ATP        -0.8194
      9 PA          0.0330    4.7082    2.5759 P.3       1 ATP         1.5903
     10 O1A        -0.1147    4.1095    3.9578 O.co2     1 ATP        -0.8519
     11 O2A         1.1818    5.6395    2.2553 O.co2     1 ATP        -0.8519
     12 O3A        -1.3612    5.4575    2.1750 O.3       1 ATP        -0.8093
     13 O5'         0.0180    3.5131    1.4595 O.3       1 ATP        -0.5649
     14 C5'        -0.8811    2.4285    1.6206 C.3       1 ATP         0.1979
     15 C4'        -0.1994    1.3333    2.4288 C.3       1 ATP         0.1179
     16 O4'        -1.1285    0.2356    2.5840 O.3       1 ATP        -0.3878
     17 C3'         1.0324    0.7610    1.7344 C.3       1 ATP         0.1185
     18 O3'         1.9175    0.2377    2.7247 O.3       1 ATP        -0.5544
     19 C2'         0.4468   -0.3802    0.9263 C.3       1 ATP         0.0542
     20 O2'         1.3993   -1.3703    0.5961 O.3       1 ATP        -0.5831
     21 C1'        -0.6159   -0.9100    1.8769 C.3       1 ATP         0.2222
     22 N9         -1.7127   -1.6108    1.2130 N.pl3     1 ATP        -0.1887
     23 C8         -2.8662   -1.0361    0.7388 C.ar      1 ATP         0.4447
     24 N7         -3.6774   -1.9166    0.1867 N.2       1 ATP        -0.6159
     25 C5         -3.0159   -3.1045    0.3123 C.ar      1 ATP         0.2195
     26 C6         -3.4377   -4.4169   -0.1199 C.ar      1 ATP         0.6144
     27 N6         -4.5720   -4.5691   -0.7080 N.2       1 ATP        -0.8160
     28 N1         -2.4600   -5.3463    0.2071 N.pl3     1 ATP        -0.8611
     29 C2         -1.2595   -5.0554    0.8515 C.ar      1 ATP         0.6141
     30 N3         -0.8555   -3.8803    1.2516 N.2       1 ATP        -0.5913
     31 C4         -1.7946   -2.9457    0.9448 C.ar      1 ATP         0.0067
     32 HOG3       -0.5080    9.2486    4.8519 H         1 ATP         0.4313
     33 HOB2       -3.8302    7.8790    1.9370 H         1 ATP         0.4716
     34 H5'1       -1.7770    2.7851    2.1387 H         1 ATP         0.0452
     35 H5'2       -1.1653    2.0543    0.6320 H         1 ATP         0.0452
     36 H4'         0.0403    1.7078    3.4343 H         1 ATP         0.0998
     37 H3'         1.5906    1.4859    1.1353 H         1 ATP         0.0544
     38 HO3'        2.6839   -0.1150    2.2479 H         1 ATP         0.3961
     39 H2'        -0.0017    0.0018    0.0005 H         1 ATP         0.0499
     40 HO2'        2.0953   -0.9375    0.0709 H         1 ATP         0.4045
     41 H1'        -0.1998   -1.6319    2.6178 H         1 ATP         0.0912
     42 H8         -3.0558    0.0252    0.8256 H         1 ATP         0.1090
     43 HN62       -4.7047   -5.5592   -0.9421 H         1 ATP         0.3694
     44 H2         -0.6372   -5.9505    1.0077 H         1 ATP         0.0371
     45 H45        -2.6338   -6.3155   -0.0469 H         1 ATP         0.4283
@<TRIPOS>BOND
     1    1    2 2
     2    1    3 1
     3    1    4 1
     4    1    8 1
     5    4   32 1
     6    5    6 2
     7    5    7 1
     8    5    8 1
     9    5   12 1
    10    7   33 1
    11    9   10 2
    12    9   11 1
    13    9   12 1
    14    9   13 1
    15   13   14 1
    16   14   15 1
    17   14   34 1
    18   14   35 1
    19   15   16 1
    20   15   17 1
    21   15   36 1
    22   16   21 1
    23   17   18 1
    24   17   19 1
    25   17   37 1
    26   18   38 1
    27   19   20 1
    28   19   21 1
    29   19   39 1
    30   20   40 1
    31   21   22 1
    32   21   41 1
    33   22   23 ar
    34   22   31 ar
    35   23   24 ar
    36   23   42 1
    37   24   25 ar
    38   25   26 ar
    39   25   31 ar
    40   26   27 2
    41   26   28 ar
    42   27   43 1
    43   28   29 ar
    44   28   45 1
    45   29   30 ar
    46   29   44 1
    47   30   31 ar
@<TRIPOS>SUBSTRUCTURE
     1 ATP         1 GROUP 0 A     ****
@<TRIPOS>MOLECULE
[[[3,4-dihydroxy-5-(6-imino-1~{H}-purin-9-yl)tetrahydrofuran-2-yl]methoxy-oxido-phosphoryl]oxy-hydroxy-phosphoryl] hydrogen phosphate
   45    47     1     0     0
SMALL
USER_CHARGES

@<TRIPOS>ATOM
      1 PG         -0.3151    4.8614    7.7433 P.3       1 ATP         1.5496
      2 O1G        -1.7168    5.1501    8.2326 O.co2     1 ATP        -0.8494
      3 O2G         0.8250    5.8067    8.0500 O.co2     1 ATP        -0.8494
      4 O3G         0.1073    3.3629    8.2355 O.3       1 ATP        -0.7845
      5 PB         -0.7090    5.5862    4.9118 P.3       1 ATP         1.9068
      6 O1B        -2.0796    6.1947    4.9509 O.2       1 ATP        -0.8942
      7 O2B         0.5118    6.6460    4.9235 O.3       1 ATP        -0.8166
      8 O3B        -0.3624    4.5891    6.1359 O.3       1 ATP        -0.8194
      9 PA         -0.3961    4.9845    2.0411 P.3       1 ATP         1.5903
     10 O1A         0.7136    5.9718    1.7518 O.co2     1 ATP        -0.8519
     11 O2A        -1.8198    5.2756    1.6189 O.co2     1 ATP        -0.8519
     12 O3A        -0.3946    4.6439    3.6380 O.3       1 ATP        -0.8093
     13 O5'         0.0180    3.5131    1.4595 O.3       1 ATP        -0.5649
     14 C5'        -0.8811    2.4285    1.6206 C.3       1 ATP         0.1979
     15 C4'        -0.1994    1.3333    2.4288 C.3       1 ATP         0.1179
     16 O4'        -1.1285    0.2356    2.5840 O.3       1 ATP        -0.3878
     17 C3'         1.0324    0.7610    1.7344 C.3       1 ATP         0.1185
     18 O3'         1.9175    0.2377    2.7247 O.3       1 ATP        -0.5544
     19 C2'         0.4468   -0.3802    0.9263 C.3       1 ATP         0.0542
     20 O2'         1.3993   -1.3703    0.5961 O.3       1 ATP        -0.5831
     21 C1'        -0.6159   -0.9100    1.8769 C.3       1 ATP         0.2222
     22 N9         -1.7127   -1.6108    1.2130 N.pl3     1 ATP        -0.1887
     23 C8         -1.7690   -2.9583    0.9549 C.ar      1 ATP         0.4447
     24 N7         -2.8827   -3.3076    0.3418 N.2       1 ATP        -0.6159
     25 C5         -3.5683   -2.1351    0.2017 C.ar      1 ATP         0.2195
     26 C6         -4.8617   -1.9185   -0.4044 C.ar      1 ATP         0.6144
     27 N6         -5.5166   -2.9094   -0.8994 N.2       1 ATP        -0.8160
     28 N1         -5.1836   -0.5701   -0.3344 N.pl3     1 ATP        -0.8611
     29 C2         -4.3821    0.4180    0.2330 C.ar      1 ATP         0.6141
     30 N3         -3.2117    0.2488    0.7860 N.2       1 ATP        -0.5913
     31 C4         -2.8672   -1.0657    0.7327 C.ar      1 ATP         0.0067
     32 HOG3        0.9966    3.0259    7.9948 H         1 ATP         0.4313
     33 HOB2        0.5772    7.3025    4.1976 H         1 ATP         0.4716
     34 H5'1       -1.7770    2.7851    2.1387 H         1 ATP         0.0452
     35 H5'2       -1.1653    2.0543    0.6320 H         1 ATP         0.0452
     36 H4'         0.0403    1.7078    3.4343 H         1 ATP         0.0998
     37 H3'         1.5906    1.4859    1.1353 H         1 ATP         0.0544
     38 HO3'        2.6839   -0.1150    2.2479 H         1 ATP         0.3961
     39 H2'        -0.0017    0.0018    0.0005 H         1 ATP         0.0499
     40 HO2'        2.0953   -0.9375    0.0709 H         1 ATP         0.4045
     41 H1'        -0.1998   -1.6319    2.6178 H         1 ATP         0.0912
     42 H8         -0.9697   -3.6300    1.2371 H         1 ATP         0.1090
     43 HN62       -6.4060   -2.5723   -1.2840 H         1 ATP         0.3694
     44 H2         -4.8409    1.4176    0.1757 H         1 ATP         0.0371
     45 H45        -6.0768   -0.2826   -0.7263 H         1 ATP         0.4283
@<TRIPOS>BOND
     1    1    2 2
     2    1    3 1
     3    1    4 1
     4    1    8 1
     5    4   32 1
     6    5    6 2
     7    5    7 1
     8    5    8 1
     9    5   12 1
    10    7   33 1
    11    9   10 2
    12    9   11 1
    13    9   12 1
    14    9   13 1
    15   13   14 1
    16   14   15 1
    17   14   34 1
    18   14   35 1
    19   15   16 1
    20   15   17 1
    21   15   36 1
    22   16   21 1
    23   17   18 1
    24   17   19 1
    25   17   37 1
    26   18   38 1
    27   19   20 1
    28   19   21 1
    29   19   39 1
    30   20   40 1
    31   21   22 1
    32   21   41 1
    33   22   23 ar
    34   22   31 ar
    35   23   24 ar
    36   23   42 1
    37   24   25 ar
    38   25   26 ar
    39   25   31 ar
    40   26   27 2
    41   26   28 ar
    42   27   43 1
    43   28   29 ar
    44   28   45 1
    45   29   30 ar
    46   29   44 1
    47   30   31 ar
@<TRIPOS>SUBSTRUCTURE
     1 ATP         1 GROUP 0 A     ****
@<TRIPOS>MOLECULE
[[[3,4-dihydroxy-5-(6-imino-1~{H}-purin-9-yl)tetrahydrofuran-2-yl]methoxy-oxido-phosphoryl]oxy-hydroxy-phosphoryl] hydrogen phosphate
   45    47     1     0     0
SMALL
USER_CHARGES

@<TRIPOS>ATOM
      1 PG          5.9073    5.1350   -4.0022 P.3       1 ATP         1.5496
      2 O1G         6.0275    6.6427   -4.0057 O.co2     1 ATP        -0.8494
      3 O2G         4.5895    4.4614   -3.6904 O.co2     1 ATP        -0.8494
      4 O3G         6.4535    4.5682   -5.4328 O.3       1 ATP        -0.7845
      5 PB          7.5024    2.9818   -2.7704 P.3       1 ATP         1.9068
      6 O1B         7.9758    2.2351   -3.9822 O.2       1 ATP        -0.8942
      7 O2B         8.5789    3.0920   -1.5693 O.3       1 ATP        -0.8166
      8 O3B         7.0637    4.5152   -3.0334 O.3       1 ATP        -0.8194
      9 PA          5.8978    0.9308   -1.3849 P.3       1 ATP         1.5903
     10 O1A         6.7865    0.7713   -0.1705 O.co2     1 ATP        -0.8519
     11 O2A         5.9016   -0.1054   -2.4876 O.co2     1 ATP        -0.8519
     12 O3A         6.1792    2.3930   -2.0547 O.3       1 ATP        -0.8093
     13 O5'         4.3515    1.1574   -0.9027 O.3       1 ATP        -0.5649
     14 C5'         4.0922    1.9801    0.2227 C.3       1 ATP         0.1979
     15 C4'         2.5944    2.0310    0.4653 C.3       1 ATP         0.1179
     16 O4'         1.9327    2.5740   -0.6889 O.3       1 ATP        -0.3878
     17 C3'         1.9685    0.6634    0.6767 C.3       1 ATP         0.1185
     18 O3'         2.1425    0.1975    1.9977 O.3       1 ATP        -0.5544
     19 C2'         0.5176    0.9128    0.3099 C.3       1 ATP         0.0542
     20 O2'        -0.2103    1.4454    1.4152 O.3       1 ATP        -0.5831
     21 C1'         0.6219    1.9765   -0.7844 C.3       1 ATP         0.2222
     22 N9          0.4237    1.4496   -2.1357 N.pl3     1 ATP        -0.1887
     23 C8          1.4069    0.9710   -2.9662 C.ar      1 ATP         0.4447
     24 N7          0.9316    0.5623   -4.1260 N.2       1 ATP        -0.6159
     25 C5         -0.4120    0.7884   -4.0344 C.ar      1 ATP         0.2195
     26 C6         -1.4353    0.5283   -5.0204 C.ar      1 ATP         0.6144
     27 N6         -1.1199    0.0176   -6.1586 N.2       1 ATP        -0.8160
     28 N1         -2.6704    0.9095   -4.5147 N.pl3     1 ATP        -0.8611
     29 C2         -2.8863    1.4571   -3.2520 C.ar      1 ATP         0.6141
     30 N3         -1.9805    1.7017   -2.3442 N.2       1 ATP        -0.5913
     31 C4         -0.7561    1.3381   -2.8112 C.ar      1 ATP         0.0067
     32 HOG3        6.4407    3.5995   -5.5866 H         1 ATP         0.4313
     33 HOB2        8.9198    2.2680   -1.1606 H         1 ATP         0.4716
     34 H5'1        4.6070    1.5617    1.0934 H         1 ATP         0.0452
     35 H5'2        4.4825    2.9836    0.0252 H         1 ATP         0.0452
     36 H4'         2.3751    2.7029    1.3156 H         1 ATP         0.0998
     37 H3'         2.4336   -0.1217   -0.0015 H         1 ATP         0.0544
     38 HO3'        1.7160   -0.6716    2.0397 H         1 ATP         0.3961
     39 H2'         0.0316    0.0155   -0.0339 H         1 ATP         0.0499
     40 HO2'       -0.1608    0.7921    2.1351 H         1 ATP         0.4045
     41 H1'        -0.1474    2.7798   -0.6651 H         1 ATP         0.0912
     42 H8          2.4466    0.9468   -2.6694 H         1 ATP         0.1090
     43 HN62       -1.9661   -0.0965   -6.7275 H         1 ATP         0.3694
     44 H2         -3.9481    1.6825   -3.0660 H         1 ATP         0.0371
     45 H45        -3.4814    0.7753   -5.1133 H         1 ATP         0.4283
@<TRIPOS>BOND
     1    1    2 2
     2    1    3 1
     3    1    4 1
     4    1    8 1
     5    4   32 1
     6    5    6 2
     7    5    7 1
     8    5    8 1
     9    5   12 1
    10    7   33 1
    11    9   10 2
    12    9   11 1
    13    9   12 1
    14    9   13 1
    15   13   14 1
    16   14   15 1
    17   14   34 1
    18   14   35 1
    19   15   16 1
    20   15   17 1
    21   15   36 1
    22   16   21 1
    23   17   18 1
    24   17   19 1
    25   17   37 1
    26   18   38 1
    27   19   20 1
    28   19   21 1
    29   19   39 1
    30   20   40 1
    31   21   22 1
    32   21   41 1
    33   22   23 ar
    34   22   31 ar
    35   23   24 ar
    36   23   42 1
    37   24   25 ar
    38   25   26 ar
    39   25   31 ar
    40   26   27 2
    41   26   28 ar
    42   27   43 1
    43   28   29 ar
    44   28   45 1
    45   29   30 ar
    46   29   44 1
    47   30   31 ar
@<TRIPOS>SUBSTRUCTURE
     1 ATP         1 GROUP 0 A     ****
@<TRIPOS>MOLECULE
[[[3,4-dihydroxy-5-(6-imino-1~{H}-purin-9-yl)tetrahydrofuran-2-yl]methoxy-oxido-phosphoryl]oxy-hydroxy-phosphoryl] hydrogen phosphate
   45    47     1     0     0
SMALL
USER_CHARGES

@<TRIPOS>ATOM
      1 PG         -0.9277    8.9580    0.5767 P.3       1 ATP         1.5496
      2 O1G         0.4193    9.4835    1.0207 O.co2     1 ATP        -0.8494
      3 O2G        -2.1955    9.7328    0.8592 O.co2     1 ATP        -0.8494
      4 O3G        -0.8588    8.6424   -1.0239 O.3       1 ATP        -0.7845
      5 PB         -1.2509    6.8647    2.6288 P.3       1 ATP         1.9068
      6 O1B        -0.0964    7.1630    3.5390 O.2       1 ATP        -0.8942
      7 O2B        -2.6780    7.4445    3.1194 O.3       1 ATP        -0.8166
      8 O3B        -1.1049    7.4311    1.1219 O.3       1 ATP        -0.8194
      9 PA         -1.9154    4.0917    3.3839 P.3       1 ATP         1.5903
     10 O1A        -3.2731    4.3718    3.9906 O.co2     1 ATP        -0.8519
     11 O2A        -0.7135    3.8304    4.2652 O.co2     1 ATP        -0.8519
     12 O3A        -1.5408    5.2999    2.3514 O.3       1 ATP        -0.8093
     13 O5'        -2.0402    2.8619    2.3130 O.3       1 ATP        -0.5649
     14 C5'        -0.8811    2.4285    1.6206 C.3       1 ATP         0.1979
     15 C4'        -0.1994    1.3333    2.4288 C.3       1 ATP         0.1179
     16 O4'        -1.1285    0.2356    2.5840 O.3       1 ATP        -0.3878
     17 C3'         1.0324    0.7610    1.7344 C.3       1 ATP         0.1185
     18 O3'         1.9175    0.2377    2.7247 O.3       1 ATP        -0.5544
     19 C2'         0.4468   -0.3802    0.9263 C.3       1 ATP         0.0542
     20 O2'         1.3993   -1.3703    0.5961 O.3       1 ATP        -0.5831
     21 C1'        -0.6159   -0.9100    1.8769 C.3       1 ATP         0.2222
     22 N9         -1.7127   -1.6108    1.2130 N.pl3     1 ATP        -0.1887
     23 C8         -2.8662   -1.0361    0.7388 C.ar      1 ATP         0.4447
     24 N7         -3.6774   -1.9166    0.1867 N.2       1 ATP        -0.6159
     25 C5         -3.0159   -3.1045    0.3123 C.ar      1 ATP         0.2195
     26 C6         -3.4377   -4.4169   -0.1199 C.ar      1 ATP         0.6144
     27 N6         -4.5720   -4.5691   -0.7080 N.2       1 ATP        -0.8160
     28 N1         -2.4600   -5.3463    0.2071 N.pl3     1 ATP        -0.8611
     29 C2         -1.2595   -5.0554    0.8515 C.ar      1 ATP         0.6141
     30 N3         -0.8555   -3.8803    1.2516 N.2       1 ATP        -0.5913
     31 C4         -1.7946   -2.9457    0.9448 C.ar      1 ATP         0.0067
     32 HOG3       -1.6616    8.2919   -1.4655 H         1 ATP         0.4313
     33 HOB2       -3.0386    7.1496    3.9827 H         1 ATP         0.4716
     34 H5'1       -1.1769    2.0503    0.6369 H         1 ATP         0.0452
     35 H5'2       -0.2081    3.2815    1.4877 H         1 ATP         0.0452
     36 H4'         0.0403    1.7078    3.4343 H         1 ATP         0.0998
     37 H3'         1.5906    1.4859    1.1353 H         1 ATP         0.0544
     38 HO3'        2.1521    0.9800    3.3017 H         1 ATP         0.3961
     39 H2'        -0.0017    0.0018    0.0005 H         1 ATP         0.0499
     40 HO2'        0.9369   -2.0558    0.0825 H         1 ATP         0.4045
     41 H1'        -0.1998   -1.6319    2.6178 H         1 ATP         0.0912
     42 H8         -3.0558    0.0252    0.8256 H         1 ATP         0.1090
     43 HN62       -4.7047   -5.5592   -0.9421 H         1 ATP         0.3694
     44 H2         -0.6372   -5.9505    1.0077 H         1 ATP         0.0371
     45 H45        -2.6338   -6.3155   -0.0469 H         1 ATP         0.4283
@<TRIPOS>BOND
     1    1    2 2
     2    1    3 1
     3    1    4 1
     4    1    8 1
     5    4   32 1
     6    5    6 2
     7    5    7 1
     8    5    8 1
     9    5   12 1
    10    7   33 1
    11    9   10 2
    12    9   11 1
    13    9   12 1
    14    9   13 1
    15   13   14 1
    16   14   15 1
    17   14   34 1
    18   14   35 1
    19   15   16 1
    20   15   17 1
    21   15   36 1
    22   16   21 1
    23   17   18 1
    24   17   19 1
    25   17   37 1
    26   18   38 1
    27   19   20 1
    28   19   21 1
    29   19   39 1
    30   20   40 1
    31   21   22 1
    32   21   41 1
    33   22   23 ar
    34   22   31 ar
    35   23   24 ar
    36   23   42 1
    37   24   25 ar
    38   25   26 ar
    39   25   31 ar
    40   26   27 2
    41   26   28 ar
    42   27   43 1
    43   28   29 ar
    44   28   45 1
    45   29   30 ar
    46   29   44 1
    47   30   31 ar
@<TRIPOS>SUBSTRUCTURE
     1 ATP         1 GROUP 0 A     ****
@<TRIPOS>MOLECULE
[[[3,4-dihydroxy-5-(6-imino-1~{H}-purin-9-yl)tetrahydrofuran-2-yl]methoxy-oxido-phosphoryl]oxy-hydroxy-phosphoryl] hydrogen phosphate
   45    47     1     0     0
SMALL
USER_CHARGES

@<TRIPOS>ATOM
      1 PG         -6.9871    5.8773    0.6082 P.3       1 ATP         1.5496
      2 O1G        -8.1231    4.9944    0.1419 O.co2     1 ATP        -0.8494
      3 O2G        -6.5672    7.0904   -0.1916 O.co2     1 ATP        -0.8494
      4 O3G        -7.2922    6.3477    2.1418 O.3       1 ATP        -0.7845
      5 PB         -4.7530    4.0980   -0.1270 P.3       1 ATP         1.9068
      6 O1B        -5.4683    3.0308   -0.9015 O.2       1 ATP        -0.8942
      7 O2B        -4.0326    5.2314   -1.0268 O.3       1 ATP        -0.8166
      8 O3B        -5.6774    4.9475    0.8912 O.3       1 ATP        -0.8194
      9 PA         -2.5926    4.4186    1.8557 P.3       1 ATP         1.5903
     10 O1A        -3.4218    5.0535    2.9508 O.co2     1 ATP        -0.8519
     11 O2A        -1.6628    5.2565    1.0052 O.co2     1 ATP        -0.8519
     12 O3A        -3.5835    3.5841    0.8618 O.3       1 ATP        -0.8093
     13 O5'        -1.7337    3.1724    2.4752 O.3       1 ATP        -0.5649
     14 C5'        -0.8811    2.4285    1.6206 C.3       1 ATP         0.1979
     15 C4'        -0.1994    1.3333    2.4288 C.3       1 ATP         0.1179
     16 O4'        -1.1285    0.2356    2.5840 O.3       1 ATP        -0.3878
     17 C3'         1.0324    0.7610    1.7344 C.3       1 ATP         0.1185
     18 O3'         1.9175    0.2377    2.7247 O.3       1 ATP        -0.5544
     19 C2'         0.4468   -0.3802    0.9263 C.3       1 ATP         0.0542
     20 O2'         1.3993   -1.3703    0.5961 O.3       1 ATP        -0.5831
     21 C1'        -0.6159   -0.9100    1.8769 C.3       1 ATP         0.2222
     22 N9         -1.7127   -1.6108    1.2130 N.pl3     1 ATP        -0.1887
     23 C8         -2.0868   -2.9137    1.4327 C.ar      1 ATP         0.4447
     24 N7         -3.1125   -3.2756    0.6878 N.2       1 ATP        -0.6159
     25 C5         -3.4079   -2.1580   -0.0391 C.ar      1 ATP         0.2195
     26 C6         -4.4483   -1.9775   -1.0249 C.ar      1 ATP         0.6144
     27 N6         -5.2418   -2.9492   -1.3113 N.2       1 ATP        -0.8160
     28 N1         -4.3937   -0.6823   -1.5211 N.pl3     1 ATP        -0.8611
     29 C2         -3.4770    0.2901   -1.1271 C.ar      1 ATP         0.6141
     30 N3         -2.5289    0.1525   -0.2403 N.2       1 ATP        -0.5913
     31 C4         -2.5564   -1.1096    0.2655 C.ar      1 ATP         0.0067
     32 HOG3       -6.6421    6.9301    2.5894 H         1 ATP         0.4313
     33 HOB2       -4.5798    5.7746   -1.6333 H         1 ATP         0.4716
     34 H5'1       -1.4801    1.9928    0.8147 H         1 ATP         0.0452
     35 H5'2       -0.1369    3.1041    1.1872 H         1 ATP         0.0452
     36 H4'         0.0403    1.7078    3.4343 H         1 ATP         0.0998
     37 H3'         1.5906    1.4859    1.1353 H         1 ATP         0.0544
     38 HO3'        2.1521    0.9800    3.3017 H         1 ATP         0.3961
     39 H2'        -0.0017    0.0018    0.0005 H         1 ATP         0.0499
     40 HO2'        0.9369   -2.0558    0.0825 H         1 ATP         0.4045
     41 H1'        -0.1998   -1.6319    2.6178 H         1 ATP         0.0912
     42 H8         -1.5740   -3.5449    2.1457 H         1 ATP         0.1090
     43 HN62       -5.9117   -2.6433   -2.0256 H         1 ATP         0.3694
     44 H2         -3.6225    1.2454   -1.6553 H         1 ATP         0.0371
     45 H45        -5.0794   -0.4231   -2.2258 H         1 ATP         0.4283
@<TRIPOS>BOND
     1    1    2 2
     2    1    3 1
     3    1    4 1
     4    1    8 1
     5    4   32 1
     6    5    6 2
     7    5    7 1
     8    5    8 1
     9    5   12 1
    10    7   33 1
    11    9   10 2
    12    9   11 1
    13    9   12 1
    14    9   13 1
    15   13   14 1
    16   14   15 1
    17   14   34 1
    18   14   35 1
    19   15   16 1
    20   15   17 1
    21   15   36 1
    22   16   21 1
    23   17   18 1
    24   17   19 1
    25   17   37 1
    26   18   38 1
    27   19   20 1
    28   19   21 1
    29   19   39 1
    30   20   40 1
    31   21   22 1
    32   21   41 1
    33   22   23 ar
    34   22   31 ar
    35   23   24 ar
    36   23   42 1
    37   24   25 ar
    38   25   26 ar
    39   25   31 ar
    40   26   27 2
    41   26   28 ar
    42   27   43 1
    43   28   29 ar
    44   28   45 1
    45   29   30 ar
    46   29   44 1
    47   30   31 ar
@<TRIPOS>SUBSTRUCTURE
     1 ATP         1 GROUP 0 A     ****
@<TRIPOS>MOLECULE
[[[3,4-dihydroxy-5-(6-imino-1~{H}-purin-9-yl)tetrahydrofuran-2-yl]methoxy-oxido-phosphoryl]oxy-hydroxy-phosphoryl] hydrogen phosphate
   45    47     1     0     0
SMALL
USER_CHARGES

@<TRIPOS>ATOM
      1 PG          7.0466    6.0790    0.3782 P.3       1 ATP         1.5496
      2 O1G         5.6111    5.6130    0.2781 O.co2     1 ATP        -0.8494
      3 O2G         7.8905    6.2674   -0.8626 O.co2     1 ATP        -0.8494
      4 O3G         7.0832    7.4622    1.2451 O.3       1 ATP        -0.7845
      5 PB          8.2376    3.5483    1.3137 P.3       1 ATP         1.9068
      6 O1B         9.1167    3.1889    0.1525 O.2       1 ATP        -0.8942
      7 O2B         8.8512    3.2058    2.7696 O.3       1 ATP        -0.8166
      8 O3B         7.8440    5.1124    1.4221 O.3       1 ATP        -0.8194
      9 PA          6.3564    1.2770    1.3735 P.3       1 ATP         1.5903
     10 O1A         6.8004    0.6872    2.6945 O.co2     1 ATP        -0.8519
     11 O2A         6.7693    0.6402    0.0644 O.co2     1 ATP        -0.8519
     12 O3A         6.7793    2.8536    1.3323 O.3       1 ATP        -0.8093
     13 O5'         4.7294    1.4426    1.3698 O.3       1 ATP        -0.5649
     14 C5'         4.0922    1.9801    0.2227 C.3       1 ATP         0.1979
     15 C4'         2.5944    2.0310    0.4653 C.3       1 ATP         0.1179
     16 O4'         1.9327    2.5740   -0.6889 O.3       1 ATP        -0.3878
     17 C3'         1.9685    0.6634    0.6767 C.3       1 ATP         0.1185
     18 O3'         2.1425    0.1975    1.9977 O.3       1 ATP        -0.5544
     19 C2'         0.5176    0.9128    0.3099 C.3       1 ATP         0.0542
     20 O2'        -0.2103    1.4454    1.4152 O.3       1 ATP        -0.5831
     21 C1'         0.6219    1.9765   -0.7844 C.3       1 ATP         0.2222
     22 N9          0.4237    1.4496   -2.1357 N.pl3     1 ATP        -0.1887
     23 C8          1.4069    0.9710   -2.9662 C.ar      1 ATP         0.4447
     24 N7          0.9316    0.5623   -4.1260 N.2       1 ATP        -0.6159
     25 C5         -0.4120    0.7884   -4.0344 C.ar      1 ATP         0.2195
     26 C6         -1.4353    0.5283   -5.0204 C.ar      1 ATP         0.6144
     27 N6         -1.1199    0.0176   -6.1586 N.2       1 ATP        -0.8160
     28 N1         -2.6704    0.9095   -4.5147 N.pl3     1 ATP        -0.8611
     29 C2         -2.8863    1.4571   -3.2520 C.ar      1 ATP         0.6141
     30 N3         -1.9805    1.7017   -2.3442 N.2       1 ATP        -0.5913
     31 C4         -0.7561    1.3381   -2.8112 C.ar      1 ATP         0.0067
     32 HOG3        7.9506    7.8933    1.3997 H         1 ATP         0.4313
     33 HOB2        9.0736    2.2747    2.9837 H         1 ATP         0.4716
     34 H5'1        4.4844    2.9853    0.0382 H         1 ATP         0.0452
     35 H5'2        4.3192    1.3445   -0.6391 H         1 ATP         0.0452
     36 H4'         2.3751    2.7029    1.3156 H         1 ATP         0.0998
     37 H3'         2.4336   -0.1217   -0.0015 H         1 ATP         0.0544
     38 HO3'        3.0987    0.1465    2.1461 H         1 ATP         0.3961
     39 H2'         0.0316    0.0155   -0.0339 H         1 ATP         0.0499
     40 HO2'       -0.1608    0.7921    2.1351 H         1 ATP         0.4045
     41 H1'        -0.1474    2.7798   -0.6651 H         1 ATP         0.0912
     42 H8          2.4466    0.9468   -2.6694 H         1 ATP         0.1090
     43 HN62       -1.9661   -0.0965   -6.7275 H         1 ATP         0.3694
     44 H2         -3.9481    1.6825   -3.0660 H         1 ATP         0.0371
     45 H45        -3.4814    0.7753   -5.1133 H         1 ATP         0.4283
@<TRIPOS>BOND
     1    1    2 2
     2    1    3 1
     3    1    4 1
     4    1    8 1
     5    4   32 1
     6    5    6 2
     7    5    7 1
     8    5    8 1
     9    5   12 1
    10    7   33 1
    11    9   10 2
    12    9   11 1
    13    9   12 1
    14    9   13 1
    15   13   14 1
    16   14   15 1
    17   14   34 1
    18   14   35 1
    19   15   16 1
    20   15   17 1
    21   15   36 1
    22   16   21 1
    23   17   18 1
    24   17   19 1
    25   17   37 1
    26   18   38 1
    27   19   20 1
    28   19   21 1
    29   19   39 1
    30   20   40 1
    31   21   22 1
    32   21   41 1
    33   22   23 ar
    34   22   31 ar
    35   23   24 ar
    36   23   42 1
    37   24   25 ar
    38   25   26 ar
    39   25   31 ar
    40   26   27 2
    41   26   28 ar
    42   27   43 1
    43   28   29 ar
    44   28   45 1
    45   29   30 ar
    46   29   44 1
    47   30   31 ar
@<TRIPOS>SUBSTRUCTURE
     1 ATP         1 GROUP 0 A     ****
@<TRIPOS>MOLECULE
[[[3,4-dihydroxy-5-(6-imino-1~{H}-purin-9-yl)tetrahydrofuran-2-yl]methoxy-oxido-phosphoryl]oxy-hydroxy-phosphoryl] hydrogen phosphate
   45    47     1     0     0
SMALL
USER_CHARGES

@<TRIPOS>ATOM
      1 PG         -2.7940    7.4973   -2.1709 P.3       1 ATP         1.5496
      2 O1G        -1.5358    8.1567   -2.6902 O.co2     1 ATP        -0.8494
      3 O2G        -3.9826    8.3254   -1.7362 O.co2     1 ATP        -0.8494
      4 O3G        -3.2992    6.4041   -3.2736 O.3       1 ATP        -0.7845
      5 PB         -1.7982    6.7583    0.5050 P.3       1 ATP         1.9068
      6 O1B        -0.4751    7.4647    0.5330 O.2       1 ATP        -0.8942
      7 O2B        -3.0023    7.5282    1.2607 O.3       1 ATP        -0.8166
      8 O3B        -2.3942    6.4692   -0.9695 O.3       1 ATP        -0.8194
      9 PA         -1.4708    4.7755    2.6642 P.3       1 ATP         1.5903
     10 O1A        -2.5000    5.3467    3.6152 O.co2     1 ATP        -0.8519
     11 O2A         0.0078    4.9862    2.9073 O.co2     1 ATP        -0.8519
     12 O3A        -1.8177    5.2772    1.1497 O.3       1 ATP        -0.8093
     13 O5'        -1.7337    3.1724    2.4752 O.3       1 ATP        -0.5649
     14 C5'        -0.8811    2.4285    1.6206 C.3       1 ATP         0.1979
     15 C4'        -0.1994    1.3333    2.4288 C.3       1 ATP         0.1179
     16 O4'        -1.1285    0.2356    2.5840 O.3       1 ATP        -0.3878
     17 C3'         1.0324    0.7610    1.7344 C.3       1 ATP         0.1185
     18 O3'         1.9175    0.2377    2.7247 O.3       1 ATP        -0.5544
     19 C2'         0.4468   -0.3802    0.9263 C.3       1 ATP         0.0542
     20 O2'         1.3993   -1.3703    0.5961 O.3       1 ATP        -0.5831
     21 C1'        -0.6159   -0.9100    1.8769 C.3       1 ATP         0.2222
     22 N9         -1.7127   -1.6108    1.2130 N.pl3     1 ATP        -0.1887
     23 C8         -2.5485   -1.0808    0.2609 C.ar      1 ATP         0.4447
     24 N7         -3.4476   -1.9486   -0.1593 N.2       1 ATP        -0.6159
     25 C5         -3.1762   -3.0816    0.5530 C.ar      1 ATP         0.2195
     26 C6         -3.8510   -4.3579    0.5006 C.ar      1 ATP         0.6144
     27 N6         -4.8468   -4.5293   -0.2961 N.2       1 ATP        -0.8160
     28 N1         -3.2499   -5.2342    1.3937 N.pl3     1 ATP        -0.8611
     29 C2         -2.1646   -4.9275    2.2116 C.ar      1 ATP         0.6141
     30 N3         -1.5382   -3.7840    2.2778 N.2       1 ATP        -0.5913
     31 C4         -2.1054   -2.9018    1.4120 C.ar      1 ATP         0.0067
     32 HOG3       -4.1111    5.8883   -3.0814 H         1 ATP         0.4313
     33 HOB2       -2.9139    7.7232    2.2180 H         1 ATP         0.4716
     34 H5'1       -1.4801    1.9928    0.8147 H         1 ATP         0.0452
     35 H5'2       -0.1369    3.1041    1.1872 H         1 ATP         0.0452
     36 H4'         0.0403    1.7078    3.4343 H         1 ATP         0.0998
     37 H3'         1.5906    1.4859    1.1353 H         1 ATP         0.0544
     38 HO3'        2.1521    0.9800    3.3017 H         1 ATP         0.3961
     39 H2'        -0.0017    0.0018    0.0005 H         1 ATP         0.0499
     40 HO2'        2.0953   -0.9375    0.0709 H         1 ATP         0.4045
     41 H1'        -0.1998   -1.6319    2.6178 H         1 ATP         0.0912
     42 H8         -2.4515   -0.0599   -0.0829 H         1 ATP         0.1090
     43 HN62       -5.1990   -5.4882   -0.2004 H         1 ATP         0.3694
     44 H2         -1.8555   -5.7783    2.8388 H         1 ATP         0.0371
     45 H45        -3.6312   -6.1750    1.4526 H         1 ATP         0.4283
@<TRIPOS>BOND
     1    1    2 2
     2    1    3 1
     3    1    4 1
     4    1    8 1
     5    4   32 1
     6    5    6 2
     7    5    7 1
     8    5    8 1
     9    5   12 1
    10    7   33 1
    11    9   10 2
    12    9   11 1
    13    9   12 1
    14    9   13 1
    15   13   14 1
    16   14   15 1
    17   14   34 1
    18   14   35 1
    19   15   16 1
    20   15   17 1
    21   15   36 1
    22   16   21 1
    23   17   18 1
    24   17   19 1
    25   17   37 1
    26   18   38 1
    27   19   20 1
    28   19   21 1
    29   19   39 1
    30   20   40 1
    31   21   22 1
    32   21   41 1
    33   22   23 ar
    34   22   31 ar
    35   23   24 ar
    36   23   42 1
    37   24   25 ar
    38   25   26 ar
    39   25   31 ar
    40   26   27 2
    41   26   28 ar
    42   27   43 1
    43   28   29 ar
    44   28   45 1
    45   29   30 ar
    46   29   44 1
    47   30   31 ar
@<TRIPOS>SUBSTRUCTURE
     1 ATP         1 GROUP 0 A     ****
@<TRIPOS>MOLECULE
[[[3,4-dihydroxy-5-(6-imino-1~{H}-purin-9-yl)tetrahydrofuran-2-yl]methoxy-oxido-phosphoryl]oxy-hydroxy-phosphoryl] hydrogen phosphate
   45    47     1     0     0
SMALL
USER_CHARGES

@<TRIPOS>ATOM
      1 PG         -0.4472    1.0514    7.0070 P.3       1 ATP         1.5496
      2 O1G        -0.9292    0.3546    5.7540 O.co2     1 ATP        -0.8494
      3 O2G        -1.3405    1.1719    8.2214 O.co2     1 ATP        -0.8494
      4 O3G         0.9646    0.3723    7.4671 O.3       1 ATP        -0.7845
      5 PB         -0.6713    3.8305    6.0456 P.3       1 ATP         1.9068
      6 O1B        -1.7478    4.3670    6.9422 O.2       1 ATP        -0.8942
      7 O2B         0.5161    4.8722    5.7015 O.3       1 ATP        -0.8166
      8 O3B         0.1095    2.5314    6.6073 O.3       1 ATP        -0.8194
      9 PA         -1.9154    4.0917    3.3839 P.3       1 ATP         1.5903
     10 O1A        -0.9828    5.1481    2.8324 O.co2     1 ATP        -0.8519
     11 O2A        -3.3086    4.4564    3.8487 O.co2     1 ATP        -0.8519
     12 O3A        -1.1597    3.3045    4.5985 O.3       1 ATP        -0.8093
     13 O5'        -2.0402    2.8619    2.3130 O.3       1 ATP        -0.5649
     14 C5'        -0.8811    2.4285    1.6206 C.3       1 ATP         0.1979
     15 C4'        -0.1994    1.3333    2.4288 C.3       1 ATP         0.1179
     16 O4'        -1.1285    0.2356    2.5840 O.3       1 ATP        -0.3878
     17 C3'         1.0324    0.7610    1.7344 C.3       1 ATP         0.1185
     18 O3'         1.9175    0.2377    2.7247 O.3       1 ATP        -0.5544
     19 C2'         0.4468   -0.3802    0.9263 C.3       1 ATP         0.0542
     20 O2'         1.3993   -1.3703    0.5961 O.3       1 ATP        -0.5831
     21 C1'        -0.6159   -0.9100    1.8769 C.3       1 ATP         0.2222
     22 N9         -1.7127   -1.6108    1.2130 N.pl3     1 ATP        -0.1887
     23 C8         -2.5485   -1.0808    0.2609 C.ar      1 ATP         0.4447
     24 N7         -3.4476   -1.9486   -0.1593 N.2       1 ATP        -0.6159
     25 C5         -3.1762   -3.0816    0.5530 C.ar      1 ATP         0.2195
     26 C6         -3.8510   -4.3579    0.5006 C.ar      1 ATP         0.6144
     27 N6         -4.8468   -4.5293   -0.2961 N.2       1 ATP        -0.8160
     28 N1         -3.2499   -5.2342    1.3937 N.pl3     1 ATP        -0.8611
     29 C2         -2.1646   -4.9275    2.2116 C.ar      1 ATP         0.6141
     30 N3         -1.5382   -3.7840    2.2778 N.2       1 ATP        -0.5913
     31 C4         -2.1054   -2.9018    1.4120 C.ar      1 ATP         0.0067
     32 HOG3        1.4084    0.7175    8.2710 H         1 ATP         0.4313
     33 HOB2        0.2936    5.7118    5.2457 H         1 ATP         0.4716
     34 H5'1       -1.1769    2.0503    0.6369 H         1 ATP         0.0452
     35 H5'2       -0.2081    3.2815    1.4877 H         1 ATP         0.0452
     36 H4'         0.0403    1.7078    3.4343 H         1 ATP         0.0998
     37 H3'         1.5906    1.4859    1.1353 H         1 ATP         0.0544
     38 HO3'        2.1521    0.9800    3.3017 H         1 ATP         0.3961
     39 H2'        -0.0017    0.0018    0.0005 H         1 ATP         0.0499
     40 HO2'        2.0953   -0.9375    0.0709 H         1 ATP         0.4045
     41 H1'        -0.1998   -1.6319    2.6178 H         1 ATP         0.0912
     42 H8         -2.4515   -0.0599   -0.0829 H         1 ATP         0.1090
     43 HN62       -5.1990   -5.4882   -0.2004 H         1 ATP         0.3694
     44 H2         -1.8555   -5.7783    2.8388 H         1 ATP         0.0371
     45 H45        -3.6312   -6.1750    1.4526 H         1 ATP         0.4283
@<TRIPOS>BOND
     1    1    2 2
     2    1    3 1
     3    1    4 1
     4    1    8 1
     5    4   32 1
     6    5    6 2
     7    5    7 1
     8    5    8 1
     9    5   12 1
    10    7   33 1
    11    9   10 2
    12    9   11 1
    13    9   12 1
    14    9   13 1
    15   13   14 1
    16   14   15 1
    17   14   34 1
    18   14   35 1
    19   15   16 1
    20   15   17 1
    21   15   36 1
    22   16   21 1
    23   17   18 1
    24   17   19 1
    25   17   37 1
    26   18   38 1
    27   19   20 1
    28   19   21 1
    29   19   39 1
    30   20   40 1
    31   21   22 1
    32   21   41 1
    33   22   23 ar
    34   22   31 ar
    35   23   24 ar
    36   23   42 1
    37   24   25 ar
    38   25   26 ar
    39   25   31 ar
    40   26   27 2
    41   26   28 ar
    42   27   43 1
    43   28   29 ar
    44   28   45 1
    45   29   30 ar
    46   29   44 1
    47   30   31 ar
@<TRIPOS>SUBSTRUCTURE
     1 ATP         1 GROUP 0 A     ****
@<TRIPOS>MOLECULE
[[[3,4-dihydroxy-5-(6-imino-1~{H}-purin-9-yl)tetrahydrofuran-2-yl]methoxy-oxido-phosphoryl]oxy-hydroxy-phosphoryl] hydrogen phosphate
   45    47     1     0     0
SMALL
USER_CHARGES

@<TRIPOS>ATOM
      1 PG         -4.3173    5.4179   -0.9526 P.3       1 ATP         1.5496
      2 O1G        -5.3503    6.3206   -1.5897 O.co2     1 ATP        -0.8494
      3 O2G        -4.5124    4.8814    0.4480 O.co2     1 ATP        -0.8494
      4 O3G        -4.0392    4.1599   -1.9556 O.3       1 ATP        -0.7845
      5 PB         -1.3860    5.5812   -0.6728 P.3       1 ATP         1.9068
      6 O1B        -0.9487    4.3648   -1.4340 O.2       1 ATP        -0.8942
      7 O2B        -0.4322    6.8755   -0.8426 O.3       1 ATP        -0.8166
      8 O3B        -2.8567    6.1373   -1.0479 O.3       1 ATP        -0.8194
      9 PA         -0.3961    4.9845    2.0411 P.3       1 ATP         1.5903
     10 O1A        -1.0788    4.8231    3.3819 O.co2     1 ATP        -0.8519
     11 O2A         0.7940    5.9060    1.8851 O.co2     1 ATP        -0.8519
     12 O3A        -1.5153    5.3999    0.9272 O.3       1 ATP        -0.8093
     13 O5'         0.0180    3.5131    1.4595 O.3       1 ATP        -0.5649
     14 C5'        -0.8811    2.4285    1.6206 C.3       1 ATP         0.1979
     15 C4'        -0.1994    1.3333    2.4288 C.3       1 ATP         0.1179
     16 O4'        -1.1285    0.2356    2.5840 O.3       1 ATP        -0.3878
     17 C3'         1.0324    0.7610    1.7344 C.3       1 ATP         0.1185
     18 O3'         1.9175    0.2377    2.7247 O.3       1 ATP        -0.5544
     19 C2'         0.4468   -0.3802    0.9263 C.3       1 ATP         0.0542
     20 O2'         1.3993   -1.3703    0.5961 O.3       1 ATP        -0.5831
     21 C1'        -0.6159   -0.9100    1.8769 C.3       1 ATP         0.2222
     22 N9         -1.7127   -1.6108    1.2130 N.pl3     1 ATP        -0.1887
     23 C8         -2.5485   -1.0808    0.2609 C.ar      1 ATP         0.4447
     24 N7         -3.4476   -1.9486   -0.1593 N.2       1 ATP        -0.6159
     25 C5         -3.1762   -3.0816    0.5530 C.ar      1 ATP         0.2195
     26 C6         -3.8510   -4.3579    0.5006 C.ar      1 ATP         0.6144
     27 N6         -4.8468   -4.5293   -0.2961 N.2       1 ATP        -0.8160
     28 N1         -3.2499   -5.2342    1.3937 N.pl3     1 ATP        -0.8611
     29 C2         -2.1646   -4.9275    2.2116 C.ar      1 ATP         0.6141
     30 N3         -1.5382   -3.7840    2.2778 N.2       1 ATP        -0.5913
     31 C4         -2.1054   -2.9018    1.4120 C.ar      1 ATP         0.0067
     32 HOG3       -3.3875    3.4798   -1.6816 H         1 ATP         0.4313
     33 HOB2        0.5078    6.8113   -0.5698 H         1 ATP         0.4716
     34 H5'1       -1.7770    2.7851    2.1387 H         1 ATP         0.0452
     35 H5'2       -1.1653    2.0543    0.6320 H         1 ATP         0.0452
     36 H4'         0.0403    1.7078    3.4343 H         1 ATP         0.0998
     37 H3'         1.5906    1.4859    1.1353 H         1 ATP         0.0544
     38 HO3'        2.1521    0.9800    3.3017 H         1 ATP         0.3961
     39 H2'        -0.0017    0.0018    0.0005 H         1 ATP         0.0499
     40 HO2'        0.9369   -2.0558    0.0825 H         1 ATP         0.4045
     41 H1'        -0.1998   -1.6319    2.6178 H         1 ATP         0.0912
     42 H8         -2.4515   -0.0599   -0.0829 H         1 ATP         0.1090
     43 HN62       -5.1990   -5.4882   -0.2004 H         1 ATP         0.3694
     44 H2         -1.8555   -5.7783    2.8388 H         1 ATP         0.0371
     45 H45        -3.6312   -6.1750    1.4526 H         1 ATP         0.4283
@<TRIPOS>BOND
     1    1    2 2
     2    1    3 1
     3    1    4 1
     4    1    8 1
     5    4   32 1
     6    5    6 2
     7    5    7 1
     8    5    8 1
     9    5   12 1
    10    7   33 1
    11    9   10 2
    12    9   11 1
    13    9   12 1
    14    9   13 1
    15   13   14 1
    16   14   15 1
    17   14   34 1
    18   14   35 1
    19   15   16 1
    20   15   17 1
    21   15   36 1
    22   16   21 1
    23   17   18 1
    24   17   19 1
    25   17   37 1
    26   18   38 1
    27   19   20 1
    28   19   21 1
    29   19   39 1
    30   20   40 1
    31   21   22 1
    32   21   41 1
    33   22   23 ar
    34   22   31 ar
    35   23   24 ar
    36   23   42 1
    37   24   25 ar
    38   25   26 ar
    39   25   31 ar
    40   26   27 2
    41   26   28 ar
    42   27   43 1
    43   28   29 ar
    44   28   45 1
    45   29   30 ar
    46   29   44 1
    47   30   31 ar
@<TRIPOS>SUBSTRUCTURE
     1 ATP         1 GROUP 0 A     ****
@<TRIPOS>MOLECULE
[[[3,4-dihydroxy-5-(6-imino-1~{H}-purin-9-yl)tetrahydrofuran-2-yl]methoxy-oxido-phosphoryl]oxy-hydroxy-phosphoryl] hydrogen phosphate
   45    47     1     0     0
SMALL
USER_CHARGES

@<TRIPOS>ATOM
      1 PG         -4.3134    8.2940    0.0283 P.3       1 ATP         1.5496
      2 O1G        -5.6599    8.0167   -0.6025 O.co2     1 ATP        -0.8494
      3 O2G        -3.2885    9.1555   -0.6752 O.co2     1 ATP        -0.8494
      4 O3G        -4.5571    8.8969    1.5261 O.3       1 ATP        -0.7845
      5 PB         -3.0713    5.6677   -0.4792 P.3       1 ATP         1.9068
      6 O1B        -4.0936    5.0249   -1.3692 O.2       1 ATP        -0.8942
      7 O2B        -1.8059    6.3178   -1.2471 O.3       1 ATP        -0.8166
      8 O3B        -3.6221    6.8760    0.4424 O.3       1 ATP        -0.8194
      9 PA         -3.0798    3.8626    1.8537 P.3       1 ATP         1.5903
     10 O1A        -3.9734    2.7896    1.2704 O.co2     1 ATP        -0.8519
     11 O2A        -3.6164    4.8487    2.8682 O.co2     1 ATP        -0.8519
     12 O3A        -2.4006    4.7043    0.6305 O.3       1 ATP        -0.8093
     13 O5'        -1.7337    3.1724    2.4752 O.3       1 ATP        -0.5649
     14 C5'        -0.8811    2.4285    1.6206 C.3       1 ATP         0.1979
     15 C4'        -0.1994    1.3333    2.4288 C.3       1 ATP         0.1179
     16 O4'        -1.1285    0.2356    2.5840 O.3       1 ATP        -0.3878
     17 C3'         1.0324    0.7610    1.7344 C.3       1 ATP         0.1185
     18 O3'         1.9175    0.2377    2.7247 O.3       1 ATP        -0.5544
     19 C2'         0.4468   -0.3802    0.9263 C.3       1 ATP         0.0542
     20 O2'         1.3993   -1.3703    0.5961 O.3       1 ATP        -0.5831
     21 C1'        -0.6159   -0.9100    1.8769 C.3       1 ATP         0.2222
     22 N9         -1.7127   -1.6108    1.2130 N.pl3     1 ATP        -0.1887
     23 C8         -2.0868   -2.9137    1.4327 C.ar      1 ATP         0.4447
     24 N7         -3.1125   -3.2756    0.6878 N.2       1 ATP        -0.6159
     25 C5         -3.4079   -2.1580   -0.0391 C.ar      1 ATP         0.2195
     26 C6         -4.4483   -1.9775   -1.0249 C.ar      1 ATP         0.6144
     27 N6         -5.2418   -2.9492   -1.3113 N.2       1 ATP        -0.8160
     28 N1         -4.3937   -0.6823   -1.5211 N.pl3     1 ATP        -0.8611
     29 C2         -3.4770    0.2901   -1.1271 C.ar      1 ATP         0.6141
     30 N3         -2.5289    0.1525   -0.2403 N.2       1 ATP        -0.5913
     31 C4         -2.5564   -1.1096    0.2655 C.ar      1 ATP         0.0067
     32 HOG3       -3.7737    9.1294    2.0688 H         1 ATP         0.4313
     33 HOB2       -1.9631    7.0332   -1.8996 H         1 ATP         0.4716
     34 H5'1       -1.4801    1.9928    0.8147 H         1 ATP         0.0452
     35 H5'2       -0.1369    3.1041    1.1872 H         1 ATP         0.0452
     36 H4'         0.0403    1.7078    3.4343 H         1 ATP         0.0998
     37 H3'         1.5906    1.4859    1.1353 H         1 ATP         0.0544
     38 HO3'        2.6839   -0.1150    2.2479 H         1 ATP         0.3961
     39 H2'        -0.0017    0.0018    0.0005 H         1 ATP         0.0499
     40 HO2'        2.0953   -0.9375    0.0709 H         1 ATP         0.4045
     41 H1'        -0.1998   -1.6319    2.6178 H         1 ATP         0.0912
     42 H8         -1.5740   -3.5449    2.1457 H         1 ATP         0.1090
     43 HN62       -5.9117   -2.6433   -2.0256 H         1 ATP         0.3694
     44 H2         -3.6225    1.2454   -1.6553 H         1 ATP         0.0371
     45 H45        -5.0794   -0.4231   -2.2258 H         1 ATP         0.4283
@<TRIPOS>BOND
     1    1    2 2
     2    1    3 1
     3    1    4 1
     4    1    8 1
     5    4   32 1
     6    5    6 2
     7    5    7 1
     8    5    8 1
     9    5   12 1
    10    7   33 1
    11    9   10 2
    12    9   11 1
    13    9   12 1
    14    9   13 1
    15   13   14 1
    16   14   15 1
    17   14   34 1
    18   14   35 1
    19   15   16 1
    20   15   17 1
    21   15   36 1
    22   16   21 1
    23   17   18 1
    24   17   19 1
    25   17   37 1
    26   18   38 1
    27   19   20 1
    28   19   21 1
    29   19   39 1
    30   20   40 1
    31   21   22 1
    32   21   41 1
    33   22   23 ar
    34   22   31 ar
    35   23   24 ar
    36   23   42 1
    37   24   25 ar
    38   25   26 ar
    39   25   31 ar
    40   26   27 2
    41   26   28 ar
    42   27   43 1
    43   28   29 ar
    44   28   45 1
    45   29   30 ar
    46   29   44 1
    47   30   31 ar
@<TRIPOS>SUBSTRUCTURE
     1 ATP         1 GROUP 0 A     ****
@<TRIPOS>MOLECULE
[[[3,4-dihydroxy-5-(6-imino-1~{H}-purin-9-yl)tetrahydrofuran-2-yl]methoxy-oxido-phosphoryl]oxy-hydroxy-phosphoryl] hydrogen phosphate
   45    47     1     0     0
SMALL
USER_CHARGES

@<TRIPOS>ATOM
      1 PG         -4.5649    5.1675   -3.1390 P.3       1 ATP         1.5496
      2 O1G        -5.9192    5.7564   -2.8121 O.co2     1 ATP        -0.8494
      3 O2G        -4.4250    4.0605   -4.1600 O.co2     1 ATP        -0.8494
      4 O3G        -3.5568    6.3839   -3.5518 O.3       1 ATP        -0.7845
      5 PB         -3.5540    5.5326   -0.3926 P.3       1 ATP         1.9068
      6 O1B        -2.6951    6.7519   -0.5540 O.2       1 ATP        -0.8942
      7 O2B        -5.0300    5.8084    0.2065 O.3       1 ATP        -0.8166
      8 O3B        -3.8407    4.7067   -1.7522 O.3       1 ATP        -0.8194
      9 PA         -2.5400    4.4094    2.1394 P.3       1 ATP         1.5903
     10 O1A        -3.7863    4.6329    2.9681 O.co2     1 ATP        -0.8519
     11 O2A        -1.3369    5.3143    2.2925 O.co2     1 ATP        -0.8519
     12 O3A        -2.9567    4.3737    0.5611 O.3       1 ATP        -0.8093
     13 O5'        -2.0402    2.8619    2.3130 O.3       1 ATP        -0.5649
     14 C5'        -0.8811    2.4285    1.6206 C.3       1 ATP         0.1979
     15 C4'        -0.1994    1.3333    2.4288 C.3       1 ATP         0.1179
     16 O4'        -1.1285    0.2356    2.5840 O.3       1 ATP        -0.3878
     17 C3'         1.0324    0.7610    1.7344 C.3       1 ATP         0.1185
     18 O3'         1.9175    0.2377    2.7247 O.3       1 ATP        -0.5544
     19 C2'         0.4468   -0.3802    0.9263 C.3       1 ATP         0.0542
     20 O2'         1.3993   -1.3703    0.5961 O.3       1 ATP        -0.5831
     21 C1'        -0.6159   -0.9100    1.8769 C.3       1 ATP         0.2222
     22 N9         -1.7127   -1.6108    1.2130 N.pl3     1 ATP        -0.1887
     23 C8         -1.7690   -2.9583    0.9549 C.ar      1 ATP         0.4447
     24 N7         -2.8827   -3.3076    0.3418 N.2       1 ATP        -0.6159
     25 C5         -3.5683   -2.1351    0.2017 C.ar      1 ATP         0.2195
     26 C6         -4.8617   -1.9185   -0.4044 C.ar      1 ATP         0.6144
     27 N6         -5.5166   -2.9094   -0.8994 N.2       1 ATP        -0.8160
     28 N1         -5.1836   -0.5701   -0.3344 N.pl3     1 ATP        -0.8611
     29 C2         -4.3821    0.4180    0.2330 C.ar      1 ATP         0.6141
     30 N3         -3.2117    0.2488    0.7860 N.2       1 ATP        -0.5913
     31 C4         -2.8672   -1.0657    0.7327 C.ar      1 ATP         0.0067
     32 HOG3       -3.3824    7.0894   -2.8931 H         1 ATP         0.4313
     33 HOB2       -5.6376    6.4024   -0.2834 H         1 ATP         0.4716
     34 H5'1       -1.1769    2.0503    0.6369 H         1 ATP         0.0452
     35 H5'2       -0.2081    3.2815    1.4877 H         1 ATP         0.0452
     36 H4'         0.0403    1.7078    3.4343 H         1 ATP         0.0998
     37 H3'         1.5906    1.4859    1.1353 H         1 ATP         0.0544
     38 HO3'        2.6839   -0.1150    2.2479 H         1 ATP         0.3961
     39 H2'        -0.0017    0.0018    0.0005 H         1 ATP         0.0499
     40 HO2'        0.9369   -2.0558    0.0825 H         1 ATP         0.4045
     41 H1'        -0.1998   -1.6319    2.6178 H         1 ATP         0.0912
     42 H8         -0.9697   -3.6300    1.2371 H         1 ATP         0.1090
     43 HN62       -6.4060   -2.5723   -1.2840 H         1 ATP         0.3694
     44 H2         -4.8409    1.4176    0.1757 H         1 ATP         0.0371
     45 H45        -6.0768   -0.2826   -0.7263 H         1 ATP         0.4283
@<TRIPOS>BOND
     1    1    2 2
     2    1    3 1
     3    1    4 1
     4    1    8 1
     5    4   32 1
     6    5    6 2
     7    5    7 1
     8    5    8 1
     9    5   12 1
    10    7   33 1
    11    9   10 2
    12    9   11 1
    13    9   12 1
    14    9   13 1
    15   13   14 1
    16   14   15 1
    17   14   34 1
    18   14   35 1
    19   15   16 1
    20   15   17 1
    21   15   36 1
    22   16   21 1
    23   17   18 1
    24   17   19 1
    25   17   37 1
    26   18   38 1
    27   19   20 1
    28   19   21 1
    29   19   39 1
    30   20   40 1
    31   21   22 1
    32   21   41 1
    33   22   23 ar
    34   22   31 ar
    35   23   24 ar
    36   23   42 1
    37   24   25 ar
    38   25   26 ar
    39   25   31 ar
    40   26   27 2
    41   26   28 ar
    42   27   43 1
    43   28   29 ar
    44   28   45 1
    45   29   30 ar
    46   29   44 1
    47   30   31 ar
@<TRIPOS>SUBSTRUCTURE
     1 ATP         1 GROUP 0 A     ****
@<TRIPOS>MOLECULE
[[[3,4-dihydroxy-5-(6-imino-1~{H}-purin-9-yl)tetrahydrofuran-2-yl]methoxy-oxido-phosphoryl]oxy-hydroxy-phosphoryl] hydrogen phosphate
   45    47     1     0     0
SMALL
USER_CHARGES

@<TRIPOS>ATOM
      1 PG         -1.5202    7.3478   -2.2719 P.3       1 ATP         1.5496
      2 O1G        -2.1886    8.6588   -1.9224 O.co2     1 ATP        -0.8494
      3 O2G        -1.7980    6.6613   -3.5906 O.co2     1 ATP        -0.8494
      4 O3G         0.0946    7.5308   -2.1129 O.3       1 ATP        -0.7845
      5 PB         -3.1303    5.5883   -0.5371 P.3       1 ATP         1.9068
      6 O1B        -4.1952    6.5335   -0.0651 O.2       1 ATP        -0.8942
      7 O2B        -3.5611    4.6281   -1.7643 O.3       1 ATP        -0.8166
      8 O3B        -1.7692    6.2878   -1.0576 O.3       1 ATP        -0.8194
      9 PA         -3.3161    3.4232    1.4577 P.3       1 ATP         1.5903
     10 O1A        -3.8157    2.3394    0.5273 O.co2     1 ATP        -0.8519
     11 O2A        -4.2602    4.1149    2.4168 O.co2     1 ATP        -0.8519
     12 O3A        -2.5554    4.5662    0.5739 O.3       1 ATP        -0.8093
     13 O5'        -2.0402    2.8619    2.3130 O.3       1 ATP        -0.5649
     14 C5'        -0.8811    2.4285    1.6206 C.3       1 ATP         0.1979
     15 C4'        -0.1994    1.3333    2.4288 C.3       1 ATP         0.1179
     16 O4'        -1.1285    0.2356    2.5840 O.3       1 ATP        -0.3878
     17 C3'         1.0324    0.7610    1.7344 C.3       1 ATP         0.1185
     18 O3'         1.9175    0.2377    2.7247 O.3       1 ATP        -0.5544
     19 C2'         0.4468   -0.3802    0.9263 C.3       1 ATP         0.0542
     20 O2'         1.3993   -1.3703    0.5961 O.3       1 ATP        -0.5831
     21 C1'        -0.6159   -0.9100    1.8769 C.3       1 ATP         0.2222
     22 N9         -1.7127   -1.6108    1.2130 N.pl3     1 ATP        -0.1887
     23 C8         -3.0370   -1.2489    1.2455 C.ar      1 ATP         0.4447
     24 N7         -3.8008   -2.0709    0.5534 N.2       1 ATP        -0.6159
     25 C5         -2.9295   -2.9976    0.0567 C.ar      1 ATP         0.2195
     26 C6         -3.2152   -4.1411   -0.7786 C.ar      1 ATP         0.6144
     27 N6         -4.4238   -4.3865   -1.1456 N.2       1 ATP        -0.8160
     28 N1         -2.0349   -4.8186   -1.0521 N.pl3     1 ATP        -0.8611
     29 C2         -0.7728   -4.4501   -0.5916 C.ar      1 ATP         0.6141
     30 N3         -0.4885   -3.4234    0.1630 N.2       1 ATP        -0.5913
     31 C4         -1.6274   -2.7377    0.4492 C.ar      1 ATP         0.0067
     32 HOG3        0.6727    6.7622   -2.3058 H         1 ATP         0.4313
     33 HOB2       -3.8383    5.0368   -2.6119 H         1 ATP         0.4716
     34 H5'1       -1.1769    2.0503    0.6369 H         1 ATP         0.0452
     35 H5'2       -0.2081    3.2815    1.4877 H         1 ATP         0.0452
     36 H4'         0.0403    1.7078    3.4343 H         1 ATP         0.0998
     37 H3'         1.5906    1.4859    1.1353 H         1 ATP         0.0544
     38 HO3'        2.1521    0.9800    3.3017 H         1 ATP         0.3961
     39 H2'        -0.0017    0.0018    0.0005 H         1 ATP         0.0499
     40 HO2'        2.0953   -0.9375    0.0709 H         1 ATP         0.4045
     41 H1'        -0.1998   -1.6319    2.6178 H         1 ATP         0.0912
     42 H8         -3.3806   -0.3795    1.7893 H         1 ATP         0.1090
     43 HN62       -4.4384   -5.2300   -1.7295 H         1 ATP         0.3694
     44 H2          0.0180   -5.1355   -0.9348 H         1 ATP         0.0371
     45 H45        -2.0977   -5.6477   -1.6374 H         1 ATP         0.4283
@<TRIPOS>BOND
     1    1    2 2
     2    1    3 1
     3    1    4 1
     4    1    8 1
     5    4   32 1
     6    5    6 2
     7    5    7 1
     8    5    8 1
     9    5   12 1
    10    7   33 1
    11    9   10 2
    12    9   11 1
    13    9   12 1
    14    9   13 1
    15   13   14 1
    16   14   15 1
    17   14   34 1
    18   14   35 1
    19   15   16 1
    20   15   17 1
    21   15   36 1
    22   16   21 1
    23   17   18 1
    24   17   19 1
    25   17   37 1
    26   18   38 1
    27   19   20 1
    28   19   21 1
    29   19   39 1
    30   20   40 1
    31   21   22 1
    32   21   41 1
    33   22   23 ar
    34   22   31 ar
    35   23   24 ar
    36   23   42 1
    37   24   25 ar
    38   25   26 ar
    39   25   31 ar
    40   26   27 2
    41   26   28 ar
    42   27   43 1
    43   28   29 ar
    44   28   45 1
    45   29   30 ar
    46   29   44 1
    47   30   31 ar
@<TRIPOS>SUBSTRUCTURE
     1 ATP         1 GROUP 0 A     ****
@<TRIPOS>MOLECULE
[[[3,4-dihydroxy-5-(6-imino-1~{H}-purin-9-yl)tetrahydrofuran-2-yl]methoxy-oxido-phosphoryl]oxy-hydroxy-phosphoryl] hydrogen phosphate
   45    47     1     0     0
SMALL
USER_CHARGES

@<TRIPOS>ATOM
      1 PG          3.6862   -3.5808    0.1347 P.3       1 ATP         1.5496
      2 O1G         2.9418   -4.4076   -0.8900 O.co2     1 ATP        -0.8494
      3 O2G         2.9827   -2.4927    0.9147 O.co2     1 ATP        -0.8494
      4 O3G         4.4074   -4.5938    1.1930 O.3       1 ATP        -0.7845
      5 PB          6.2538   -2.1307    0.0845 P.3       1 ATP         1.9068
      6 O1B         7.0228   -2.8553    1.1493 O.2       1 ATP        -0.8942
      7 O2B         7.1241   -1.6753   -1.1995 O.3       1 ATP        -0.8166
      8 O3B         5.0235   -2.9573   -0.5604 O.3       1 ATP        -0.8194
      9 PA          6.1201    0.6015    1.1882 P.3       1 ATP         1.5903
     10 O1A         6.9864    1.2777    0.1479 O.co2     1 ATP        -0.8519
     11 O2A         6.6660    0.2886    2.5644 O.co2     1 ATP        -0.8519
     12 O3A         5.5121   -0.7744    0.5532 O.3       1 ATP        -0.8093
     13 O5'         4.7294    1.4426    1.3698 O.3       1 ATP        -0.5649
     14 C5'         4.0922    1.9801    0.2227 C.3       1 ATP         0.1979
     15 C4'         2.5944    2.0310    0.4653 C.3       1 ATP         0.1179
     16 O4'         1.9327    2.5740   -0.6889 O.3       1 ATP        -0.3878
     17 C3'         1.9685    0.6634    0.6767 C.3       1 ATP         0.1185
     18 O3'         2.1425    0.1975    1.9977 O.3       1 ATP        -0.5544
     19 C2'         0.5176    0.9128    0.3099 C.3       1 ATP         0.0542
     20 O2'        -0.2103    1.4454    1.4152 O.3       1 ATP        -0.5831
     21 C1'         0.6219    1.9765   -0.7844 C.3       1 ATP         0.2222
     22 N9          0.4237    1.4496   -2.1357 N.pl3     1 ATP        -0.1887
     23 C8          1.4069    0.9710   -2.9662 C.ar      1 ATP         0.4447
     24 N7          0.9316    0.5623   -4.1260 N.2       1 ATP        -0.6159
     25 C5         -0.4120    0.7884   -4.0344 C.ar      1 ATP         0.2195
     26 C6         -1.4353    0.5283   -5.0204 C.ar      1 ATP         0.6144
     27 N6         -1.1199    0.0176   -6.1586 N.2       1 ATP        -0.8160
     28 N1         -2.6704    0.9095   -4.5147 N.pl3     1 ATP        -0.8611
     29 C2         -2.8863    1.4571   -3.2520 C.ar      1 ATP         0.6141
     30 N3         -1.9805    1.7017   -2.3442 N.2       1 ATP        -0.5913
     31 C4         -0.7561    1.3381   -2.8112 C.ar      1 ATP         0.0067
     32 HOG3        4.9338   -4.2070    1.9247 H         1 ATP         0.4313
     33 HOB2        7.8815   -1.0659   -1.0675 H         1 ATP         0.4716
     34 H5'1        4.4844    2.9853    0.0382 H         1 ATP         0.0452
     35 H5'2        4.3192    1.3445   -0.6391 H         1 ATP         0.0452
     36 H4'         2.3751    2.7029    1.3156 H         1 ATP         0.0998
     37 H3'         2.4336   -0.1217   -0.0015 H         1 ATP         0.0544
     38 HO3'        3.0987    0.1465    2.1461 H         1 ATP         0.3961
     39 H2'         0.0316    0.0155   -0.0339 H         1 ATP         0.0499
     40 HO2'       -1.1270    1.5823    1.1180 H         1 ATP         0.4045
     41 H1'        -0.1474    2.7798   -0.6651 H         1 ATP         0.0912
     42 H8          2.4466    0.9468   -2.6694 H         1 ATP         0.1090
     43 HN62       -1.9661   -0.0965   -6.7275 H         1 ATP         0.3694
     44 H2         -3.9481    1.6825   -3.0660 H         1 ATP         0.0371
     45 H45        -3.4814    0.7753   -5.1133 H         1 ATP         0.4283
@<TRIPOS>BOND
     1    1    2 2
     2    1    3 1
     3    1    4 1
     4    1    8 1
     5    4   32 1
     6    5    6 2
     7    5    7 1
     8    5    8 1
     9    5   12 1
    10    7   33 1
    11    9   10 2
    12    9   11 1
    13    9   12 1
    14    9   13 1
    15   13   14 1
    16   14   15 1
    17   14   34 1
    18   14   35 1
    19   15   16 1
    20   15   17 1
    21   15   36 1
    22   16   21 1
    23   17   18 1
    24   17   19 1
    25   17   37 1
    26   18   38 1
    27   19   20 1
    28   19   21 1
    29   19   39 1
    30   20   40 1
    31   21   22 1
    32   21   41 1
    33   22   23 ar
    34   22   31 ar
    35   23   24 ar
    36   23   42 1
    37   24   25 ar
    38   25   26 ar
    39   25   31 ar
    40   26   27 2
    41   26   28 ar
    42   27   43 1
    43   28   29 ar
    44   28   45 1
    45   29   30 ar
    46   29   44 1
    47   30   31 ar
@<TRIPOS>SUBSTRUCTURE
     1 ATP         1 GROUP 0 A     ****
@<TRIPOS>MOLECULE
[[[3,4-dihydroxy-5-(6-imino-1~{H}-purin-9-yl)tetrahydrofuran-2-yl]methoxy-oxido-phosphoryl]oxy-hydroxy-phosphoryl] hydrogen phosphate
   45    47     1     0     0
SMALL
USER_CHARGES

@<TRIPOS>ATOM
      1 PG         -4.0095    6.3787   -2.6614 P.3       1 ATP         1.5496
      2 O1G        -4.3493    5.5349   -3.8699 O.co2     1 ATP        -0.8494
      3 O2G        -3.5337    7.8056   -2.8191 O.co2     1 ATP        -0.8494
      4 O3G        -5.2879    6.3677   -1.6457 O.3       1 ATP        -0.7845
      5 PB         -1.4126    5.1413   -2.0113 P.3       1 ATP         1.9068
      6 O1B        -1.2011    4.2555   -3.2034 O.2       1 ATP        -0.8942
      7 O2B        -0.6291    6.5546   -2.0601 O.3       1 ATP        -0.8166
      8 O3B        -2.9473    5.5636   -1.7301 O.3       1 ATP        -0.8194
      9 PA          0.4529    3.9703   -0.0492 P.3       1 ATP         1.5903
     10 O1A         1.4112    5.1385    0.0342 O.co2     1 ATP        -0.8519
     11 O2A         0.8147    2.7278   -0.8334 O.co2     1 ATP        -0.8519
     12 O3A        -0.9915    4.5116   -0.5846 O.3       1 ATP        -0.8093
     13 O5'         0.0180    3.5131    1.4595 O.3       1 ATP        -0.5649
     14 C5'        -0.8811    2.4285    1.6206 C.3       1 ATP         0.1979
     15 C4'        -0.1994    1.3333    2.4288 C.3       1 ATP         0.1179
     16 O4'        -1.1285    0.2356    2.5840 O.3       1 ATP        -0.3878
     17 C3'         1.0324    0.7610    1.7344 C.3       1 ATP         0.1185
     18 O3'         1.9175    0.2377    2.7247 O.3       1 ATP        -0.5544
     19 C2'         0.4468   -0.3802    0.9263 C.3       1 ATP         0.0542
     20 O2'         1.3993   -1.3703    0.5961 O.3       1 ATP        -0.5831
     21 C1'        -0.6159   -0.9100    1.8769 C.3       1 ATP         0.2222
     22 N9         -1.7127   -1.6108    1.2130 N.pl3     1 ATP        -0.1887
     23 C8         -2.8662   -1.0361    0.7388 C.ar      1 ATP         0.4447
     24 N7         -3.6774   -1.9166    0.1867 N.2       1 ATP        -0.6159
     25 C5         -3.0159   -3.1045    0.3123 C.ar      1 ATP         0.2195
     26 C6         -3.4377   -4.4169   -0.1199 C.ar      1 ATP         0.6144
     27 N6         -4.5720   -4.5691   -0.7080 N.2       1 ATP        -0.8160
     28 N1         -2.4600   -5.3463    0.2071 N.pl3     1 ATP        -0.8611
     29 C2         -1.2595   -5.0554    0.8515 C.ar      1 ATP         0.6141
     30 N3         -0.8555   -3.8803    1.2516 N.2       1 ATP        -0.5913
     31 C4         -1.7946   -2.9457    0.9448 C.ar      1 ATP         0.0067
     32 HOG3       -5.2229    6.8740   -0.8081 H         1 ATP         0.4313
     33 HOB2        0.3499    6.5526   -2.1210 H         1 ATP         0.4716
     34 H5'1       -1.7770    2.7851    2.1387 H         1 ATP         0.0452
     35 H5'2       -1.1653    2.0543    0.6320 H         1 ATP         0.0452
     36 H4'         0.0403    1.7078    3.4343 H         1 ATP         0.0998
     37 H3'         1.5906    1.4859    1.1353 H         1 ATP         0.0544
     38 HO3'        2.6839   -0.1150    2.2479 H         1 ATP         0.3961
     39 H2'        -0.0017    0.0018    0.0005 H         1 ATP         0.0499
     40 HO2'        2.0953   -0.9375    0.0709 H         1 ATP         0.4045
     41 H1'        -0.1998   -1.6319    2.6178 H         1 ATP         0.0912
     42 H8         -3.0558    0.0252    0.8256 H         1 ATP         0.1090
     43 HN62       -4.7047   -5.5592   -0.9421 H         1 ATP         0.3694
     44 H2         -0.6372   -5.9505    1.0077 H         1 ATP         0.0371
     45 H45        -2.6338   -6.3155   -0.0469 H         1 ATP         0.4283
@<TRIPOS>BOND
     1    1    2 2
     2    1    3 1
     3    1    4 1
     4    1    8 1
     5    4   32 1
     6    5    6 2
     7    5    7 1
     8    5    8 1
     9    5   12 1
    10    7   33 1
    11    9   10 2
    12    9   11 1
    13    9   12 1
    14    9   13 1
    15   13   14 1
    16   14   15 1
    17   14   34 1
    18   14   35 1
    19   15   16 1
    20   15   17 1
    21   15   36 1
    22   16   21 1
    23   17   18 1
    24   17   19 1
    25   17   37 1
    26   18   38 1
    27   19   20 1
    28   19   21 1
    29   19   39 1
    30   20   40 1
    31   21   22 1
    32   21   41 1
    33   22   23 ar
    34   22   31 ar
    35   23   24 ar
    36   23   42 1
    37   24   25 ar
    38   25   26 ar
    39   25   31 ar
    40   26   27 2
    41   26   28 ar
    42   27   43 1
    43   28   29 ar
    44   28   45 1
    45   29   30 ar
    46   29   44 1
    47   30   31 ar
@<TRIPOS>SUBSTRUCTURE
     1 ATP         1 GROUP 0 A     ****
@<TRIPOS>MOLECULE
[[[3,4-dihydroxy-5-(6-imino-1~{H}-purin-9-yl)tetrahydrofuran-2-yl]methoxy-oxido-phosphoryl]oxy-hydroxy-phosphoryl] hydrogen phosphate
   45    47     1     0     0
SMALL
USER_CHARGES

@<TRIPOS>ATOM
      1 PG          7.5857   -4.0783    1.8539 P.3       1 ATP         1.5496
      2 O1G         8.9379   -4.0897    1.1763 O.co2     1 ATP        -0.8494
      3 O2G         6.6177   -5.2268    1.6758 O.co2     1 ATP        -0.8494
      4 O3G         7.8091   -3.8318    3.4525 O.3       1 ATP        -0.7845
      5 PB          6.2538   -2.1307    0.0845 P.3       1 ATP         1.9068
      6 O1B         7.2751   -1.9734   -1.0030 O.2       1 ATP        -0.8942
      7 O2B         5.0390   -3.1413   -0.2572 O.3       1 ATP        -0.8166
      8 O3B         6.8256   -2.6813    1.4926 O.3       1 ATP        -0.8194
      9 PA          6.1201    0.6015    1.1882 P.3       1 ATP         1.5903
     10 O1A         6.9864    1.2777    0.1479 O.co2     1 ATP        -0.8519
     11 O2A         6.6660    0.2886    2.5644 O.co2     1 ATP        -0.8519
     12 O3A         5.5121   -0.7744    0.5532 O.3       1 ATP        -0.8093
     13 O5'         4.7294    1.4426    1.3698 O.3       1 ATP        -0.5649
     14 C5'         4.0922    1.9801    0.2227 C.3       1 ATP         0.1979
     15 C4'         2.5944    2.0310    0.4653 C.3       1 ATP         0.1179
     16 O4'         1.9327    2.5740   -0.6889 O.3       1 ATP        -0.3878
     17 C3'         1.9685    0.6634    0.6767 C.3       1 ATP         0.1185
     18 O3'         2.1425    0.1975    1.9977 O.3       1 ATP        -0.5544
     19 C2'         0.5176    0.9128    0.3099 C.3       1 ATP         0.0542
     20 O2'        -0.2103    1.4454    1.4152 O.3       1 ATP        -0.5831
     21 C1'         0.6219    1.9765   -0.7844 C.3       1 ATP         0.2222
     22 N9          0.4237    1.4496   -2.1357 N.pl3     1 ATP        -0.1887
     23 C8          1.4069    0.9710   -2.9662 C.ar      1 ATP         0.4447
     24 N7          0.9316    0.5623   -4.1260 N.2       1 ATP        -0.6159
     25 C5         -0.4120    0.7884   -4.0344 C.ar      1 ATP         0.2195
     26 C6         -1.4353    0.5283   -5.0204 C.ar      1 ATP         0.6144
     27 N6         -1.1199    0.0176   -6.1586 N.2       1 ATP        -0.8160
     28 N1         -2.6704    0.9095   -4.5147 N.pl3     1 ATP        -0.8611
     29 C2         -2.8863    1.4571   -3.2520 C.ar      1 ATP         0.6141
     30 N3         -1.9805    1.7017   -2.3442 N.2       1 ATP        -0.5913
     31 C4         -0.7561    1.3381   -2.8112 C.ar      1 ATP         0.0067
     32 HOG3        7.0201   -3.7982    4.0343 H         1 ATP         0.4313
     33 HOB2        5.2444   -4.0790   -0.4588 H         1 ATP         0.4716
     34 H5'1        4.4844    2.9853    0.0382 H         1 ATP         0.0452
     35 H5'2        4.3192    1.3445   -0.6391 H         1 ATP         0.0452
     36 H4'         2.3751    2.7029    1.3156 H         1 ATP         0.0998
     37 H3'         2.4336   -0.1217   -0.0015 H         1 ATP         0.0544
     38 HO3'        3.0987    0.1465    2.1461 H         1 ATP         0.3961
     39 H2'         0.0316    0.0155   -0.0339 H         1 ATP         0.0499
     40 HO2'       -1.1270    1.5823    1.1180 H         1 ATP         0.4045
     41 H1'        -0.1474    2.7798   -0.6651 H         1 ATP         0.0912
     42 H8          2.4466    0.9468   -2.6694 H         1 ATP         0.1090
     43 HN62       -1.9661   -0.0965   -6.7275 H         1 ATP         0.3694
     44 H2         -3.9481    1.6825   -3.0660 H         1 ATP         0.0371
     45 H45        -3.4814    0.7753   -5.1133 H         1 ATP         0.4283
@<TRIPOS>BOND
     1    1    2 2
     2    1    3 1
     3    1    4 1
     4    1    8 1
     5    4   32 1
     6    5    6 2
     7    5    7 1
     8    5    8 1
     9    5   12 1
    10    7   33 1
    11    9   10 2
    12    9   11 1
    13    9   12 1
    14    9   13 1
    15   13   14 1
    16   14   15 1
    17   14   34 1
    18   14   35 1
    19   15   16 1
    20   15   17 1
    21   15   36 1
    22   16   21 1
    23   17   18 1
    24   17   19 1
    25   17   37 1
    26   18   38 1
    27   19   20 1
    28   19   21 1
    29   19   39 1
    30   20   40 1
    31   21   22 1
    32   21   41 1
    33   22   23 ar
    34   22   31 ar
    35   23   24 ar
    36   23   42 1
    37   24   25 ar
    38   25   26 ar
    39   25   31 ar
    40   26   27 2
    41   26   28 ar
    42   27   43 1
    43   28   29 ar
    44   28   45 1
    45   29   30 ar
    46   29   44 1
    47   30   31 ar
@<TRIPOS>SUBSTRUCTURE
     1 ATP         1 GROUP 0 A     ****
@<TRIPOS>MOLECULE
[[[3,4-dihydroxy-5-(6-imino-1~{H}-purin-9-yl)tetrahydrofuran-2-yl]methoxy-oxido-phosphoryl]oxy-hydroxy-phosphoryl] hydrogen phosphate
   45    47     1     0     0
SMALL
USER_CHARGES

@<TRIPOS>ATOM
      1 PG          9.9264    5.7914    1.9567 P.3       1 ATP         1.5496
      2 O1G        11.1207    5.2844    1.1793 O.co2     1 ATP        -0.8494
      3 O2G         9.9703    5.9003    3.4645 O.co2     1 ATP        -0.8494
      4 O3G         9.4868    7.2400    1.3448 O.3       1 ATP        -0.7845
      5 PB          8.2497    3.3731    1.7608 P.3       1 ATP         1.9068
      6 O1B         9.2128    2.3944    1.1566 O.2       1 ATP        -0.8942
      7 O2B         8.0734    3.2604    3.3638 O.3       1 ATP        -0.8166
      8 O3B         8.6104    4.9308    1.5237 O.3       1 ATP        -0.8194
      9 PA          6.1592    3.5242   -0.3148 P.3       1 ATP         1.5903
     10 O1A         6.6758    2.4088   -1.1974 O.co2     1 ATP        -0.8519
     11 O2A         6.3637    4.9731   -0.7001 O.co2     1 ATP        -0.8519
     12 O3A         6.7372    3.3096    1.1971 O.3       1 ATP        -0.8093
     13 O5'         4.5669    3.2939   -0.0211 O.3       1 ATP        -0.5649
     14 C5'         4.0922    1.9801    0.2227 C.3       1 ATP         0.1979
     15 C4'         2.5944    2.0310    0.4653 C.3       1 ATP         0.1179
     16 O4'         1.9327    2.5740   -0.6889 O.3       1 ATP        -0.3878
     17 C3'         1.9685    0.6634    0.6767 C.3       1 ATP         0.1185
     18 O3'         2.1425    0.1975    1.9977 O.3       1 ATP        -0.5544
     19 C2'         0.5176    0.9128    0.3099 C.3       1 ATP         0.0542
     20 O2'        -0.2103    1.4454    1.4152 O.3       1 ATP        -0.5831
     21 C1'         0.6219    1.9765   -0.7844 C.3       1 ATP         0.2222
     22 N9          0.4237    1.4496   -2.1357 N.pl3     1 ATP        -0.1887
     23 C8          1.4069    0.9710   -2.9662 C.ar      1 ATP         0.4447
     24 N7          0.9316    0.5623   -4.1260 N.2       1 ATP        -0.6159
     25 C5         -0.4120    0.7884   -4.0344 C.ar      1 ATP         0.2195
     26 C6         -1.4353    0.5283   -5.0204 C.ar      1 ATP         0.6144
     27 N6         -1.1199    0.0176   -6.1586 N.2       1 ATP        -0.8160
     28 N1         -2.6704    0.9095   -4.5147 N.pl3     1 ATP        -0.8611
     29 C2         -2.8863    1.4571   -3.2520 C.ar      1 ATP         0.6141
     30 N3         -1.9805    1.7017   -2.3442 N.2       1 ATP        -0.5913
     31 C4         -0.7561    1.3381   -2.8112 C.ar      1 ATP         0.0067
     32 HOG3        8.7205    7.7028    1.7458 H         1 ATP         0.4313
     33 HOB2        8.8581    3.3906    3.9379 H         1 ATP         0.4716
     34 H5'1        4.3180    1.3550   -0.6470 H         1 ATP         0.0452
     35 H5'2        4.6084    1.5739    1.0983 H         1 ATP         0.0452
     36 H4'         2.3751    2.7029    1.3156 H         1 ATP         0.0998
     37 H3'         2.4336   -0.1217   -0.0015 H         1 ATP         0.0544
     38 HO3'        3.0987    0.1465    2.1461 H         1 ATP         0.3961
     39 H2'         0.0316    0.0155   -0.0339 H         1 ATP         0.0499
     40 HO2'       -0.1608    0.7921    2.1351 H         1 ATP         0.4045
     41 H1'        -0.1474    2.7798   -0.6651 H         1 ATP         0.0912
     42 H8          2.4466    0.9468   -2.6694 H         1 ATP         0.1090
     43 HN62       -1.9661   -0.0965   -6.7275 H         1 ATP         0.3694
     44 H2         -3.9481    1.6825   -3.0660 H         1 ATP         0.0371
     45 H45        -3.4814    0.7753   -5.1133 H         1 ATP         0.4283
@<TRIPOS>BOND
     1    1    2 2
     2    1    3 1
     3    1    4 1
     4    1    8 1
     5    4   32 1
     6    5    6 2
     7    5    7 1
     8    5    8 1
     9    5   12 1
    10    7   33 1
    11    9   10 2
    12    9   11 1
    13    9   12 1
    14    9   13 1
    15   13   14 1
    16   14   15 1
    17   14   34 1
    18   14   35 1
    19   15   16 1
    20   15   17 1
    21   15   36 1
    22   16   21 1
    23   17   18 1
    24   17   19 1
    25   17   37 1
    26   18   38 1
    27   19   20 1
    28   19   21 1
    29   19   39 1
    30   20   40 1
    31   21   22 1
    32   21   41 1
    33   22   23 ar
    34   22   31 ar
    35   23   24 ar
    36   23   42 1
    37   24   25 ar
    38   25   26 ar
    39   25   31 ar
    40   26   27 2
    41   26   28 ar
    42   27   43 1
    43   28   29 ar
    44   28   45 1
    45   29   30 ar
    46   29   44 1
    47   30   31 ar
@<TRIPOS>SUBSTRUCTURE
     1 ATP         1 GROUP 0 A     ****
@<TRIPOS>MOLECULE
[[[3,4-dihydroxy-5-(6-imino-1~{H}-purin-9-yl)tetrahydrofuran-2-yl]methoxy-oxido-phosphoryl]oxy-hydroxy-phosphoryl] hydrogen phosphate
   45    47     1     0     0
SMALL
USER_CHARGES

@<TRIPOS>ATOM
      1 PG         -3.7522    7.0526    0.4076 P.3       1 ATP         1.5496
      2 O1G        -3.1834    5.8996   -0.3891 O.co2     1 ATP        -0.8494
      3 O2G        -3.3926    8.4823    0.0701 O.co2     1 ATP        -0.8494
      4 O3G        -5.3794    6.9176    0.4251 O.3       1 ATP        -0.7845
      5 PB         -2.0756    6.7569    2.8157 P.3       1 ATP         1.9068
      6 O1B        -1.2769    8.0262    2.7769 O.2       1 ATP        -0.8942
      7 O2B        -2.5176    6.2702    4.2927 O.3       1 ATP        -0.8166
      8 O3B        -3.4658    6.7919    1.9919 O.3       1 ATP        -0.8194
      9 PA          0.0330    4.7082    2.5759 P.3       1 ATP         1.5903
     10 O1A        -0.1147    4.1095    3.9578 O.co2     1 ATP        -0.8519
     11 O2A         1.1818    5.6395    2.2553 O.co2     1 ATP        -0.8519
     12 O3A        -1.3612    5.4575    2.1750 O.3       1 ATP        -0.8093
     13 O5'         0.0180    3.5131    1.4595 O.3       1 ATP        -0.5649
     14 C5'        -0.8811    2.4285    1.6206 C.3       1 ATP         0.1979
     15 C4'        -0.1994    1.3333    2.4288 C.3       1 ATP         0.1179
     16 O4'        -1.1285    0.2356    2.5840 O.3       1 ATP        -0.3878
     17 C3'         1.0324    0.7610    1.7344 C.3       1 ATP         0.1185
     18 O3'         1.9175    0.2377    2.7247 O.3       1 ATP        -0.5544
     19 C2'         0.4468   -0.3802    0.9263 C.3       1 ATP         0.0542
     20 O2'         1.3993   -1.3703    0.5961 O.3       1 ATP        -0.5831
     21 C1'        -0.6159   -0.9100    1.8769 C.3       1 ATP         0.2222
     22 N9         -1.7127   -1.6108    1.2130 N.pl3     1 ATP        -0.1887
     23 C8         -1.7690   -2.9583    0.9549 C.ar      1 ATP         0.4447
     24 N7         -2.8827   -3.3076    0.3418 N.2       1 ATP        -0.6159
     25 C5         -3.5683   -2.1351    0.2017 C.ar      1 ATP         0.2195
     26 C6         -4.8617   -1.9185   -0.4044 C.ar      1 ATP         0.6144
     27 N6         -5.5166   -2.9094   -0.8994 N.2       1 ATP        -0.8160
     28 N1         -5.1836   -0.5701   -0.3344 N.pl3     1 ATP        -0.8611
     29 C2         -4.3821    0.4180    0.2330 C.ar      1 ATP         0.6141
     30 N3         -3.2117    0.2488    0.7860 N.2       1 ATP        -0.5913
     31 C4         -2.8672   -1.0657    0.7327 C.ar      1 ATP         0.0067
     32 HOG3       -5.8988    7.5965    0.9062 H         1 ATP         0.4313
     33 HOB2       -1.8217    6.0745    4.9558 H         1 ATP         0.4716
     34 H5'1       -1.7770    2.7851    2.1387 H         1 ATP         0.0452
     35 H5'2       -1.1653    2.0543    0.6320 H         1 ATP         0.0452
     36 H4'         0.0403    1.7078    3.4343 H         1 ATP         0.0998
     37 H3'         1.5906    1.4859    1.1353 H         1 ATP         0.0544
     38 HO3'        2.6839   -0.1150    2.2479 H         1 ATP         0.3961
     39 H2'        -0.0017    0.0018    0.0005 H         1 ATP         0.0499
     40 HO2'        2.0953   -0.9375    0.0709 H         1 ATP         0.4045
     41 H1'        -0.1998   -1.6319    2.6178 H         1 ATP         0.0912
     42 H8         -0.9697   -3.6300    1.2371 H         1 ATP         0.1090
     43 HN62       -6.4060   -2.5723   -1.2840 H         1 ATP         0.3694
     44 H2         -4.8409    1.4176    0.1757 H         1 ATP         0.0371
     45 H45        -6.0768   -0.2826   -0.7263 H         1 ATP         0.4283
@<TRIPOS>BOND
     1    1    2 2
     2    1    3 1
     3    1    4 1
     4    1    8 1
     5    4   32 1
     6    5    6 2
     7    5    7 1
     8    5    8 1
     9    5   12 1
    10    7   33 1
    11    9   10 2
    12    9   11 1
    13    9   12 1
    14    9   13 1
    15   13   14 1
    16   14   15 1
    17   14   34 1
    18   14   35 1
    19   15   16 1
    20   15   17 1
    21   15   36 1
    22   16   21 1
    23   17   18 1
    24   17   19 1
    25   17   37 1
    26   18   38 1
    27   19   20 1
    28   19   21 1
    29   19   39 1
    30   20   40 1
    31   21   22 1
    32   21   41 1
    33   22   23 ar
    34   22   31 ar
    35   23   24 ar
    36   23   42 1
    37   24   25 ar
    38   25   26 ar
    39   25   31 ar
    40   26   27 2
    41   26   28 ar
    42   27   43 1
    43   28   29 ar
    44   28   45 1
    45   29   30 ar
    46   29   44 1
    47   30   31 ar
@<TRIPOS>SUBSTRUCTURE
     1 ATP         1 GROUP 0 A     ****
@<TRIPOS>MOLECULE
[[[3,4-dihydroxy-5-(6-imino-1~{H}-purin-9-yl)tetrahydrofuran-2-yl]methoxy-oxido-phosphoryl]oxy-hydroxy-phosphoryl] hydrogen phosphate
   45    47     1     0     0
SMALL
USER_CHARGES

@<TRIPOS>ATOM
      1 PG          7.2926    5.0559   -5.3001 P.3       1 ATP         1.5496
      2 O1G         6.4700    5.0514   -6.5693 O.co2     1 ATP        -0.8494
      3 O2G         8.6799    4.4541   -5.2712 O.co2     1 ATP        -0.8494
      4 O3G         7.3809    6.5889   -4.7450 O.3       1 ATP        -0.7845
      5 PB          5.8709    2.8975   -3.8795 P.3       1 ATP         1.9068
      6 O1B         4.9659    2.3803   -4.9583 O.2       1 ATP        -0.8942
      7 O2B         7.2225    2.0407   -3.6497 O.3       1 ATP        -0.8166
      8 O3B         6.4064    4.4074   -4.0941 O.3       1 ATP        -0.8194
      9 PA          5.8654    3.5045   -0.9929 P.3       1 ATP         1.5903
     10 O1A         6.1808    4.9806   -1.1005 O.co2     1 ATP        -0.8519
     11 O2A         6.9315    2.5141   -0.5777 O.co2     1 ATP        -0.8519
     12 O3A         5.2192    2.9999   -2.4049 O.3       1 ATP        -0.8093
     13 O5'         4.5669    3.2939   -0.0211 O.3       1 ATP        -0.5649
     14 C5'         4.0922    1.9801    0.2227 C.3       1 ATP         0.1979
     15 C4'         2.5944    2.0310    0.4653 C.3       1 ATP         0.1179
     16 O4'         1.9327    2.5740   -0.6889 O.3       1 ATP        -0.3878
     17 C3'         1.9685    0.6634    0.6767 C.3       1 ATP         0.1185
     18 O3'         2.1425    0.1975    1.9977 O.3       1 ATP        -0.5544
     19 C2'         0.5176    0.9128    0.3099 C.3       1 ATP         0.0542
     20 O2'        -0.2103    1.4454    1.4152 O.3       1 ATP        -0.5831
     21 C1'         0.6219    1.9765   -0.7844 C.3       1 ATP         0.2222
     22 N9          0.4237    1.4496   -2.1357 N.pl3     1 ATP        -0.1887
     23 C8          1.4069    0.9710   -2.9662 C.ar      1 ATP         0.4447
     24 N7          0.9316    0.5623   -4.1260 N.2       1 ATP        -0.6159
     25 C5         -0.4120    0.7884   -4.0344 C.ar      1 ATP         0.2195
     26 C6         -1.4353    0.5283   -5.0204 C.ar      1 ATP         0.6144
     27 N6         -1.1199    0.0176   -6.1586 N.2       1 ATP        -0.8160
     28 N1         -2.6704    0.9095   -4.5147 N.pl3     1 ATP        -0.8611
     29 C2         -2.8863    1.4571   -3.2520 C.ar      1 ATP         0.6141
     30 N3         -1.9805    1.7017   -2.3442 N.2       1 ATP        -0.5913
     31 C4         -0.7561    1.3381   -2.8112 C.ar      1 ATP         0.0067
     32 HOG3        7.8853    6.7587   -3.9211 H         1 ATP         0.4313
     33 HOB2        7.1481    1.0962   -3.3954 H         1 ATP         0.4716
     34 H5'1        4.3180    1.3550   -0.6470 H         1 ATP         0.0452
     35 H5'2        4.6084    1.5739    1.0983 H         1 ATP         0.0452
     36 H4'         2.3751    2.7029    1.3156 H         1 ATP         0.0998
     37 H3'         2.4336   -0.1217   -0.0015 H         1 ATP         0.0544
     38 HO3'        3.0987    0.1465    2.1461 H         1 ATP         0.3961
     39 H2'         0.0316    0.0155   -0.0339 H         1 ATP         0.0499
     40 HO2'       -1.1270    1.5823    1.1180 H         1 ATP         0.4045
     41 H1'        -0.1474    2.7798   -0.6651 H         1 ATP         0.0912
     42 H8          2.4466    0.9468   -2.6694 H         1 ATP         0.1090
     43 HN62       -1.9661   -0.0965   -6.7275 H         1 ATP         0.3694
     44 H2         -3.9481    1.6825   -3.0660 H         1 ATP         0.0371
     45 H45        -3.4814    0.7753   -5.1133 H         1 ATP         0.4283
@<TRIPOS>BOND
     1    1    2 2
     2    1    3 1
     3    1    4 1
     4    1    8 1
     5    4   32 1
     6    5    6 2
     7    5    7 1
     8    5    8 1
     9    5   12 1
    10    7   33 1
    11    9   10 2
    12    9   11 1
    13    9   12 1
    14    9   13 1
    15   13   14 1
    16   14   15 1
    17   14   34 1
    18   14   35 1
    19   15   16 1
    20   15   17 1
    21   15   36 1
    22   16   21 1
    23   17   18 1
    24   17   19 1
    25   17   37 1
    26   18   38 1
    27   19   20 1
    28   19   21 1
    29   19   39 1
    30   20   40 1
    31   21   22 1
    32   21   41 1
    33   22   23 ar
    34   22   31 ar
    35   23   24 ar
    36   23   42 1
    37   24   25 ar
    38   25   26 ar
    39   25   31 ar
    40   26   27 2
    41   26   28 ar
    42   27   43 1
    43   28   29 ar
    44   28   45 1
    45   29   30 ar
    46   29   44 1
    47   30   31 ar
@<TRIPOS>SUBSTRUCTURE
     1 ATP         1 GROUP 0 A     ****
@<TRIPOS>MOLECULE
[[[3,4-dihydroxy-5-(6-imino-1~{H}-purin-9-yl)tetrahydrofuran-2-yl]methoxy-oxido-phosphoryl]oxy-hydroxy-phosphoryl] hydrogen phosphate
   45    47     1     0     0
SMALL
USER_CHARGES

@<TRIPOS>ATOM
      1 PG          7.5208    4.3132    5.1042 P.3       1 ATP         1.5496
      2 O1G         6.2013    4.4475    5.8312 O.co2     1 ATP        -0.8494
      3 O2G         8.4083    5.5165    4.8765 O.co2     1 ATP        -0.8494
      4 O3G         8.4014    3.1510    5.8390 O.3       1 ATP        -0.7845
      5 PB          6.4581    4.0532    2.3654 P.3       1 ATP         1.9068
      6 O1B         5.0050    4.3556    2.5827 O.2       1 ATP        -0.8942
      7 O2B         7.3404    5.2901    1.8128 O.3       1 ATP        -0.8166
      8 O3B         7.2643    3.5641    3.6783 O.3       1 ATP        -0.8194
      9 PA          6.3564    1.2770    1.3735 P.3       1 ATP         1.5903
     10 O1A         6.8004    0.6872    2.6945 O.co2     1 ATP        -0.8519
     11 O2A         6.7693    0.6402    0.0644 O.co2     1 ATP        -0.8519
     12 O3A         6.7793    2.8536    1.3323 O.3       1 ATP        -0.8093
     13 O5'         4.7294    1.4426    1.3698 O.3       1 ATP        -0.5649
     14 C5'         4.0922    1.9801    0.2227 C.3       1 ATP         0.1979
     15 C4'         2.5944    2.0310    0.4653 C.3       1 ATP         0.1179
     16 O4'         1.9327    2.5740   -0.6889 O.3       1 ATP        -0.3878
     17 C3'         1.9685    0.6634    0.6767 C.3       1 ATP         0.1185
     18 O3'         2.1425    0.1975    1.9977 O.3       1 ATP        -0.5544
     19 C2'         0.5176    0.9128    0.3099 C.3       1 ATP         0.0542
     20 O2'        -0.2103    1.4454    1.4152 O.3       1 ATP        -0.5831
     21 C1'         0.6219    1.9765   -0.7844 C.3       1 ATP         0.2222
     22 N9          0.4237    1.4496   -2.1357 N.pl3     1 ATP        -0.1887
     23 C8          1.4069    0.9710   -2.9662 C.ar      1 ATP         0.4447
     24 N7          0.9316    0.5623   -4.1260 N.2       1 ATP        -0.6159
     25 C5         -0.4120    0.7884   -4.0344 C.ar      1 ATP         0.2195
     26 C6         -1.4353    0.5283   -5.0204 C.ar      1 ATP         0.6144
     27 N6         -1.1199    0.0176   -6.1586 N.2       1 ATP        -0.8160
     28 N1         -2.6704    0.9095   -4.5147 N.pl3     1 ATP        -0.8611
     29 C2         -2.8863    1.4571   -3.2520 C.ar      1 ATP         0.6141
     30 N3         -1.9805    1.7017   -2.3442 N.2       1 ATP        -0.5913
     31 C4         -0.7561    1.3381   -2.8112 C.ar      1 ATP         0.0067
     32 HOG3        9.2911    2.9436    5.4817 H         1 ATP         0.4313
     33 HOB2        7.3974    6.1093    2.3494 H         1 ATP         0.4716
     34 H5'1        4.4844    2.9853    0.0382 H         1 ATP         0.0452
     35 H5'2        4.3192    1.3445   -0.6391 H         1 ATP         0.0452
     36 H4'         2.3751    2.7029    1.3156 H         1 ATP         0.0998
     37 H3'         2.4336   -0.1217   -0.0015 H         1 ATP         0.0544
     38 HO3'        3.0987    0.1465    2.1461 H         1 ATP         0.3961
     39 H2'         0.0316    0.0155   -0.0339 H         1 ATP         0.0499
     40 HO2'       -0.1608    0.7921    2.1351 H         1 ATP         0.4045
     41 H1'        -0.1474    2.7798   -0.6651 H         1 ATP         0.0912
     42 H8          2.4466    0.9468   -2.6694 H         1 ATP         0.1090
     43 HN62       -1.9661   -0.0965   -6.7275 H         1 ATP         0.3694
     44 H2         -3.9481    1.6825   -3.0660 H         1 ATP         0.0371
     45 H45        -3.4814    0.7753   -5.1133 H         1 ATP         0.4283
@<TRIPOS>BOND
     1    1    2 2
     2    1    3 1
     3    1    4 1
     4    1    8 1
     5    4   32 1
     6    5    6 2
     7    5    7 1
     8    5    8 1
     9    5   12 1
    10    7   33 1
    11    9   10 2
    12    9   11 1
    13    9   12 1
    14    9   13 1
    15   13   14 1
    16   14   15 1
    17   14   34 1
    18   14   35 1
    19   15   16 1
    20   15   17 1
    21   15   36 1
    22   16   21 1
    23   17   18 1
    24   17   19 1
    25   17   37 1
    26   18   38 1
    27   19   20 1
    28   19   21 1
    29   19   39 1
    30   20   40 1
    31   21   22 1
    32   21   41 1
    33   22   23 ar
    34   22   31 ar
    35   23   24 ar
    36   23   42 1
    37   24   25 ar
    38   25   26 ar
    39   25   31 ar
    40   26   27 2
    41   26   28 ar
    42   27   43 1
    43   28   29 ar
    44   28   45 1
    45   29   30 ar
    46   29   44 1
    47   30   31 ar
@<TRIPOS>SUBSTRUCTURE
     1 ATP         1 GROUP 0 A     ****
@<TRIPOS>MOLECULE
[[[3,4-dihydroxy-5-(6-imino-1~{H}-purin-9-yl)tetrahydrofuran-2-yl]methoxy-oxido-phosphoryl]oxy-hydroxy-phosphoryl] hydrogen phosphate
   45    47     1     0     0
SMALL
USER_CHARGES

@<TRIPOS>ATOM
      1 PG         -0.4472    1.0514    7.0070 P.3       1 ATP         1.5496
      2 O1G         0.6755    0.2605    7.6407 O.co2     1 ATP        -0.8494
      3 O2G        -1.2331    0.4893    5.8434 O.co2     1 ATP        -0.8494
      4 O3G        -1.4972    1.4903    8.1779 O.3       1 ATP        -0.7845
      5 PB         -0.6713    3.8305    6.0456 P.3       1 ATP         1.9068
      6 O1B        -1.7478    4.3670    6.9422 O.2       1 ATP        -0.8942
      7 O2B         0.5161    4.8722    5.7015 O.3       1 ATP        -0.8166
      8 O3B         0.1095    2.5314    6.6073 O.3       1 ATP        -0.8194
      9 PA         -1.9154    4.0917    3.3839 P.3       1 ATP         1.5903
     10 O1A        -0.9828    5.1481    2.8324 O.co2     1 ATP        -0.8519
     11 O2A        -3.3086    4.4564    3.8487 O.co2     1 ATP        -0.8519
     12 O3A        -1.1597    3.3045    4.5985 O.3       1 ATP        -0.8093
     13 O5'        -2.0402    2.8619    2.3130 O.3       1 ATP        -0.5649
     14 C5'        -0.8811    2.4285    1.6206 C.3       1 ATP         0.1979
     15 C4'        -0.1994    1.3333    2.4288 C.3       1 ATP         0.1179
     16 O4'        -1.1285    0.2356    2.5840 O.3       1 ATP        -0.3878
     17 C3'         1.0324    0.7610    1.7344 C.3       1 ATP         0.1185
     18 O3'         1.9175    0.2377    2.7247 O.3       1 ATP        -0.5544
     19 C2'         0.4468   -0.3802    0.9263 C.3       1 ATP         0.0542
     20 O2'         1.3993   -1.3703    0.5961 O.3       1 ATP        -0.5831
     21 C1'        -0.6159   -0.9100    1.8769 C.3       1 ATP         0.2222
     22 N9         -1.7127   -1.6108    1.2130 N.pl3     1 ATP        -0.1887
     23 C8         -1.7690   -2.9583    0.9549 C.ar      1 ATP         0.4447
     24 N7         -2.8827   -3.3076    0.3418 N.2       1 ATP        -0.6159
     25 C5         -3.5683   -2.1351    0.2017 C.ar      1 ATP         0.2195
     26 C6         -4.8617   -1.9185   -0.4044 C.ar      1 ATP         0.6144
     27 N6         -5.5166   -2.9094   -0.8994 N.2       1 ATP        -0.8160
     28 N1         -5.1836   -0.5701   -0.3344 N.pl3     1 ATP        -0.8611
     29 C2         -4.3821    0.4180    0.2330 C.ar      1 ATP         0.6141
     30 N3         -3.2117    0.2488    0.7860 N.2       1 ATP        -0.5913
     31 C4         -2.8672   -1.0657    0.7327 C.ar      1 ATP         0.0067
     32 HOG3       -2.2869    2.0139    7.9243 H         1 ATP         0.4313
     33 HOB2        0.2936    5.7118    5.2457 H         1 ATP         0.4716
     34 H5'1       -1.1769    2.0503    0.6369 H         1 ATP         0.0452
     35 H5'2       -0.2081    3.2815    1.4877 H         1 ATP         0.0452
     36 H4'         0.0403    1.7078    3.4343 H         1 ATP         0.0998
     37 H3'         1.5906    1.4859    1.1353 H         1 ATP         0.0544
     38 HO3'        2.6839   -0.1150    2.2479 H         1 ATP         0.3961
     39 H2'        -0.0017    0.0018    0.0005 H         1 ATP         0.0499
     40 HO2'        2.0953   -0.9375    0.0709 H         1 ATP         0.4045
     41 H1'        -0.1998   -1.6319    2.6178 H         1 ATP         0.0912
     42 H8         -0.9697   -3.6300    1.2371 H         1 ATP         0.1090
     43 HN62       -6.4060   -2.5723   -1.2840 H         1 ATP         0.3694
     44 H2         -4.8409    1.4176    0.1757 H         1 ATP         0.0371
     45 H45        -6.0768   -0.2826   -0.7263 H         1 ATP         0.4283
@<TRIPOS>BOND
     1    1    2 2
     2    1    3 1
     3    1    4 1
     4    1    8 1
     5    4   32 1
     6    5    6 2
     7    5    7 1
     8    5    8 1
     9    5   12 1
    10    7   33 1
    11    9   10 2
    12    9   11 1
    13    9   12 1
    14    9   13 1
    15   13   14 1
    16   14   15 1
    17   14   34 1
    18   14   35 1
    19   15   16 1
    20   15   17 1
    21   15   36 1
    22   16   21 1
    23   17   18 1
    24   17   19 1
    25   17   37 1
    26   18   38 1
    27   19   20 1
    28   19   21 1
    29   19   39 1
    30   20   40 1
    31   21   22 1
    32   21   41 1
    33   22   23 ar
    34   22   31 ar
    35   23   24 ar
    36   23   42 1
    37   24   25 ar
    38   25   26 ar
    39   25   31 ar
    40   26   27 2
    41   26   28 ar
    42   27   43 1
    43   28   29 ar
    44   28   45 1
    45   29   30 ar
    46   29   44 1
    47   30   31 ar
@<TRIPOS>SUBSTRUCTURE
     1 ATP         1 GROUP 0 A     ****
@<TRIPOS>MOLECULE
[[[3,4-dihydroxy-5-(6-imino-1~{H}-purin-9-yl)tetrahydrofuran-2-yl]methoxy-oxido-phosphoryl]oxy-hydroxy-phosphoryl] hydrogen phosphate
   45    47     1     0     0
SMALL
USER_CHARGES

@<TRIPOS>ATOM
      1 PG         -4.2585    4.6454   -1.4176 P.3       1 ATP         1.5496
      2 O1G        -4.0809    3.9800   -0.0710 O.co2     1 ATP        -0.8494
      3 O2G        -4.5956    3.8323   -2.6475 O.co2     1 ATP        -0.8494
      4 O3G        -5.3641    5.8372   -1.2650 O.3       1 ATP        -0.7845
      5 PB         -1.4126    5.1413   -2.0113 P.3       1 ATP         1.9068
      6 O1B        -1.2011    4.2555   -3.2034 O.2       1 ATP        -0.8942
      7 O2B        -0.6291    6.5546   -2.0601 O.3       1 ATP        -0.8166
      8 O3B        -2.9473    5.5636   -1.7301 O.3       1 ATP        -0.8194
      9 PA          0.4529    3.9703   -0.0492 P.3       1 ATP         1.5903
     10 O1A         1.4112    5.1385    0.0342 O.co2     1 ATP        -0.8519
     11 O2A         0.8147    2.7278   -0.8334 O.co2     1 ATP        -0.8519
     12 O3A        -0.9915    4.5116   -0.5846 O.3       1 ATP        -0.8093
     13 O5'         0.0180    3.5131    1.4595 O.3       1 ATP        -0.5649
     14 C5'        -0.8811    2.4285    1.6206 C.3       1 ATP         0.1979
     15 C4'        -0.1994    1.3333    2.4288 C.3       1 ATP         0.1179
     16 O4'        -1.1285    0.2356    2.5840 O.3       1 ATP        -0.3878
     17 C3'         1.0324    0.7610    1.7344 C.3       1 ATP         0.1185
     18 O3'         1.9175    0.2377    2.7247 O.3       1 ATP        -0.5544
     19 C2'         0.4468   -0.3802    0.9263 C.3       1 ATP         0.0542
     20 O2'         1.3993   -1.3703    0.5961 O.3       1 ATP        -0.5831
     21 C1'        -0.6159   -0.9100    1.8769 C.3       1 ATP         0.2222
     22 N9         -1.7127   -1.6108    1.2130 N.pl3     1 ATP        -0.1887
     23 C8         -1.7690   -2.9583    0.9549 C.ar      1 ATP         0.4447
     24 N7         -2.8827   -3.3076    0.3418 N.2       1 ATP        -0.6159
     25 C5         -3.5683   -2.1351    0.2017 C.ar      1 ATP         0.2195
     26 C6         -4.8617   -1.9185   -0.4044 C.ar      1 ATP         0.6144
     27 N6         -5.5166   -2.9094   -0.8994 N.2       1 ATP        -0.8160
     28 N1         -5.1836   -0.5701   -0.3344 N.pl3     1 ATP        -0.8611
     29 C2         -4.3821    0.4180    0.2330 C.ar      1 ATP         0.6141
     30 N3         -3.2117    0.2488    0.7860 N.2       1 ATP        -0.5913
     31 C4         -2.8672   -1.0657    0.7327 C.ar      1 ATP         0.0067
     32 HOG3       -5.5915    6.3674   -2.0584 H         1 ATP         0.4313
     33 HOB2       -0.8199    7.1779   -2.7932 H         1 ATP         0.4716
     34 H5'1       -1.7770    2.7851    2.1387 H         1 ATP         0.0452
     35 H5'2       -1.1653    2.0543    0.6320 H         1 ATP         0.0452
     36 H4'         0.0403    1.7078    3.4343 H         1 ATP         0.0998
     37 H3'         1.5906    1.4859    1.1353 H         1 ATP         0.0544
     38 HO3'        2.1521    0.9800    3.3017 H         1 ATP         0.3961
     39 H2'        -0.0017    0.0018    0.0005 H         1 ATP         0.0499
     40 HO2'        0.9369   -2.0558    0.0825 H         1 ATP         0.4045
     41 H1'        -0.1998   -1.6319    2.6178 H         1 ATP         0.0912
     42 H8         -0.9697   -3.6300    1.2371 H         1 ATP         0.1090
     43 HN62       -6.4060   -2.5723   -1.2840 H         1 ATP         0.3694
     44 H2         -4.8409    1.4176    0.1757 H         1 ATP         0.0371
     45 H45        -6.0768   -0.2826   -0.7263 H         1 ATP         0.4283
@<TRIPOS>BOND
     1    1    2 2
     2    1    3 1
     3    1    4 1
     4    1    8 1
     5    4   32 1
     6    5    6 2
     7    5    7 1
     8    5    8 1
     9    5   12 1
    10    7   33 1
    11    9   10 2
    12    9   11 1
    13    9   12 1
    14    9   13 1
    15   13   14 1
    16   14   15 1
    17   14   34 1
    18   14   35 1
    19   15   16 1
    20   15   17 1
    21   15   36 1
    22   16   21 1
    23   17   18 1
    24   17   19 1
    25   17   37 1
    26   18   38 1
    27   19   20 1
    28   19   21 1
    29   19   39 1
    30   20   40 1
    31   21   22 1
    32   21   41 1
    33   22   23 ar
    34   22   31 ar
    35   23   24 ar
    36   23   42 1
    37   24   25 ar
    38   25   26 ar
    39   25   31 ar
    40   26   27 2
    41   26   28 ar
    42   27   43 1
    43   28   29 ar
    44   28   45 1
    45   29   30 ar
    46   29   44 1
    47   30   31 ar
@<TRIPOS>SUBSTRUCTURE
     1 ATP         1 GROUP 0 A     ****
@<TRIPOS>MOLECULE
[[[3,4-dihydroxy-5-(6-imino-1~{H}-purin-9-yl)tetrahydrofuran-2-yl]methoxy-oxido-phosphoryl]oxy-hydroxy-phosphoryl] hydrogen phosphate
   45    47     1     0     0
SMALL
USER_CHARGES

@<TRIPOS>ATOM
      1 PG          9.8949    0.8210   -2.1119 P.3       1 ATP         1.5496
      2 O1G        10.9677    1.8642   -2.3320 O.co2     1 ATP        -0.8494
      3 O2G         9.6446   -0.2641   -3.1353 O.co2     1 ATP        -0.8494
      4 O3G        10.1470    0.1166   -0.6605 O.3       1 ATP        -0.7845
      5 PB          7.5505    2.5078   -2.7090 P.3       1 ATP         1.9068
      6 O1B         8.2070    3.7503   -3.2338 O.2       1 ATP        -0.8942
      7 O2B         7.0003    1.4931   -3.8409 O.3       1 ATP        -0.8166
      8 O3B         8.4866    1.5737   -1.7795 O.3       1 ATP        -0.8194
      9 PA          6.1592    3.5242   -0.3148 P.3       1 ATP         1.5903
     10 O1A         6.4222    4.9968   -0.5433 O.co2     1 ATP        -0.8519
     11 O2A         6.9470    2.7492    0.7189 O.co2     1 ATP        -0.8519
     12 O3A         6.2774    2.7406   -1.7424 O.3       1 ATP        -0.8093
     13 O5'         4.5669    3.2939   -0.0211 O.3       1 ATP        -0.5649
     14 C5'         4.0922    1.9801    0.2227 C.3       1 ATP         0.1979
     15 C4'         2.5944    2.0310    0.4653 C.3       1 ATP         0.1179
     16 O4'         1.9327    2.5740   -0.6889 O.3       1 ATP        -0.3878
     17 C3'         1.9685    0.6634    0.6767 C.3       1 ATP         0.1185
     18 O3'         2.1425    0.1975    1.9977 O.3       1 ATP        -0.5544
     19 C2'         0.5176    0.9128    0.3099 C.3       1 ATP         0.0542
     20 O2'        -0.2103    1.4454    1.4152 O.3       1 ATP        -0.5831
     21 C1'         0.6219    1.9765   -0.7844 C.3       1 ATP         0.2222
     22 N9          0.4237    1.4496   -2.1357 N.pl3     1 ATP        -0.1887
     23 C8         -0.7779    1.3483   -2.7928 C.ar      1 ATP         0.4447
     24 N7         -0.6499    0.8341   -4.0000 N.2       1 ATP        -0.6159
     25 C5          0.6893    0.5965   -4.1212 C.ar      1 ATP         0.2195
     26 C6          1.4031    0.0342   -5.2443 C.ar      1 ATP         0.6144
     27 N6          0.7649   -0.3130   -6.3063 N.2       1 ATP        -0.8160
     28 N1          2.7566   -0.0326   -4.9437 N.pl3     1 ATP        -0.8611
     29 C2          3.3337    0.3796   -3.7446 C.ar      1 ATP         0.6141
     30 N3          2.7120    0.8899   -2.7163 N.2       1 ATP        -0.5913
     31 C4          1.3803    0.9684   -2.9805 C.ar      1 ATP         0.0067
     32 HOG3        9.5291   -0.5877   -0.3699 H         1 ATP         0.4313
     33 HOB2        6.3214    1.8110   -4.4736 H         1 ATP         0.4716
     34 H5'1        4.3180    1.3550   -0.6470 H         1 ATP         0.0452
     35 H5'2        4.6084    1.5739    1.0983 H         1 ATP         0.0452
     36 H4'         2.3751    2.7029    1.3156 H         1 ATP         0.0998
     37 H3'         2.4336   -0.1217   -0.0015 H         1 ATP         0.0544
     38 HO3'        1.7160   -0.6716    2.0397 H         1 ATP         0.3961
     39 H2'         0.0316    0.0155   -0.0339 H         1 ATP         0.0499
     40 HO2'       -0.1608    0.7921    2.1351 H         1 ATP         0.4045
     41 H1'        -0.1474    2.7798   -0.6651 H         1 ATP         0.0912
     42 H8         -1.7076    1.6648   -2.3398 H         1 ATP         0.1090
     43 HN62        1.4266   -0.6890   -6.9943 H         1 ATP         0.3694
     44 H2          4.4251    0.2326   -3.7294 H         1 ATP         0.0371
     45 H45         3.3750   -0.4100   -5.6572 H         1 ATP         0.4283
@<TRIPOS>BOND
     1    1    2 2
     2    1    3 1
     3    1    4 1
     4    1    8 1
     5    4   32 1
     6    5    6 2
     7    5    7 1
     8    5    8 1
     9    5   12 1
    10    7   33 1
    11    9   10 2
    12    9   11 1
    13    9   12 1
    14    9   13 1
    15   13   14 1
    16   14   15 1
    17   14   34 1
    18   14   35 1
    19   15   16 1
    20   15   17 1
    21   15   36 1
    22   16   21 1
    23   17   18 1
    24   17   19 1
    25   17   37 1
    26   18   38 1
    27   19   20 1
    28   19   21 1
    29   19   39 1
    30   20   40 1
    31   21   22 1
    32   21   41 1
    33   22   23 ar
    34   22   31 ar
    35   23   24 ar
    36   23   42 1
    37   24   25 ar
    38   25   26 ar
    39   25   31 ar
    40   26   27 2
    41   26   28 ar
    42   27   43 1
    43   28   29 ar
    44   28   45 1
    45   29   30 ar
    46   29   44 1
    47   30   31 ar
@<TRIPOS>SUBSTRUCTURE
     1 ATP         1 GROUP 0 A     ****
@<TRIPOS>MOLECULE
[[[3,4-dihydroxy-5-(6-imino-1~{H}-purin-9-yl)tetrahydrofuran-2-yl]methoxy-oxido-phosphoryl]oxy-hydroxy-phosphoryl] hydrogen phosphate
   45    47     1     0     0
SMALL
USER_CHARGES

@<TRIPOS>ATOM
      1 PG          3.6853    2.6352   -1.5736 P.3       1 ATP         1.5496
      2 O1G         3.3517    2.0750   -0.2089 O.co2     1 ATP        -0.8494
      3 O2G         4.8256    3.6121   -1.7549 O.co2     1 ATP        -0.8494
      4 O3G         3.9007    1.3893   -2.6068 O.3       1 ATP        -0.7845
      5 PB          1.4543    4.5520   -1.7893 P.3       1 ATP         1.9068
      6 O1B         2.1883    5.8603   -1.7896 O.2       1 ATP        -0.8942
      7 O2B         0.1672    4.4881   -2.7653 O.3       1 ATP        -0.8166
      8 O3B         2.3330    3.2686   -2.2294 O.3       1 ATP        -0.8194
      9 PA         -0.1843    4.7787    0.6530 P.3       1 ATP         1.5903
     10 O1A        -1.5383    4.8261   -0.0209 O.co2     1 ATP        -0.8519
     11 O2A         0.4499    6.0373    1.2038 O.co2     1 ATP        -0.8519
     12 O3A         0.8824    4.0677   -0.3582 O.3       1 ATP        -0.8093
     13 O5'        -0.2061    3.6558    1.8418 O.3       1 ATP        -0.5649
     14 C5'        -0.8811    2.4285    1.6206 C.3       1 ATP         0.1979
     15 C4'        -0.1994    1.3333    2.4288 C.3       1 ATP         0.1179
     16 O4'        -1.1285    0.2356    2.5840 O.3       1 ATP        -0.3878
     17 C3'         1.0324    0.7610    1.7344 C.3       1 ATP         0.1185
     18 O3'         1.9175    0.2377    2.7247 O.3       1 ATP        -0.5544
     19 C2'         0.4468   -0.3802    0.9263 C.3       1 ATP         0.0542
     20 O2'         1.3993   -1.3703    0.5961 O.3       1 ATP        -0.5831
     21 C1'        -0.6159   -0.9100    1.8769 C.3       1 ATP         0.2222
     22 N9         -1.7127   -1.6108    1.2130 N.pl3     1 ATP        -0.1887
     23 C8         -2.8662   -1.0361    0.7388 C.ar      1 ATP         0.4447
     24 N7         -3.6774   -1.9166    0.1867 N.2       1 ATP        -0.6159
     25 C5         -3.0159   -3.1045    0.3123 C.ar      1 ATP         0.2195
     26 C6         -3.4377   -4.4169   -0.1199 C.ar      1 ATP         0.6144
     27 N6         -4.5720   -4.5691   -0.7080 N.2       1 ATP        -0.8160
     28 N1         -2.4600   -5.3463    0.2071 N.pl3     1 ATP        -0.8611
     29 C2         -1.2595   -5.0554    0.8515 C.ar      1 ATP         0.6141
     30 N3         -0.8555   -3.8803    1.2516 N.2       1 ATP        -0.5913
     31 C4         -1.7946   -2.9457    0.9448 C.ar      1 ATP         0.0067
     32 HOG3        4.1249    1.5905   -3.5403 H         1 ATP         0.4313
     33 HOB2        0.2935    4.6321   -3.7274 H         1 ATP         0.4716
     34 H5'1       -1.9255    2.5382    1.9293 H         1 ATP         0.0452
     35 H5'2       -0.8473    2.1932    0.5521 H         1 ATP         0.0452
     36 H4'         0.0403    1.7078    3.4343 H         1 ATP         0.0998
     37 H3'         1.5906    1.4859    1.1353 H         1 ATP         0.0544
     38 HO3'        2.6839   -0.1150    2.2479 H         1 ATP         0.3961
     39 H2'        -0.0017    0.0018    0.0005 H         1 ATP         0.0499
     40 HO2'        0.9369   -2.0558    0.0825 H         1 ATP         0.4045
     41 H1'        -0.1998   -1.6319    2.6178 H         1 ATP         0.0912
     42 H8         -3.0558    0.0252    0.8256 H         1 ATP         0.1090
     43 HN62       -4.7047   -5.5592   -0.9421 H         1 ATP         0.3694
     44 H2         -0.6372   -5.9505    1.0077 H         1 ATP         0.0371
     45 H45        -2.6338   -6.3155   -0.0469 H         1 ATP         0.4283
@<TRIPOS>BOND
     1    1    2 2
     2    1    3 1
     3    1    4 1
     4    1    8 1
     5    4   32 1
     6    5    6 2
     7    5    7 1
     8    5    8 1
     9    5   12 1
    10    7   33 1
    11    9   10 2
    12    9   11 1
    13    9   12 1
    14    9   13 1
    15   13   14 1
    16   14   15 1
    17   14   34 1
    18   14   35 1
    19   15   16 1
    20   15   17 1
    21   15   36 1
    22   16   21 1
    23   17   18 1
    24   17   19 1
    25   17   37 1
    26   18   38 1
    27   19   20 1
    28   19   21 1
    29   19   39 1
    30   20   40 1
    31   21   22 1
    32   21   41 1
    33   22   23 ar
    34   22   31 ar
    35   23   24 ar
    36   23   42 1
    37   24   25 ar
    38   25   26 ar
    39   25   31 ar
    40   26   27 2
    41   26   28 ar
    42   27   43 1
    43   28   29 ar
    44   28   45 1
    45   29   30 ar
    46   29   44 1
    47   30   31 ar
@<TRIPOS>SUBSTRUCTURE
     1 ATP         1 GROUP 0 A     ****
@<TRIPOS>MOLECULE
[[[3,4-dihydroxy-5-(6-imino-1~{H}-purin-9-yl)tetrahydrofuran-2-yl]methoxy-oxido-phosphoryl]oxy-hydroxy-phosphoryl] hydrogen phosphate
   45    47     1     0     0
SMALL
USER_CHARGES

@<TRIPOS>ATOM
      1 PG         -1.4894    6.0394   -1.8642 P.3       1 ATP         1.5496
      2 O1G        -2.0854    6.2965   -3.2303 O.co2     1 ATP        -0.8494
      3 O2G        -0.9898    4.6643   -1.4808 O.co2     1 ATP        -0.8494
      4 O3G        -0.2883    7.1164   -1.6118 O.3       1 ATP        -0.7845
      5 PB         -2.3658    6.6802    0.8779 P.3       1 ATP         1.9068
      6 O1B        -1.2550    7.5756    1.3411 O.2       1 ATP        -0.8942
      7 O2B        -3.8417    7.0993    1.3875 O.3       1 ATP        -0.8166
      8 O3B        -2.5333    6.5626   -0.7255 O.3       1 ATP        -0.8194
      9 PA         -2.1560    4.4277    2.7709 P.3       1 ATP         1.5903
     10 O1A        -3.4707    4.6479    3.4869 O.co2     1 ATP        -0.8519
     11 O2A        -0.8473    4.8292    3.4158 O.co2     1 ATP        -0.8519
     12 O3A        -2.2360    5.1255    1.2968 O.3       1 ATP        -0.8093
     13 O5'        -2.0402    2.8619    2.3130 O.3       1 ATP        -0.5649
     14 C5'        -0.8811    2.4285    1.6206 C.3       1 ATP         0.1979
     15 C4'        -0.1994    1.3333    2.4288 C.3       1 ATP         0.1179
     16 O4'        -1.1285    0.2356    2.5840 O.3       1 ATP        -0.3878
     17 C3'         1.0324    0.7610    1.7344 C.3       1 ATP         0.1185
     18 O3'         1.9175    0.2377    2.7247 O.3       1 ATP        -0.5544
     19 C2'         0.4468   -0.3802    0.9263 C.3       1 ATP         0.0542
     20 O2'         1.3993   -1.3703    0.5961 O.3       1 ATP        -0.5831
     21 C1'        -0.6159   -0.9100    1.8769 C.3       1 ATP         0.2222
     22 N9         -1.7127   -1.6108    1.2130 N.pl3     1 ATP        -0.1887
     23 C8         -2.0868   -2.9137    1.4327 C.ar      1 ATP         0.4447
     24 N7         -3.1125   -3.2756    0.6878 N.2       1 ATP        -0.6159
     25 C5         -3.4079   -2.1580   -0.0391 C.ar      1 ATP         0.2195
     26 C6         -4.4483   -1.9775   -1.0249 C.ar      1 ATP         0.6144
     27 N6         -5.2418   -2.9492   -1.3113 N.2       1 ATP        -0.8160
     28 N1         -4.3937   -0.6823   -1.5211 N.pl3     1 ATP        -0.8611
     29 C2         -3.4770    0.2901   -1.1271 C.ar      1 ATP         0.6141
     30 N3         -2.5289    0.1525   -0.2403 N.2       1 ATP        -0.5913
     31 C4         -2.5564   -1.1096    0.2655 C.ar      1 ATP         0.0067
     32 HOG3        0.2012    7.0791   -0.7625 H         1 ATP         0.4313
     33 HOB2       -4.0186    7.1343    2.3517 H         1 ATP         0.4716
     34 H5'1       -1.1769    2.0503    0.6369 H         1 ATP         0.0452
     35 H5'2       -0.2081    3.2815    1.4877 H         1 ATP         0.0452
     36 H4'         0.0403    1.7078    3.4343 H         1 ATP         0.0998
     37 H3'         1.5906    1.4859    1.1353 H         1 ATP         0.0544
     38 HO3'        2.1521    0.9800    3.3017 H         1 ATP         0.3961
     39 H2'        -0.0017    0.0018    0.0005 H         1 ATP         0.0499
     40 HO2'        0.9369   -2.0558    0.0825 H         1 ATP         0.4045
     41 H1'        -0.1998   -1.6319    2.6178 H         1 ATP         0.0912
     42 H8         -1.5740   -3.5449    2.1457 H         1 ATP         0.1090
     43 HN62       -5.9117   -2.6433   -2.0256 H         1 ATP         0.3694
     44 H2         -3.6225    1.2454   -1.6553 H         1 ATP         0.0371
     45 H45        -5.0794   -0.4231   -2.2258 H         1 ATP         0.4283
@<TRIPOS>BOND
     1    1    2 2
     2    1    3 1
     3    1    4 1
     4    1    8 1
     5    4   32 1
     6    5    6 2
     7    5    7 1
     8    5    8 1
     9    5   12 1
    10    7   33 1
    11    9   10 2
    12    9   11 1
    13    9   12 1
    14    9   13 1
    15   13   14 1
    16   14   15 1
    17   14   34 1
    18   14   35 1
    19   15   16 1
    20   15   17 1
    21   15   36 1
    22   16   21 1
    23   17   18 1
    24   17   19 1
    25   17   37 1
    26   18   38 1
    27   19   20 1
    28   19   21 1
    29   19   39 1
    30   20   40 1
    31   21   22 1
    32   21   41 1
    33   22   23 ar
    34   22   31 ar
    35   23   24 ar
    36   23   42 1
    37   24   25 ar
    38   25   26 ar
    39   25   31 ar
    40   26   27 2
    41   26   28 ar
    42   27   43 1
    43   28   29 ar
    44   28   45 1
    45   29   30 ar
    46   29   44 1
    47   30   31 ar
@<TRIPOS>SUBSTRUCTURE
     1 ATP         1 GROUP 0 A     ****
@<TRIPOS>MOLECULE
[[[3,4-dihydroxy-5-(6-imino-1~{H}-purin-9-yl)tetrahydrofuran-2-yl]methoxy-oxido-phosphoryl]oxy-hydroxy-phosphoryl] hydrogen phosphate
   45    47     1     0     0
SMALL
USER_CHARGES

@<TRIPOS>ATOM
      1 PG         -4.1563    5.2271   -1.3469 P.3       1 ATP         1.5496
      2 O1G        -5.1733    6.0482   -2.1080 O.co2     1 ATP        -0.8494
      3 O2G        -4.5586    4.4278   -0.1276 O.co2     1 ATP        -0.8494
      4 O3G        -3.4062    4.2275   -2.3978 O.3       1 ATP        -0.7845
      5 PB         -1.4639    5.8117   -0.2947 P.3       1 ATP         1.9068
      6 O1B        -0.6268    4.8357   -1.0674 O.2       1 ATP        -0.8942
      7 O2B        -0.7770    7.2529   -0.0404 O.3       1 ATP        -0.8166
      8 O3B        -2.8886    6.1792   -0.9642 O.3       1 ATP        -0.8194
      9 PA         -1.0307    4.9147    2.4817 P.3       1 ATP         1.5903
     10 O1A        -1.9587    4.4110    3.5657 O.co2     1 ATP        -0.8519
     11 O2A        -0.0472    6.0299    2.7624 O.co2     1 ATP        -0.8519
     12 O3A        -1.9214    5.3328    1.1787 O.3       1 ATP        -0.8093
     13 O5'        -0.2061    3.6558    1.8418 O.3       1 ATP        -0.5649
     14 C5'        -0.8811    2.4285    1.6206 C.3       1 ATP         0.1979
     15 C4'        -0.1994    1.3333    2.4288 C.3       1 ATP         0.1179
     16 O4'        -1.1285    0.2356    2.5840 O.3       1 ATP        -0.3878
     17 C3'         1.0324    0.7610    1.7344 C.3       1 ATP         0.1185
     18 O3'         1.9175    0.2377    2.7247 O.3       1 ATP        -0.5544
     19 C2'         0.4468   -0.3802    0.9263 C.3       1 ATP         0.0542
     20 O2'         1.3993   -1.3703    0.5961 O.3       1 ATP        -0.5831
     21 C1'        -0.6159   -0.9100    1.8769 C.3       1 ATP         0.2222
     22 N9         -1.7127   -1.6108    1.2130 N.pl3     1 ATP        -0.1887
     23 C8         -2.0868   -2.9137    1.4327 C.ar      1 ATP         0.4447
     24 N7         -3.1125   -3.2756    0.6878 N.2       1 ATP        -0.6159
     25 C5         -3.4079   -2.1580   -0.0391 C.ar      1 ATP         0.2195
     26 C6         -4.4483   -1.9775   -1.0249 C.ar      1 ATP         0.6144
     27 N6         -5.2418   -2.9492   -1.3113 N.2       1 ATP        -0.8160
     28 N1         -4.3937   -0.6823   -1.5211 N.pl3     1 ATP        -0.8611
     29 C2         -3.4770    0.2901   -1.1271 C.ar      1 ATP         0.6141
     30 N3         -2.5289    0.1525   -0.2403 N.2       1 ATP        -0.5913
     31 C4         -2.5564   -1.1096    0.2655 C.ar      1 ATP         0.0067
     32 HOG3       -2.7128    3.6246   -2.0545 H         1 ATP         0.4313
     33 HOB2        0.0674    7.2950    0.4570 H         1 ATP         0.4716
     34 H5'1       -1.9255    2.5382    1.9293 H         1 ATP         0.0452
     35 H5'2       -0.8473    2.1932    0.5521 H         1 ATP         0.0452
     36 H4'         0.0403    1.7078    3.4343 H         1 ATP         0.0998
     37 H3'         1.5906    1.4859    1.1353 H         1 ATP         0.0544
     38 HO3'        2.6839   -0.1150    2.2479 H         1 ATP         0.3961
     39 H2'        -0.0017    0.0018    0.0005 H         1 ATP         0.0499
     40 HO2'        2.0953   -0.9375    0.0709 H         1 ATP         0.4045
     41 H1'        -0.1998   -1.6319    2.6178 H         1 ATP         0.0912
     42 H8         -1.5740   -3.5449    2.1457 H         1 ATP         0.1090
     43 HN62       -5.9117   -2.6433   -2.0256 H         1 ATP         0.3694
     44 H2         -3.6225    1.2454   -1.6553 H         1 ATP         0.0371
     45 H45        -5.0794   -0.4231   -2.2258 H         1 ATP         0.4283
@<TRIPOS>BOND
     1    1    2 2
     2    1    3 1
     3    1    4 1
     4    1    8 1
     5    4   32 1
     6    5    6 2
     7    5    7 1
     8    5    8 1
     9    5   12 1
    10    7   33 1
    11    9   10 2
    12    9   11 1
    13    9   12 1
    14    9   13 1
    15   13   14 1
    16   14   15 1
    17   14   34 1
    18   14   35 1
    19   15   16 1
    20   15   17 1
    21   15   36 1
    22   16   21 1
    23   17   18 1
    24   17   19 1
    25   17   37 1
    26   18   38 1
    27   19   20 1
    28   19   21 1
    29   19   39 1
    30   20   40 1
    31   21   22 1
    32   21   41 1
    33   22   23 ar
    34   22   31 ar
    35   23   24 ar
    36   23   42 1
    37   24   25 ar
    38   25   26 ar
    39   25   31 ar
    40   26   27 2
    41   26   28 ar
    42   27   43 1
    43   28   29 ar
    44   28   45 1
    45   29   30 ar
    46   29   44 1
    47   30   31 ar
@<TRIPOS>SUBSTRUCTURE
     1 ATP         1 GROUP 0 A     ****
@<TRIPOS>MOLECULE
[[[3,4-dihydroxy-5-(6-imino-1~{H}-purin-9-yl)tetrahydrofuran-2-yl]methoxy-oxido-phosphoryl]oxy-hydroxy-phosphoryl] hydrogen phosphate
   45    47     1     0     0
SMALL
USER_CHARGES

@<TRIPOS>ATOM
      1 PG          7.5456    1.8935    4.1512 P.3       1 ATP         1.5496
      2 O1G         7.8779    0.9616    3.0072 O.co2     1 ATP        -0.8494
      3 O2G         6.3482    1.6376    5.0390 O.co2     1 ATP        -0.8494
      4 O3G         8.8684    2.0463    5.0961 O.3       1 ATP        -0.7845
      5 PB          6.4228    4.1112    2.5639 P.3       1 ATP         1.9068
      6 O1B         4.9914    4.0999    3.0124 O.2       1 ATP        -0.8942
      7 O2B         7.0492    5.5794    2.3077 O.3       1 ATP        -0.8166
      8 O3B         7.4700    3.4206    3.5834 O.3       1 ATP        -0.8194
      9 PA          6.1592    3.5242   -0.3148 P.3       1 ATP         1.5903
     10 O1A         6.6758    2.4088   -1.1974 O.co2     1 ATP        -0.8519
     11 O2A         6.3637    4.9731   -0.7001 O.co2     1 ATP        -0.8519
     12 O3A         6.7372    3.3096    1.1971 O.3       1 ATP        -0.8093
     13 O5'         4.5669    3.2939   -0.0211 O.3       1 ATP        -0.5649
     14 C5'         4.0922    1.9801    0.2227 C.3       1 ATP         0.1979
     15 C4'         2.5944    2.0310    0.4653 C.3       1 ATP         0.1179
     16 O4'         1.9327    2.5740   -0.6889 O.3       1 ATP        -0.3878
     17 C3'         1.9685    0.6634    0.6767 C.3       1 ATP         0.1185
     18 O3'         2.1425    0.1975    1.9977 O.3       1 ATP        -0.5544
     19 C2'         0.5176    0.9128    0.3099 C.3       1 ATP         0.0542
     20 O2'        -0.2103    1.4454    1.4152 O.3       1 ATP        -0.5831
     21 C1'         0.6219    1.9765   -0.7844 C.3       1 ATP         0.2222
     22 N9          0.4237    1.4496   -2.1357 N.pl3     1 ATP        -0.1887
     23 C8         -0.7779    1.3483   -2.7928 C.ar      1 ATP         0.4447
     24 N7         -0.6499    0.8341   -4.0000 N.2       1 ATP        -0.6159
     25 C5          0.6893    0.5965   -4.1212 C.ar      1 ATP         0.2195
     26 C6          1.4031    0.0342   -5.2443 C.ar      1 ATP         0.6144
     27 N6          0.7649   -0.3130   -6.3063 N.2       1 ATP        -0.8160
     28 N1          2.7566   -0.0326   -4.9437 N.pl3     1 ATP        -0.8611
     29 C2          3.3337    0.3796   -3.7446 C.ar      1 ATP         0.6141
     30 N3          2.7120    0.8899   -2.7163 N.2       1 ATP        -0.5913
     31 C4          1.3803    0.9684   -2.9805 C.ar      1 ATP         0.0067
     32 HOG3        8.8127    2.6236    5.8872 H         1 ATP         0.4313
     33 HOB2        6.6367    6.1601    1.6333 H         1 ATP         0.4716
     34 H5'1        4.3180    1.3550   -0.6470 H         1 ATP         0.0452
     35 H5'2        4.6084    1.5739    1.0983 H         1 ATP         0.0452
     36 H4'         2.3751    2.7029    1.3156 H         1 ATP         0.0998
     37 H3'         2.4336   -0.1217   -0.0015 H         1 ATP         0.0544
     38 HO3'        1.7160   -0.6716    2.0397 H         1 ATP         0.3961
     39 H2'         0.0316    0.0155   -0.0339 H         1 ATP         0.0499
     40 HO2'       -0.1608    0.7921    2.1351 H         1 ATP         0.4045
     41 H1'        -0.1474    2.7798   -0.6651 H         1 ATP         0.0912
     42 H8         -1.7076    1.6648   -2.3398 H         1 ATP         0.1090
     43 HN62        1.4266   -0.6890   -6.9943 H         1 ATP         0.3694
     44 H2          4.4251    0.2326   -3.7294 H         1 ATP         0.0371
     45 H45         3.3750   -0.4100   -5.6572 H         1 ATP         0.4283
@<TRIPOS>BOND
     1    1    2 2
     2    1    3 1
     3    1    4 1
     4    1    8 1
     5    4   32 1
     6    5    6 2
     7    5    7 1
     8    5    8 1
     9    5   12 1
    10    7   33 1
    11    9   10 2
    12    9   11 1
    13    9   12 1
    14    9   13 1
    15   13   14 1
    16   14   15 1
    17   14   34 1
    18   14   35 1
    19   15   16 1
    20   15   17 1
    21   15   36 1
    22   16   21 1
    23   17   18 1
    24   17   19 1
    25   17   37 1
    26   18   38 1
    27   19   20 1
    28   19   21 1
    29   19   39 1
    30   20   40 1
    31   21   22 1
    32   21   41 1
    33   22   23 ar
    34   22   31 ar
    35   23   24 ar
    36   23   42 1
    37   24   25 ar
    38   25   26 ar
    39   25   31 ar
    40   26   27 2
    41   26   28 ar
    42   27   43 1
    43   28   29 ar
    44   28   45 1
    45   29   30 ar
    46   29   44 1
    47   30   31 ar
@<TRIPOS>SUBSTRUCTURE
     1 ATP         1 GROUP 0 A     ****
@<TRIPOS>MOLECULE
[[[3,4-dihydroxy-5-(6-imino-1~{H}-purin-9-yl)tetrahydrofuran-2-yl]methoxy-oxido-phosphoryl]oxy-hydroxy-phosphoryl] hydrogen phosphate
   45    47     1     0     0
SMALL
USER_CHARGES

@<TRIPOS>ATOM
      1 PG         -2.8421    7.7076   -1.8452 P.3       1 ATP         1.5496
      2 O1G        -4.0795    8.4739   -1.4338 O.co2     1 ATP        -0.8494
      3 O2G        -2.7310    7.0931   -3.2227 O.co2     1 ATP        -0.8494
      4 O3G        -1.5374    8.6568   -1.5943 O.3       1 ATP        -0.7845
      5 PB         -2.3658    6.6802    0.8779 P.3       1 ATP         1.9068
      6 O1B        -1.2550    7.5756    1.3411 O.2       1 ATP        -0.8942
      7 O2B        -3.8417    7.0993    1.3875 O.3       1 ATP        -0.8166
      8 O3B        -2.5333    6.5626   -0.7255 O.3       1 ATP        -0.8194
      9 PA         -2.1560    4.4277    2.7709 P.3       1 ATP         1.5903
     10 O1A        -3.4707    4.6479    3.4869 O.co2     1 ATP        -0.8519
     11 O2A        -0.8473    4.8292    3.4158 O.co2     1 ATP        -0.8519
     12 O3A        -2.2360    5.1255    1.2968 O.3       1 ATP        -0.8093
     13 O5'        -2.0402    2.8619    2.3130 O.3       1 ATP        -0.5649
     14 C5'        -0.8811    2.4285    1.6206 C.3       1 ATP         0.1979
     15 C4'        -0.1994    1.3333    2.4288 C.3       1 ATP         0.1179
     16 O4'        -1.1285    0.2356    2.5840 O.3       1 ATP        -0.3878
     17 C3'         1.0324    0.7610    1.7344 C.3       1 ATP         0.1185
     18 O3'         1.9175    0.2377    2.7247 O.3       1 ATP        -0.5544
     19 C2'         0.4468   -0.3802    0.9263 C.3       1 ATP         0.0542
     20 O2'         1.3993   -1.3703    0.5961 O.3       1 ATP        -0.5831
     21 C1'        -0.6159   -0.9100    1.8769 C.3       1 ATP         0.2222
     22 N9         -1.7127   -1.6108    1.2130 N.pl3     1 ATP        -0.1887
     23 C8         -2.8662   -1.0361    0.7388 C.ar      1 ATP         0.4447
     24 N7         -3.6774   -1.9166    0.1867 N.2       1 ATP        -0.6159
     25 C5         -3.0159   -3.1045    0.3123 C.ar      1 ATP         0.2195
     26 C6         -3.4377   -4.4169   -0.1199 C.ar      1 ATP         0.6144
     27 N6         -4.5720   -4.5691   -0.7080 N.2       1 ATP        -0.8160
     28 N1         -2.4600   -5.3463    0.2071 N.pl3     1 ATP        -0.8611
     29 C2         -1.2595   -5.0554    0.8515 C.ar      1 ATP         0.6141
     30 N3         -0.8555   -3.8803    1.2516 N.2       1 ATP        -0.5913
     31 C4         -1.7946   -2.9457    0.9448 C.ar      1 ATP         0.0067
     32 HOG3       -1.3581    8.9722   -0.6830 H         1 ATP         0.4313
     33 HOB2       -4.1961    7.9804    1.1418 H         1 ATP         0.4716
     34 H5'1       -1.1769    2.0503    0.6369 H         1 ATP         0.0452
     35 H5'2       -0.2081    3.2815    1.4877 H         1 ATP         0.0452
     36 H4'         0.0403    1.7078    3.4343 H         1 ATP         0.0998
     37 H3'         1.5906    1.4859    1.1353 H         1 ATP         0.0544
     38 HO3'        2.6839   -0.1150    2.2479 H         1 ATP         0.3961
     39 H2'        -0.0017    0.0018    0.0005 H         1 ATP         0.0499
     40 HO2'        2.0953   -0.9375    0.0709 H         1 ATP         0.4045
     41 H1'        -0.1998   -1.6319    2.6178 H         1 ATP         0.0912
     42 H8         -3.0558    0.0252    0.8256 H         1 ATP         0.1090
     43 HN62       -4.7047   -5.5592   -0.9421 H         1 ATP         0.3694
     44 H2         -0.6372   -5.9505    1.0077 H         1 ATP         0.0371
     45 H45        -2.6338   -6.3155   -0.0469 H         1 ATP         0.4283
@<TRIPOS>BOND
     1    1    2 2
     2    1    3 1
     3    1    4 1
     4    1    8 1
     5    4   32 1
     6    5    6 2
     7    5    7 1
     8    5    8 1
     9    5   12 1
    10    7   33 1
    11    9   10 2
    12    9   11 1
    13    9   12 1
    14    9   13 1
    15   13   14 1
    16   14   15 1
    17   14   34 1
    18   14   35 1
    19   15   16 1
    20   15   17 1
    21   15   36 1
    22   16   21 1
    23   17   18 1
    24   17   19 1
    25   17   37 1
    26   18   38 1
    27   19   20 1
    28   19   21 1
    29   19   39 1
    30   20   40 1
    31   21   22 1
    32   21   41 1
    33   22   23 ar
    34   22   31 ar
    35   23   24 ar
    36   23   42 1
    37   24   25 ar
    38   25   26 ar
    39   25   31 ar
    40   26   27 2
    41   26   28 ar
    42   27   43 1
    43   28   29 ar
    44   28   45 1
    45   29   30 ar
    46   29   44 1
    47   30   31 ar
@<TRIPOS>SUBSTRUCTURE
     1 ATP         1 GROUP 0 A     ****
@<TRIPOS>MOLECULE
[[[3,4-dihydroxy-5-(6-imino-1~{H}-purin-9-yl)tetrahydrofuran-2-yl]methoxy-oxido-phosphoryl]oxy-hydroxy-phosphoryl] hydrogen phosphate
   45    47     1     0     0
SMALL
USER_CHARGES

@<TRIPOS>ATOM
      1 PG          4.8034    2.8042    5.6919 P.3       1 ATP         1.5496
      2 O1G         4.4003    1.8564    6.7995 O.co2     1 ATP        -0.8494
      3 O2G         3.7898    3.2961    4.6829 O.co2     1 ATP        -0.8494
      4 O3G         5.5398    4.0992    6.3605 O.3       1 ATP        -0.7845
      5 PB          7.0137    2.8098    3.7394 P.3       1 ATP         1.9068
      6 O1B         7.7389    4.0672    4.1181 O.2       1 ATP        -0.8942
      7 O2B         7.9627    1.5789    3.2944 O.3       1 ATP        -0.8166
      8 O3B         6.0821    2.1757    4.8982 O.3       1 ATP        -0.8194
      9 PA          6.1803    3.4024    0.9726 P.3       1 ATP         1.5903
     10 O1A         7.0450    2.3713    0.2804 O.co2     1 ATP        -0.8519
     11 O2A         6.5612    4.8668    0.9578 O.co2     1 ATP        -0.8519
     12 O3A         5.9578    2.9464    2.5246 O.3       1 ATP        -0.8093
     13 O5'         4.6405    3.2701    0.4379 O.3       1 ATP        -0.5649
     14 C5'         4.0922    1.9801    0.2227 C.3       1 ATP         0.1979
     15 C4'         2.5944    2.0310    0.4653 C.3       1 ATP         0.1179
     16 O4'         1.9327    2.5740   -0.6889 O.3       1 ATP        -0.3878
     17 C3'         1.9685    0.6634    0.6767 C.3       1 ATP         0.1185
     18 O3'         2.1425    0.1975    1.9977 O.3       1 ATP        -0.5544
     19 C2'         0.5176    0.9128    0.3099 C.3       1 ATP         0.0542
     20 O2'        -0.2103    1.4454    1.4152 O.3       1 ATP        -0.5831
     21 C1'         0.6219    1.9765   -0.7844 C.3       1 ATP         0.2222
     22 N9          0.4237    1.4496   -2.1357 N.pl3     1 ATP        -0.1887
     23 C8          1.4069    0.9710   -2.9662 C.ar      1 ATP         0.4447
     24 N7          0.9316    0.5623   -4.1260 N.2       1 ATP        -0.6159
     25 C5         -0.4120    0.7884   -4.0344 C.ar      1 ATP         0.2195
     26 C6         -1.4353    0.5283   -5.0204 C.ar      1 ATP         0.6144
     27 N6         -1.1199    0.0176   -6.1586 N.2       1 ATP        -0.8160
     28 N1         -2.6704    0.9095   -4.5147 N.pl3     1 ATP        -0.8611
     29 C2         -2.8863    1.4571   -3.2520 C.ar      1 ATP         0.6141
     30 N3         -1.9805    1.7017   -2.3442 N.2       1 ATP        -0.5913
     31 C4         -0.7561    1.3381   -2.8112 C.ar      1 ATP         0.0067
     32 HOG3        5.8625    4.8105    5.7671 H         1 ATP         0.4313
     33 HOB2        8.5567    1.6928    2.5221 H         1 ATP         0.4716
     34 H5'1        4.3029    1.6730   -0.8066 H         1 ATP         0.0452
     35 H5'2        4.5678    1.2739    0.9106 H         1 ATP         0.0452
     36 H4'         2.3751    2.7029    1.3156 H         1 ATP         0.0998
     37 H3'         2.4336   -0.1217   -0.0015 H         1 ATP         0.0544
     38 HO3'        1.7160   -0.6716    2.0397 H         1 ATP         0.3961
     39 H2'         0.0316    0.0155   -0.0339 H         1 ATP         0.0499
     40 HO2'       -0.1608    0.7921    2.1351 H         1 ATP         0.4045
     41 H1'        -0.1474    2.7798   -0.6651 H         1 ATP         0.0912
     42 H8          2.4466    0.9468   -2.6694 H         1 ATP         0.1090
     43 HN62       -1.9661   -0.0965   -6.7275 H         1 ATP         0.3694
     44 H2         -3.9481    1.6825   -3.0660 H         1 ATP         0.0371
     45 H45        -3.4814    0.7753   -5.1133 H         1 ATP         0.4283
@<TRIPOS>BOND
     1    1    2 2
     2    1    3 1
     3    1    4 1
     4    1    8 1
     5    4   32 1
     6    5    6 2
     7    5    7 1
     8    5    8 1
     9    5   12 1
    10    7   33 1
    11    9   10 2
    12    9   11 1
    13    9   12 1
    14    9   13 1
    15   13   14 1
    16   14   15 1
    17   14   34 1
    18   14   35 1
    19   15   16 1
    20   15   17 1
    21   15   36 1
    22   16   21 1
    23   17   18 1
    24   17   19 1
    25   17   37 1
    26   18   38 1
    27   19   20 1
    28   19   21 1
    29   19   39 1
    30   20   40 1
    31   21   22 1
    32   21   41 1
    33   22   23 ar
    34   22   31 ar
    35   23   24 ar
    36   23   42 1
    37   24   25 ar
    38   25   26 ar
    39   25   31 ar
    40   26   27 2
    41   26   28 ar
    42   27   43 1
    43   28   29 ar
    44   28   45 1
    45   29   30 ar
    46   29   44 1
    47   30   31 ar
@<TRIPOS>SUBSTRUCTURE
     1 ATP         1 GROUP 0 A     ****
@<TRIPOS>MOLECULE
[[[3,4-dihydroxy-5-(6-imino-1~{H}-purin-9-yl)tetrahydrofuran-2-yl]methoxy-oxido-phosphoryl]oxy-hydroxy-phosphoryl] hydrogen phosphate
   45    47     1     0     0
SMALL
USER_CHARGES

@<TRIPOS>ATOM
      1 PG          2.6319    6.7971    4.7732 P.3       1 ATP         1.5496
      2 O1G         3.4491    5.6189    5.2546 O.co2     1 ATP        -0.8494
      3 O2G         2.0195    7.7709    5.7551 O.co2     1 ATP        -0.8494
      4 O3G         3.5227    7.6396    3.6948 O.3       1 ATP        -0.7845
      5 PB          0.1770    5.3299    4.0530 P.3       1 ATP         1.9068
      6 O1B         0.4774    3.9657    4.5999 O.2       1 ATP        -0.8942
      7 O2B        -0.7559    6.2555    4.9945 O.3       1 ATP        -0.8166
      8 O3B         1.4695    6.2569    3.7647 O.3       1 ATP        -0.8194
      9 PA         -2.0037    4.7527    2.1524 P.3       1 ATP         1.5903
     10 O1A        -2.1555    4.9437    0.6589 O.co2     1 ATP        -0.8519
     11 O2A        -3.0637    5.2557    3.1080 O.co2     1 ATP        -0.8519
     12 O3A        -0.5628    5.3641    2.6174 O.3       1 ATP        -0.8093
     13 O5'        -1.7337    3.1724    2.4752 O.3       1 ATP        -0.5649
     14 C5'        -0.8811    2.4285    1.6206 C.3       1 ATP         0.1979
     15 C4'        -0.1994    1.3333    2.4288 C.3       1 ATP         0.1179
     16 O4'        -1.1285    0.2356    2.5840 O.3       1 ATP        -0.3878
     17 C3'         1.0324    0.7610    1.7344 C.3       1 ATP         0.1185
     18 O3'         1.9175    0.2377    2.7247 O.3       1 ATP        -0.5544
     19 C2'         0.4468   -0.3802    0.9263 C.3       1 ATP         0.0542
     20 O2'         1.3993   -1.3703    0.5961 O.3       1 ATP        -0.5831
     21 C1'        -0.6159   -0.9100    1.8769 C.3       1 ATP         0.2222
     22 N9         -1.7127   -1.6108    1.2130 N.pl3     1 ATP        -0.1887
     23 C8         -1.7690   -2.9583    0.9549 C.ar      1 ATP         0.4447
     24 N7         -2.8827   -3.3076    0.3418 N.2       1 ATP        -0.6159
     25 C5         -3.5683   -2.1351    0.2017 C.ar      1 ATP         0.2195
     26 C6         -4.8617   -1.9185   -0.4044 C.ar      1 ATP         0.6144
     27 N6         -5.5166   -2.9094   -0.8994 N.2       1 ATP        -0.8160
     28 N1         -5.1836   -0.5701   -0.3344 N.pl3     1 ATP        -0.8611
     29 C2         -4.3821    0.4180    0.2330 C.ar      1 ATP         0.6141
     30 N3         -3.2117    0.2488    0.7860 N.2       1 ATP        -0.5913
     31 C4         -2.8672   -1.0657    0.7327 C.ar      1 ATP         0.0067
     32 HOG3        3.1282    8.4401    3.2877 H         1 ATP         0.4313
     33 HOB2       -0.4447    6.4796    5.8974 H         1 ATP         0.4716
     34 H5'1       -1.4801    1.9928    0.8147 H         1 ATP         0.0452
     35 H5'2       -0.1369    3.1041    1.1872 H         1 ATP         0.0452
     36 H4'         0.0403    1.7078    3.4343 H         1 ATP         0.0998
     37 H3'         1.5906    1.4859    1.1353 H         1 ATP         0.0544
     38 HO3'        2.1521    0.9800    3.3017 H         1 ATP         0.3961
     39 H2'        -0.0017    0.0018    0.0005 H         1 ATP         0.0499
     40 HO2'        2.0953   -0.9375    0.0709 H         1 ATP         0.4045
     41 H1'        -0.1998   -1.6319    2.6178 H         1 ATP         0.0912
     42 H8         -0.9697   -3.6300    1.2371 H         1 ATP         0.1090
     43 HN62       -6.4060   -2.5723   -1.2840 H         1 ATP         0.3694
     44 H2         -4.8409    1.4176    0.1757 H         1 ATP         0.0371
     45 H45        -6.0768   -0.2826   -0.7263 H         1 ATP         0.4283
@<TRIPOS>BOND
     1    1    2 2
     2    1    3 1
     3    1    4 1
     4    1    8 1
     5    4   32 1
     6    5    6 2
     7    5    7 1
     8    5    8 1
     9    5   12 1
    10    7   33 1
    11    9   10 2
    12    9   11 1
    13    9   12 1
    14    9   13 1
    15   13   14 1
    16   14   15 1
    17   14   34 1
    18   14   35 1
    19   15   16 1
    20   15   17 1
    21   15   36 1
    22   16   21 1
    23   17   18 1
    24   17   19 1
    25   17   37 1
    26   18   38 1
    27   19   20 1
    28   19   21 1
    29   19   39 1
    30   20   40 1
    31   21   22 1
    32   21   41 1
    33   22   23 ar
    34   22   31 ar
    35   23   24 ar
    36   23   42 1
    37   24   25 ar
    38   25   26 ar
    39   25   31 ar
    40   26   27 2
    41   26   28 ar
    42   27   43 1
    43   28   29 ar
    44   28   45 1
    45   29   30 ar
    46   29   44 1
    47   30   31 ar
@<TRIPOS>SUBSTRUCTURE
     1 ATP         1 GROUP 0 A     ****
@<TRIPOS>MOLECULE
[[[3,4-dihydroxy-5-(6-imino-1~{H}-purin-9-yl)tetrahydrofuran-2-yl]methoxy-oxido-phosphoryl]oxy-hydroxy-phosphoryl] hydrogen phosphate
   45    47     1     0     0
SMALL
USER_CHARGES

@<TRIPOS>ATOM
      1 PG         -4.3558    7.5429    0.3840 P.3       1 ATP         1.5496
      2 O1G        -5.5520    7.5851   -0.5405 O.co2     1 ATP        -0.8494
      3 O2G        -3.3017    8.6266    0.3407 O.co2     1 ATP        -0.8494
      4 O3G        -4.8924    7.4028    1.9198 O.3       1 ATP        -0.7845
      5 PB         -2.8379    5.4276   -1.0014 P.3       1 ATP         1.9068
      6 O1B        -3.6429    5.2603   -2.2561 O.2       1 ATP        -0.8942
      7 O2B        -1.5196    6.3514   -1.1511 O.3       1 ATP        -0.8166
      8 O3B        -3.6300    6.0891    0.2427 O.3       1 ATP        -0.8194
      9 PA         -1.2907    2.9170   -0.9365 P.3       1 ATP         1.5903
     10 O1A         0.0789    3.5230   -1.1535 O.co2     1 ATP        -0.8519
     11 O2A        -2.0104    2.2088   -2.0635 O.co2     1 ATP        -0.8519
     12 O3A        -2.2846    4.0642   -0.3347 O.3       1 ATP        -0.8093
     13 O5'        -1.2434    1.9102    0.3514 O.3       1 ATP        -0.5649
     14 C5'        -0.8811    2.4285    1.6206 C.3       1 ATP         0.1979
     15 C4'        -0.1994    1.3333    2.4288 C.3       1 ATP         0.1179
     16 O4'        -1.1285    0.2356    2.5840 O.3       1 ATP        -0.3878
     17 C3'         1.0324    0.7610    1.7344 C.3       1 ATP         0.1185
     18 O3'         1.9175    0.2377    2.7247 O.3       1 ATP        -0.5544
     19 C2'         0.4468   -0.3802    0.9263 C.3       1 ATP         0.0542
     20 O2'         1.3993   -1.3703    0.5961 O.3       1 ATP        -0.5831
     21 C1'        -0.6159   -0.9100    1.8769 C.3       1 ATP         0.2222
     22 N9         -1.7127   -1.6108    1.2130 N.pl3     1 ATP        -0.1887
     23 C8         -2.8662   -1.0361    0.7388 C.ar      1 ATP         0.4447
     24 N7         -3.6774   -1.9166    0.1867 N.2       1 ATP        -0.6159
     25 C5         -3.0159   -3.1045    0.3123 C.ar      1 ATP         0.2195
     26 C6         -3.4377   -4.4169   -0.1199 C.ar      1 ATP         0.6144
     27 N6         -4.5720   -4.5691   -0.7080 N.2       1 ATP        -0.8160
     28 N1         -2.4600   -5.3463    0.2071 N.pl3     1 ATP        -0.8611
     29 C2         -1.2595   -5.0554    0.8515 C.ar      1 ATP         0.6141
     30 N3         -0.8555   -3.8803    1.2516 N.2       1 ATP        -0.5913
     31 C4         -1.7946   -2.9457    0.9448 C.ar      1 ATP         0.0067
     32 HOG3       -4.2313    7.3622    2.6433 H         1 ATP         0.4313
     33 HOB2       -0.8224    6.0838   -1.7871 H         1 ATP         0.4716
     34 H5'1       -0.2034    3.2760    1.4767 H         1 ATP         0.0452
     35 H5'2       -1.7842    2.7761    2.1322 H         1 ATP         0.0452
     36 H4'         0.0403    1.7078    3.4343 H         1 ATP         0.0998
     37 H3'         1.5906    1.4859    1.1353 H         1 ATP         0.0544
     38 HO3'        2.6839   -0.1150    2.2479 H         1 ATP         0.3961
     39 H2'        -0.0017    0.0018    0.0005 H         1 ATP         0.0499
     40 HO2'        2.0953   -0.9375    0.0709 H         1 ATP         0.4045
     41 H1'        -0.1998   -1.6319    2.6178 H         1 ATP         0.0912
     42 H8         -3.0558    0.0252    0.8256 H         1 ATP         0.1090
     43 HN62       -4.7047   -5.5592   -0.9421 H         1 ATP         0.3694
     44 H2         -0.6372   -5.9505    1.0077 H         1 ATP         0.0371
     45 H45        -2.6338   -6.3155   -0.0469 H         1 ATP         0.4283
@<TRIPOS>BOND
     1    1    2 2
     2    1    3 1
     3    1    4 1
     4    1    8 1
     5    4   32 1
     6    5    6 2
     7    5    7 1
     8    5    8 1
     9    5   12 1
    10    7   33 1
    11    9   10 2
    12    9   11 1
    13    9   12 1
    14    9   13 1
    15   13   14 1
    16   14   15 1
    17   14   34 1
    18   14   35 1
    19   15   16 1
    20   15   17 1
    21   15   36 1
    22   16   21 1
    23   17   18 1
    24   17   19 1
    25   17   37 1
    26   18   38 1
    27   19   20 1
    28   19   21 1
    29   19   39 1
    30   20   40 1
    31   21   22 1
    32   21   41 1
    33   22   23 ar
    34   22   31 ar
    35   23   24 ar
    36   23   42 1
    37   24   25 ar
    38   25   26 ar
    39   25   31 ar
    40   26   27 2
    41   26   28 ar
    42   27   43 1
    43   28   29 ar
    44   28   45 1
    45   29   30 ar
    46   29   44 1
    47   30   31 ar
@<TRIPOS>SUBSTRUCTURE
     1 ATP         1 GROUP 0 A     ****
@<TRIPOS>MOLECULE
[[[3,4-dihydroxy-5-(6-imino-1~{H}-purin-9-yl)tetrahydrofuran-2-yl]methoxy-oxido-phosphoryl]oxy-hydroxy-phosphoryl] hydrogen phosphate
   45    47     1     0     0
SMALL
USER_CHARGES

@<TRIPOS>ATOM
      1 PG          8.6167    2.0947   -5.3528 P.3       1 ATP         1.5496
      2 O1G        10.0198    1.7829   -4.8819 O.co2     1 ATP        -0.8494
      3 O2G         8.3254    3.3447   -6.1528 O.co2     1 ATP        -0.8494
      4 O3G         8.0492    0.8060   -6.1796 O.3       1 ATP        -0.7845
      5 PB          7.5024    2.9818   -2.7704 P.3       1 ATP         1.9068
      6 O1B         8.7363    3.0340   -1.9188 O.2       1 ATP        -0.8942
      7 O2B         7.0216    4.4049   -3.3682 O.3       1 ATP        -0.8166
      8 O3B         7.6049    2.0332   -4.0751 O.3       1 ATP        -0.8194
      9 PA          5.8978    0.9308   -1.3849 P.3       1 ATP         1.5903
     10 O1A         6.7865    0.7713   -0.1705 O.co2     1 ATP        -0.8519
     11 O2A         5.9016   -0.1054   -2.4876 O.co2     1 ATP        -0.8519
     12 O3A         6.1792    2.3930   -2.0547 O.3       1 ATP        -0.8093
     13 O5'         4.3515    1.1574   -0.9027 O.3       1 ATP        -0.5649
     14 C5'         4.0922    1.9801    0.2227 C.3       1 ATP         0.1979
     15 C4'         2.5944    2.0310    0.4653 C.3       1 ATP         0.1179
     16 O4'         1.9327    2.5740   -0.6889 O.3       1 ATP        -0.3878
     17 C3'         1.9685    0.6634    0.6767 C.3       1 ATP         0.1185
     18 O3'         2.1425    0.1975    1.9977 O.3       1 ATP        -0.5544
     19 C2'         0.5176    0.9128    0.3099 C.3       1 ATP         0.0542
     20 O2'        -0.2103    1.4454    1.4152 O.3       1 ATP        -0.5831
     21 C1'         0.6219    1.9765   -0.7844 C.3       1 ATP         0.2222
     22 N9          0.4237    1.4496   -2.1357 N.pl3     1 ATP        -0.1887
     23 C8          1.4069    0.9710   -2.9662 C.ar      1 ATP         0.4447
     24 N7          0.9316    0.5623   -4.1260 N.2       1 ATP        -0.6159
     25 C5         -0.4120    0.7884   -4.0344 C.ar      1 ATP         0.2195
     26 C6         -1.4353    0.5283   -5.0204 C.ar      1 ATP         0.6144
     27 N6         -1.1199    0.0176   -6.1586 N.2       1 ATP        -0.8160
     28 N1         -2.6704    0.9095   -4.5147 N.pl3     1 ATP        -0.8611
     29 C2         -2.8863    1.4571   -3.2520 C.ar      1 ATP         0.6141
     30 N3         -1.9805    1.7017   -2.3442 N.2       1 ATP        -0.5913
     31 C4         -0.7561    1.3381   -2.8112 C.ar      1 ATP         0.0067
     32 HOG3        7.1434    0.8531   -6.5530 H         1 ATP         0.4313
     33 HOB2        7.6314    4.9048   -3.9519 H         1 ATP         0.4716
     34 H5'1        4.6070    1.5617    1.0934 H         1 ATP         0.0452
     35 H5'2        4.4825    2.9836    0.0252 H         1 ATP         0.0452
     36 H4'         2.3751    2.7029    1.3156 H         1 ATP         0.0998
     37 H3'         2.4336   -0.1217   -0.0015 H         1 ATP         0.0544
     38 HO3'        1.7160   -0.6716    2.0397 H         1 ATP         0.3961
     39 H2'         0.0316    0.0155   -0.0339 H         1 ATP         0.0499
     40 HO2'       -0.1608    0.7921    2.1351 H         1 ATP         0.4045
     41 H1'        -0.1474    2.7798   -0.6651 H         1 ATP         0.0912
     42 H8          2.4466    0.9468   -2.6694 H         1 ATP         0.1090
     43 HN62       -1.9661   -0.0965   -6.7275 H         1 ATP         0.3694
     44 H2         -3.9481    1.6825   -3.0660 H         1 ATP         0.0371
     45 H45        -3.4814    0.7753   -5.1133 H         1 ATP         0.4283
@<TRIPOS>BOND
     1    1    2 2
     2    1    3 1
     3    1    4 1
     4    1    8 1
     5    4   32 1
     6    5    6 2
     7    5    7 1
     8    5    8 1
     9    5   12 1
    10    7   33 1
    11    9   10 2
    12    9   11 1
    13    9   12 1
    14    9   13 1
    15   13   14 1
    16   14   15 1
    17   14   34 1
    18   14   35 1
    19   15   16 1
    20   15   17 1
    21   15   36 1
    22   16   21 1
    23   17   18 1
    24   17   19 1
    25   17   37 1
    26   18   38 1
    27   19   20 1
    28   19   21 1
    29   19   39 1
    30   20   40 1
    31   21   22 1
    32   21   41 1
    33   22   23 ar
    34   22   31 ar
    35   23   24 ar
    36   23   42 1
    37   24   25 ar
    38   25   26 ar
    39   25   31 ar
    40   26   27 2
    41   26   28 ar
    42   27   43 1
    43   28   29 ar
    44   28   45 1
    45   29   30 ar
    46   29   44 1
    47   30   31 ar
@<TRIPOS>SUBSTRUCTURE
     1 ATP         1 GROUP 0 A     ****
@<TRIPOS>MOLECULE
[[[3,4-dihydroxy-5-(6-imino-1~{H}-purin-9-yl)tetrahydrofuran-2-yl]methoxy-oxido-phosphoryl]oxy-hydroxy-phosphoryl] hydrogen phosphate
   45    47     1     0     0
SMALL
USER_CHARGES

@<TRIPOS>ATOM
      1 PG          8.5578   -2.3016   -1.7487 P.3       1 ATP         1.5496
      2 O1G         7.9615   -3.2672   -2.7486 O.co2     1 ATP        -0.8494
      3 O2G         9.5944   -2.7612   -0.7479 O.co2     1 ATP        -0.8494
      4 O3G         9.1551   -1.0174   -2.5611 O.3       1 ATP        -0.7845
      5 PB          6.2538   -2.1307    0.0845 P.3       1 ATP         1.9068
      6 O1B         5.3623   -3.2068   -0.4609 O.2       1 ATP        -0.8942
      7 O2B         7.1352   -2.5575    1.3707 O.3       1 ATP        -0.8166
      8 O3B         7.3479   -1.5500   -0.9540 O.3       1 ATP        -0.8194
      9 PA          6.1201    0.6015    1.1882 P.3       1 ATP         1.5903
     10 O1A         6.9864    1.2777    0.1479 O.co2     1 ATP        -0.8519
     11 O2A         6.6660    0.2886    2.5644 O.co2     1 ATP        -0.8519
     12 O3A         5.5121   -0.7744    0.5532 O.3       1 ATP        -0.8093
     13 O5'         4.7294    1.4426    1.3698 O.3       1 ATP        -0.5649
     14 C5'         4.0922    1.9801    0.2227 C.3       1 ATP         0.1979
     15 C4'         2.5944    2.0310    0.4653 C.3       1 ATP         0.1179
     16 O4'         1.9327    2.5740   -0.6889 O.3       1 ATP        -0.3878
     17 C3'         1.9685    0.6634    0.6767 C.3       1 ATP         0.1185
     18 O3'         2.1425    0.1975    1.9977 O.3       1 ATP        -0.5544
     19 C2'         0.5176    0.9128    0.3099 C.3       1 ATP         0.0542
     20 O2'        -0.2103    1.4454    1.4152 O.3       1 ATP        -0.5831
     21 C1'         0.6219    1.9765   -0.7844 C.3       1 ATP         0.2222
     22 N9          0.4237    1.4496   -2.1357 N.pl3     1 ATP        -0.1887
     23 C8          1.4069    0.9710   -2.9662 C.ar      1 ATP         0.4447
     24 N7          0.9316    0.5623   -4.1260 N.2       1 ATP        -0.6159
     25 C5         -0.4120    0.7884   -4.0344 C.ar      1 ATP         0.2195
     26 C6         -1.4353    0.5283   -5.0204 C.ar      1 ATP         0.6144
     27 N6         -1.1199    0.0176   -6.1586 N.2       1 ATP        -0.8160
     28 N1         -2.6704    0.9095   -4.5147 N.pl3     1 ATP        -0.8611
     29 C2         -2.8863    1.4571   -3.2520 C.ar      1 ATP         0.6141
     30 N3         -1.9805    1.7017   -2.3442 N.2       1 ATP        -0.5913
     31 C4         -0.7561    1.3381   -2.8112 C.ar      1 ATP         0.0067
     32 HOG3        9.5789   -0.2966   -2.0482 H         1 ATP         0.4313
     33 HOB2        6.6745   -2.8504    2.1857 H         1 ATP         0.4716
     34 H5'1        4.4844    2.9853    0.0382 H         1 ATP         0.0452
     35 H5'2        4.3192    1.3445   -0.6391 H         1 ATP         0.0452
     36 H4'         2.3751    2.7029    1.3156 H         1 ATP         0.0998
     37 H3'         2.4336   -0.1217   -0.0015 H         1 ATP         0.0544
     38 HO3'        3.0987    0.1465    2.1461 H         1 ATP         0.3961
     39 H2'         0.0316    0.0155   -0.0339 H         1 ATP         0.0499
     40 HO2'       -0.1608    0.7921    2.1351 H         1 ATP         0.4045
     41 H1'        -0.1474    2.7798   -0.6651 H         1 ATP         0.0912
     42 H8          2.4466    0.9468   -2.6694 H         1 ATP         0.1090
     43 HN62       -1.9661   -0.0965   -6.7275 H         1 ATP         0.3694
     44 H2         -3.9481    1.6825   -3.0660 H         1 ATP         0.0371
     45 H45        -3.4814    0.7753   -5.1133 H         1 ATP         0.4283
@<TRIPOS>BOND
     1    1    2 2
     2    1    3 1
     3    1    4 1
     4    1    8 1
     5    4   32 1
     6    5    6 2
     7    5    7 1
     8    5    8 1
     9    5   12 1
    10    7   33 1
    11    9   10 2
    12    9   11 1
    13    9   12 1
    14    9   13 1
    15   13   14 1
    16   14   15 1
    17   14   34 1
    18   14   35 1
    19   15   16 1
    20   15   17 1
    21   15   36 1
    22   16   21 1
    23   17   18 1
    24   17   19 1
    25   17   37 1
    26   18   38 1
    27   19   20 1
    28   19   21 1
    29   19   39 1
    30   20   40 1
    31   21   22 1
    32   21   41 1
    33   22   23 ar
    34   22   31 ar
    35   23   24 ar
    36   23   42 1
    37   24   25 ar
    38   25   26 ar
    39   25   31 ar
    40   26   27 2
    41   26   28 ar
    42   27   43 1
    43   28   29 ar
    44   28   45 1
    45   29   30 ar
    46   29   44 1
    47   30   31 ar
@<TRIPOS>SUBSTRUCTURE
     1 ATP         1 GROUP 0 A     ****
@<TRIPOS>MOLECULE
[[[3,4-dihydroxy-5-(6-imino-1~{H}-purin-9-yl)tetrahydrofuran-2-yl]methoxy-oxido-phosphoryl]oxy-hydroxy-phosphoryl] hydrogen phosphate
   45    47     1     0     0
SMALL
USER_CHARGES

@<TRIPOS>ATOM
      1 PG         -0.1915    8.2578    4.1839 P.3       1 ATP         1.5496
      2 O1G        -1.4398    8.7803    4.8595 O.co2     1 ATP        -0.8494
      3 O2G         0.8233    9.2064    3.5859 O.co2     1 ATP        -0.8494
      4 O3G         0.5799    7.2598    5.2209 O.3       1 ATP        -0.7845
      5 PB         -1.5436    5.8374    3.1783 P.3       1 ATP         1.9068
      6 O1B        -1.0541    4.8019    4.1469 O.2       1 ATP        -0.8942
      7 O2B        -3.0168    6.4257    3.4903 O.3       1 ATP        -0.8166
      8 O3B        -0.6210    7.1591    3.0576 O.3       1 ATP        -0.8194
      9 PA         -0.4664    4.8322    0.6228 P.3       1 ATP         1.5903
     10 O1A         0.6558    5.8467    0.5865 O.co2     1 ATP        -0.8519
     11 O2A        -1.1276    4.3642   -0.6553 O.co2     1 ATP        -0.8519
     12 O3A        -1.6298    5.3702    1.6343 O.3       1 ATP        -0.8093
     13 O5'         0.0180    3.5131    1.4595 O.3       1 ATP        -0.5649
     14 C5'        -0.8811    2.4285    1.6206 C.3       1 ATP         0.1979
     15 C4'        -0.1994    1.3333    2.4288 C.3       1 ATP         0.1179
     16 O4'        -1.1285    0.2356    2.5840 O.3       1 ATP        -0.3878
     17 C3'         1.0324    0.7610    1.7344 C.3       1 ATP         0.1185
     18 O3'         1.9175    0.2377    2.7247 O.3       1 ATP        -0.5544
     19 C2'         0.4468   -0.3802    0.9263 C.3       1 ATP         0.0542
     20 O2'         1.3993   -1.3703    0.5961 O.3       1 ATP        -0.5831
     21 C1'        -0.6159   -0.9100    1.8769 C.3       1 ATP         0.2222
     22 N9         -1.7127   -1.6108    1.2130 N.pl3     1 ATP        -0.1887
     23 C8         -1.7690   -2.9583    0.9549 C.ar      1 ATP         0.4447
     24 N7         -2.8827   -3.3076    0.3418 N.2       1 ATP        -0.6159
     25 C5         -3.5683   -2.1351    0.2017 C.ar      1 ATP         0.2195
     26 C6         -4.8617   -1.9185   -0.4044 C.ar      1 ATP         0.6144
     27 N6         -5.5166   -2.9094   -0.8994 N.2       1 ATP        -0.8160
     28 N1         -5.1836   -0.5701   -0.3344 N.pl3     1 ATP        -0.8611
     29 C2         -4.3821    0.4180    0.2330 C.ar      1 ATP         0.6141
     30 N3         -3.2117    0.2488    0.7860 N.2       1 ATP        -0.5913
     31 C4         -2.8672   -1.0657    0.7327 C.ar      1 ATP         0.0067
     32 HOG3        0.1052    6.4643    5.5434 H         1 ATP         0.4313
     33 HOB2       -3.1753    6.8791    4.3456 H         1 ATP         0.4716
     34 H5'1       -1.7770    2.7851    2.1387 H         1 ATP         0.0452
     35 H5'2       -1.1653    2.0543    0.6320 H         1 ATP         0.0452
     36 H4'         0.0403    1.7078    3.4343 H         1 ATP         0.0998
     37 H3'         1.5906    1.4859    1.1353 H         1 ATP         0.0544
     38 HO3'        2.1521    0.9800    3.3017 H         1 ATP         0.3961
     39 H2'        -0.0017    0.0018    0.0005 H         1 ATP         0.0499
     40 HO2'        0.9369   -2.0558    0.0825 H         1 ATP         0.4045
     41 H1'        -0.1998   -1.6319    2.6178 H         1 ATP         0.0912
     42 H8         -0.9697   -3.6300    1.2371 H         1 ATP         0.1090
     43 HN62       -6.4060   -2.5723   -1.2840 H         1 ATP         0.3694
     44 H2         -4.8409    1.4176    0.1757 H         1 ATP         0.0371
     45 H45        -6.0768   -0.2826   -0.7263 H         1 ATP         0.4283
@<TRIPOS>BOND
     1    1    2 2
     2    1    3 1
     3    1    4 1
     4    1    8 1
     5    4   32 1
     6    5    6 2
     7    5    7 1
     8    5    8 1
     9    5   12 1
    10    7   33 1
    11    9   10 2
    12    9   11 1
    13    9   12 1
    14    9   13 1
    15   13   14 1
    16   14   15 1
    17   14   34 1
    18   14   35 1
    19   15   16 1
    20   15   17 1
    21   15   36 1
    22   16   21 1
    23   17   18 1
    24   17   19 1
    25   17   37 1
    26   18   38 1
    27   19   20 1
    28   19   21 1
    29   19   39 1
    30   20   40 1
    31   21   22 1
    32   21   41 1
    33   22   23 ar
    34   22   31 ar
    35   23   24 ar
    36   23   42 1
    37   24   25 ar
    38   25   26 ar
    39   25   31 ar
    40   26   27 2
    41   26   28 ar
    42   27   43 1
    43   28   29 ar
    44   28   45 1
    45   29   30 ar
    46   29   44 1
    47   30   31 ar
@<TRIPOS>SUBSTRUCTURE
     1 ATP         1 GROUP 0 A     ****
@<TRIPOS>MOLECULE
[[[3,4-dihydroxy-5-(6-imino-1~{H}-purin-9-yl)tetrahydrofuran-2-yl]methoxy-oxido-phosphoryl]oxy-hydroxy-phosphoryl] hydrogen phosphate
   45    47     1     0     0
SMALL
USER_CHARGES

@<TRIPOS>ATOM
      1 PG          6.2946   -3.9586   -0.7303 P.3       1 ATP         1.5496
      2 O1G         4.8467   -4.3928   -0.6764 O.co2     1 ATP        -0.8494
      3 O2G         7.3140   -4.5323    0.2283 O.co2     1 ATP        -0.8494
      4 O3G         6.8416   -4.1669   -2.2546 O.3       1 ATP        -0.7845
      5 PB          5.9787   -1.3112    0.5304 P.3       1 ATP         1.9068
      6 O1B         4.5528   -1.3726    0.9924 O.2       1 ATP        -0.8942
      7 O2B         7.0822   -1.6258    1.6692 O.3       1 ATP        -0.8166
      8 O3B         6.3604   -2.3302   -0.6649 O.3       1 ATP        -0.8194
      9 PA          5.8978    0.9308   -1.3849 P.3       1 ATP         1.5903
     10 O1A         5.9208    0.0232   -2.5955 O.co2     1 ATP        -0.8519
     11 O2A         6.5852    2.2785   -1.4154 O.co2     1 ATP        -0.8519
     12 O3A         6.4548    0.1006   -0.0939 O.3       1 ATP        -0.8093
     13 O5'         4.3515    1.1574   -0.9027 O.3       1 ATP        -0.5649
     14 C5'         4.0922    1.9801    0.2227 C.3       1 ATP         0.1979
     15 C4'         2.5944    2.0310    0.4653 C.3       1 ATP         0.1179
     16 O4'         1.9327    2.5740   -0.6889 O.3       1 ATP        -0.3878
     17 C3'         1.9685    0.6634    0.6767 C.3       1 ATP         0.1185
     18 O3'         2.1425    0.1975    1.9977 O.3       1 ATP        -0.5544
     19 C2'         0.5176    0.9128    0.3099 C.3       1 ATP         0.0542
     20 O2'        -0.2103    1.4454    1.4152 O.3       1 ATP        -0.5831
     21 C1'         0.6219    1.9765   -0.7844 C.3       1 ATP         0.2222
     22 N9          0.4237    1.4496   -2.1357 N.pl3     1 ATP        -0.1887
     23 C8          1.4069    0.9710   -2.9662 C.ar      1 ATP         0.4447
     24 N7          0.9316    0.5623   -4.1260 N.2       1 ATP        -0.6159
     25 C5         -0.4120    0.7884   -4.0344 C.ar      1 ATP         0.2195
     26 C6         -1.4353    0.5283   -5.0204 C.ar      1 ATP         0.6144
     27 N6         -1.1199    0.0176   -6.1586 N.2       1 ATP        -0.8160
     28 N1         -2.6704    0.9095   -4.5147 N.pl3     1 ATP        -0.8611
     29 C2         -2.8863    1.4571   -3.2520 C.ar      1 ATP         0.6141
     30 N3         -1.9805    1.7017   -2.3442 N.2       1 ATP        -0.5913
     31 C4         -0.7561    1.3381   -2.8112 C.ar      1 ATP         0.0067
     32 HOG3        7.7722   -3.9284   -2.4532 H         1 ATP         0.4313
     33 HOB2        7.0672   -2.4989    2.1161 H         1 ATP         0.4716
     34 H5'1        4.6070    1.5617    1.0934 H         1 ATP         0.0452
     35 H5'2        4.4825    2.9836    0.0252 H         1 ATP         0.0452
     36 H4'         2.3751    2.7029    1.3156 H         1 ATP         0.0998
     37 H3'         2.4336   -0.1217   -0.0015 H         1 ATP         0.0544
     38 HO3'        1.7160   -0.6716    2.0397 H         1 ATP         0.3961
     39 H2'         0.0316    0.0155   -0.0339 H         1 ATP         0.0499
     40 HO2'       -0.1608    0.7921    2.1351 H         1 ATP         0.4045
     41 H1'        -0.1474    2.7798   -0.6651 H         1 ATP         0.0912
     42 H8          2.4466    0.9468   -2.6694 H         1 ATP         0.1090
     43 HN62       -1.9661   -0.0965   -6.7275 H         1 ATP         0.3694
     44 H2         -3.9481    1.6825   -3.0660 H         1 ATP         0.0371
     45 H45        -3.4814    0.7753   -5.1133 H         1 ATP         0.4283
@<TRIPOS>BOND
     1    1    2 2
     2    1    3 1
     3    1    4 1
     4    1    8 1
     5    4   32 1
     6    5    6 2
     7    5    7 1
     8    5    8 1
     9    5   12 1
    10    7   33 1
    11    9   10 2
    12    9   11 1
    13    9   12 1
    14    9   13 1
    15   13   14 1
    16   14   15 1
    17   14   34 1
    18   14   35 1
    19   15   16 1
    20   15   17 1
    21   15   36 1
    22   16   21 1
    23   17   18 1
    24   17   19 1
    25   17   37 1
    26   18   38 1
    27   19   20 1
    28   19   21 1
    29   19   39 1
    30   20   40 1
    31   21   22 1
    32   21   41 1
    33   22   23 ar
    34   22   31 ar
    35   23   24 ar
    36   23   42 1
    37   24   25 ar
    38   25   26 ar
    39   25   31 ar
    40   26   27 2
    41   26   28 ar
    42   27   43 1
    43   28   29 ar
    44   28   45 1
    45   29   30 ar
    46   29   44 1
    47   30   31 ar
@<TRIPOS>SUBSTRUCTURE
     1 ATP         1 GROUP 0 A     ****
@<TRIPOS>MOLECULE
[[[3,4-dihydroxy-5-(6-imino-1~{H}-purin-9-yl)tetrahydrofuran-2-yl]methoxy-oxido-phosphoryl]oxy-hydroxy-phosphoryl] hydrogen phosphate
   45    47     1     0     0
SMALL
USER_CHARGES

@<TRIPOS>ATOM
      1 PG         -4.9002    5.7149    0.9789 P.3       1 ATP         1.5496
      2 O1G        -3.5406    6.3765    0.9412 O.co2     1 ATP        -0.8494
      3 O2G        -5.4381    5.1171    2.2598 O.co2     1 ATP        -0.8494
      4 O3G        -6.0044    6.7658    0.3936 O.3       1 ATP        -0.7845
      5 PB         -4.1740    3.2017   -0.3828 P.3       1 ATP         1.9068
      6 O1B        -4.3762    2.2013    0.7166 O.2       1 ATP        -0.8942
      7 O2B        -4.6071    2.6974   -1.8564 O.3       1 ATP        -0.8166
      8 O3B        -4.9751    4.5941   -0.2036 O.3       1 ATP        -0.8194
      9 PA         -1.2907    2.9170   -0.9365 P.3       1 ATP         1.5903
     10 O1A        -0.1221    3.8762   -0.8700 O.co2     1 ATP        -0.8519
     11 O2A        -1.5398    2.0863   -2.1765 O.co2     1 ATP        -0.8519
     12 O3A        -2.6608    3.7311   -0.5813 O.3       1 ATP        -0.8093
     13 O5'        -1.2434    1.9102    0.3514 O.3       1 ATP        -0.5649
     14 C5'        -0.8811    2.4285    1.6206 C.3       1 ATP         0.1979
     15 C4'        -0.1994    1.3333    2.4288 C.3       1 ATP         0.1179
     16 O4'        -1.1285    0.2356    2.5840 O.3       1 ATP        -0.3878
     17 C3'         1.0324    0.7610    1.7344 C.3       1 ATP         0.1185
     18 O3'         1.9175    0.2377    2.7247 O.3       1 ATP        -0.5544
     19 C2'         0.4468   -0.3802    0.9263 C.3       1 ATP         0.0542
     20 O2'         1.3993   -1.3703    0.5961 O.3       1 ATP        -0.5831
     21 C1'        -0.6159   -0.9100    1.8769 C.3       1 ATP         0.2222
     22 N9         -1.7127   -1.6108    1.2130 N.pl3     1 ATP        -0.1887
     23 C8         -2.8662   -1.0361    0.7388 C.ar      1 ATP         0.4447
     24 N7         -3.6774   -1.9166    0.1867 N.2       1 ATP        -0.6159
     25 C5         -3.0159   -3.1045    0.3123 C.ar      1 ATP         0.2195
     26 C6         -3.4377   -4.4169   -0.1199 C.ar      1 ATP         0.6144
     27 N6         -4.5720   -4.5691   -0.7080 N.2       1 ATP        -0.8160
     28 N1         -2.4600   -5.3463    0.2071 N.pl3     1 ATP        -0.8611
     29 C2         -1.2595   -5.0554    0.8515 C.ar      1 ATP         0.6141
     30 N3         -0.8555   -3.8803    1.2516 N.2       1 ATP        -0.5913
     31 C4         -1.7946   -2.9457    0.9448 C.ar      1 ATP         0.0067
     32 HOG3       -6.9426    6.4823    0.3525 H         1 ATP         0.4313
     33 HOB2       -4.1652    1.9086   -2.2369 H         1 ATP         0.4716
     34 H5'1       -0.2034    3.2760    1.4767 H         1 ATP         0.0452
     35 H5'2       -1.7842    2.7761    2.1322 H         1 ATP         0.0452
     36 H4'         0.0403    1.7078    3.4343 H         1 ATP         0.0998
     37 H3'         1.5906    1.4859    1.1353 H         1 ATP         0.0544
     38 HO3'        2.6839   -0.1150    2.2479 H         1 ATP         0.3961
     39 H2'        -0.0017    0.0018    0.0005 H         1 ATP         0.0499
     40 HO2'        2.0953   -0.9375    0.0709 H         1 ATP         0.4045
     41 H1'        -0.1998   -1.6319    2.6178 H         1 ATP         0.0912
     42 H8         -3.0558    0.0252    0.8256 H         1 ATP         0.1090
     43 HN62       -4.7047   -5.5592   -0.9421 H         1 ATP         0.3694
     44 H2         -0.6372   -5.9505    1.0077 H         1 ATP         0.0371
     45 H45        -2.6338   -6.3155   -0.0469 H         1 ATP         0.4283
@<TRIPOS>BOND
     1    1    2 2
     2    1    3 1
     3    1    4 1
     4    1    8 1
     5    4   32 1
     6    5    6 2
     7    5    7 1
     8    5    8 1
     9    5   12 1
    10    7   33 1
    11    9   10 2
    12    9   11 1
    13    9   12 1
    14    9   13 1
    15   13   14 1
    16   14   15 1
    17   14   34 1
    18   14   35 1
    19   15   16 1
    20   15   17 1
    21   15   36 1
    22   16   21 1
    23   17   18 1
    24   17   19 1
    25   17   37 1
    26   18   38 1
    27   19   20 1
    28   19   21 1
    29   19   39 1
    30   20   40 1
    31   21   22 1
    32   21   41 1
    33   22   23 ar
    34   22   31 ar
    35   23   24 ar
    36   23   42 1
    37   24   25 ar
    38   25   26 ar
    39   25   31 ar
    40   26   27 2
    41   26   28 ar
    42   27   43 1
    43   28   29 ar
    44   28   45 1
    45   29   30 ar
    46   29   44 1
    47   30   31 ar
@<TRIPOS>SUBSTRUCTURE
     1 ATP         1 GROUP 0 A     ****
@<TRIPOS>MOLECULE
[[[3,4-dihydroxy-5-(6-imino-1~{H}-purin-9-yl)tetrahydrofuran-2-yl]methoxy-oxido-phosphoryl]oxy-hydroxy-phosphoryl] hydrogen phosphate
   45    47     1     0     0
SMALL
USER_CHARGES

@<TRIPOS>ATOM
      1 PG         -5.6377    6.3300    0.2377 P.3       1 ATP         1.5496
      2 O1G        -5.5287    7.5743   -0.6152 O.co2     1 ATP        -0.8494
      3 O2G        -6.4104    6.3443    1.5377 O.co2     1 ATP        -0.8494
      4 O3G        -6.2076    5.1136   -0.6907 O.3       1 ATP        -0.7845
      5 PB         -2.9145    6.3656    1.3694 P.3       1 ATP         1.9068
      6 O1B        -2.4173    7.7008    0.8999 O.2       1 ATP        -0.8942
      7 O2B        -3.4540    6.3323    2.8931 O.3       1 ATP        -0.8166
      8 O3B        -4.1399    5.7473    0.5156 O.3       1 ATP        -0.8194
      9 PA         -0.3961    4.9845    2.0411 P.3       1 ATP         1.5903
     10 O1A        -0.6131    4.8933    3.5359 O.co2     1 ATP        -0.8519
     11 O2A         0.5549    6.0073    1.4587 O.co2     1 ATP        -0.8519
     12 O3A        -1.8451    5.1565    1.3083 O.3       1 ATP        -0.8093
     13 O5'         0.0180    3.5131    1.4595 O.3       1 ATP        -0.5649
     14 C5'        -0.8811    2.4285    1.6206 C.3       1 ATP         0.1979
     15 C4'        -0.1994    1.3333    2.4288 C.3       1 ATP         0.1179
     16 O4'        -1.1285    0.2356    2.5840 O.3       1 ATP        -0.3878
     17 C3'         1.0324    0.7610    1.7344 C.3       1 ATP         0.1185
     18 O3'         1.9175    0.2377    2.7247 O.3       1 ATP        -0.5544
     19 C2'         0.4468   -0.3802    0.9263 C.3       1 ATP         0.0542
     20 O2'         1.3993   -1.3703    0.5961 O.3       1 ATP        -0.5831
     21 C1'        -0.6159   -0.9100    1.8769 C.3       1 ATP         0.2222
     22 N9         -1.7127   -1.6108    1.2130 N.pl3     1 ATP        -0.1887
     23 C8         -2.5485   -1.0808    0.2609 C.ar      1 ATP         0.4447
     24 N7         -3.4476   -1.9486   -0.1593 N.2       1 ATP        -0.6159
     25 C5         -3.1762   -3.0816    0.5530 C.ar      1 ATP         0.2195
     26 C6         -3.8510   -4.3579    0.5006 C.ar      1 ATP         0.6144
     27 N6         -4.8468   -4.5293   -0.2961 N.2       1 ATP        -0.8160
     28 N1         -3.2499   -5.2342    1.3937 N.pl3     1 ATP        -0.8611
     29 C2         -2.1646   -4.9275    2.2116 C.ar      1 ATP         0.6141
     30 N3         -1.5382   -3.7840    2.2778 N.2       1 ATP        -0.5913
     31 C4         -2.1054   -2.9018    1.4120 C.ar      1 ATP         0.0067
     32 HOG3       -6.3353    4.2326   -0.2789 H         1 ATP         0.4313
     33 HOB2       -2.8389    6.5695    3.6195 H         1 ATP         0.4716
     34 H5'1       -1.7770    2.7851    2.1387 H         1 ATP         0.0452
     35 H5'2       -1.1653    2.0543    0.6320 H         1 ATP         0.0452
     36 H4'         0.0403    1.7078    3.4343 H         1 ATP         0.0998
     37 H3'         1.5906    1.4859    1.1353 H         1 ATP         0.0544
     38 HO3'        2.6839   -0.1150    2.2479 H         1 ATP         0.3961
     39 H2'        -0.0017    0.0018    0.0005 H         1 ATP         0.0499
     40 HO2'        0.9369   -2.0558    0.0825 H         1 ATP         0.4045
     41 H1'        -0.1998   -1.6319    2.6178 H         1 ATP         0.0912
     42 H8         -2.4515   -0.0599   -0.0829 H         1 ATP         0.1090
     43 HN62       -5.1990   -5.4882   -0.2004 H         1 ATP         0.3694
     44 H2         -1.8555   -5.7783    2.8388 H         1 ATP         0.0371
     45 H45        -3.6312   -6.1750    1.4526 H         1 ATP         0.4283
@<TRIPOS>BOND
     1    1    2 2
     2    1    3 1
     3    1    4 1
     4    1    8 1
     5    4   32 1
     6    5    6 2
     7    5    7 1
     8    5    8 1
     9    5   12 1
    10    7   33 1
    11    9   10 2
    12    9   11 1
    13    9   12 1
    14    9   13 1
    15   13   14 1
    16   14   15 1
    17   14   34 1
    18   14   35 1
    19   15   16 1
    20   15   17 1
    21   15   36 1
    22   16   21 1
    23   17   18 1
    24   17   19 1
    25   17   37 1
    26   18   38 1
    27   19   20 1
    28   19   21 1
    29   19   39 1
    30   20   40 1
    31   21   22 1
    32   21   41 1
    33   22   23 ar
    34   22   31 ar
    35   23   24 ar
    36   23   42 1
    37   24   25 ar
    38   25   26 ar
    39   25   31 ar
    40   26   27 2
    41   26   28 ar
    42   27   43 1
    43   28   29 ar
    44   28   45 1
    45   29   30 ar
    46   29   44 1
    47   30   31 ar
@<TRIPOS>SUBSTRUCTURE
     1 ATP         1 GROUP 0 A     ****
@<TRIPOS>MOLECULE
[[[3,4-dihydroxy-5-(6-imino-1~{H}-purin-9-yl)tetrahydrofuran-2-yl]methoxy-oxido-phosphoryl]oxy-hydroxy-phosphoryl] hydrogen phosphate
   45    47     1     0     0
SMALL
USER_CHARGES

@<TRIPOS>ATOM
      1 PG         -5.4122    6.9706    0.0188 P.3       1 ATP         1.5496
      2 O1G        -5.8835    6.6461   -1.3813 O.co2     1 ATP        -0.8494
      3 O2G        -5.1943    8.4029    0.4528 O.co2     1 ATP        -0.8494
      4 O3G        -6.4206    6.2537    1.0843 O.3       1 ATP        -0.7845
      5 PB         -2.5848    6.1980   -0.3083 P.3       1 ATP         1.9068
      6 O1B        -2.5146    5.9544   -1.7869 O.2       1 ATP        -0.8942
      7 O2B        -2.0442    7.6431    0.1745 O.3       1 ATP        -0.8166
      8 O3B        -4.0647    6.1080    0.3356 O.3       1 ATP        -0.8194
      9 PA         -0.1843    4.7787    0.6530 P.3       1 ATP         1.5903
     10 O1A         0.5895    5.9925    1.1198 O.co2     1 ATP        -0.8519
     11 O2A         0.1721    4.0862   -0.6444 O.co2     1 ATP        -0.8519
     12 O3A        -1.7738    5.1502    0.6157 O.3       1 ATP        -0.8093
     13 O5'        -0.2061    3.6558    1.8418 O.3       1 ATP        -0.5649
     14 C5'        -0.8811    2.4285    1.6206 C.3       1 ATP         0.1979
     15 C4'        -0.1994    1.3333    2.4288 C.3       1 ATP         0.1179
     16 O4'        -1.1285    0.2356    2.5840 O.3       1 ATP        -0.3878
     17 C3'         1.0324    0.7610    1.7344 C.3       1 ATP         0.1185
     18 O3'         1.9175    0.2377    2.7247 O.3       1 ATP        -0.5544
     19 C2'         0.4468   -0.3802    0.9263 C.3       1 ATP         0.0542
     20 O2'         1.3993   -1.3703    0.5961 O.3       1 ATP        -0.5831
     21 C1'        -0.6159   -0.9100    1.8769 C.3       1 ATP         0.2222
     22 N9         -1.7127   -1.6108    1.2130 N.pl3     1 ATP        -0.1887
     23 C8         -1.7690   -2.9583    0.9549 C.ar      1 ATP         0.4447
     24 N7         -2.8827   -3.3076    0.3418 N.2       1 ATP        -0.6159
     25 C5         -3.5683   -2.1351    0.2017 C.ar      1 ATP         0.2195
     26 C6         -4.8617   -1.9185   -0.4044 C.ar      1 ATP         0.6144
     27 N6         -5.5166   -2.9094   -0.8994 N.2       1 ATP        -0.8160
     28 N1         -5.1836   -0.5701   -0.3344 N.pl3     1 ATP        -0.8611
     29 C2         -4.3821    0.4180    0.2330 C.ar      1 ATP         0.6141
     30 N3         -3.2117    0.2488    0.7860 N.2       1 ATP        -0.5913
     31 C4         -2.8672   -1.0657    0.7327 C.ar      1 ATP         0.0067
     32 HOG3       -6.2470    6.3707    2.0426 H         1 ATP         0.4313
     33 HOB2       -1.1127    7.8878   -0.0120 H         1 ATP         0.4716
     34 H5'1       -1.9255    2.5382    1.9293 H         1 ATP         0.0452
     35 H5'2       -0.8473    2.1932    0.5521 H         1 ATP         0.0452
     36 H4'         0.0403    1.7078    3.4343 H         1 ATP         0.0998
     37 H3'         1.5906    1.4859    1.1353 H         1 ATP         0.0544
     38 HO3'        2.6839   -0.1150    2.2479 H         1 ATP         0.3961
     39 H2'        -0.0017    0.0018    0.0005 H         1 ATP         0.0499
     40 HO2'        2.0953   -0.9375    0.0709 H         1 ATP         0.4045
     41 H1'        -0.1998   -1.6319    2.6178 H         1 ATP         0.0912
     42 H8         -0.9697   -3.6300    1.2371 H         1 ATP         0.1090
     43 HN62       -6.4060   -2.5723   -1.2840 H         1 ATP         0.3694
     44 H2         -4.8409    1.4176    0.1757 H         1 ATP         0.0371
     45 H45        -6.0768   -0.2826   -0.7263 H         1 ATP         0.4283
@<TRIPOS>BOND
     1    1    2 2
     2    1    3 1
     3    1    4 1
     4    1    8 1
     5    4   32 1
     6    5    6 2
     7    5    7 1
     8    5    8 1
     9    5   12 1
    10    7   33 1
    11    9   10 2
    12    9   11 1
    13    9   12 1
    14    9   13 1
    15   13   14 1
    16   14   15 1
    17   14   34 1
    18   14   35 1
    19   15   16 1
    20   15   17 1
    21   15   36 1
    22   16   21 1
    23   17   18 1
    24   17   19 1
    25   17   37 1
    26   18   38 1
    27   19   20 1
    28   19   21 1
    29   19   39 1
    30   20   40 1
    31   21   22 1
    32   21   41 1
    33   22   23 ar
    34   22   31 ar
    35   23   24 ar
    36   23   42 1
    37   24   25 ar
    38   25   26 ar
    39   25   31 ar
    40   26   27 2
    41   26   28 ar
    42   27   43 1
    43   28   29 ar
    44   28   45 1
    45   29   30 ar
    46   29   44 1
    47   30   31 ar
@<TRIPOS>SUBSTRUCTURE
     1 ATP         1 GROUP 0 A     ****
@<TRIPOS>MOLECULE
[[[3,4-dihydroxy-5-(6-imino-1~{H}-purin-9-yl)tetrahydrofuran-2-yl]methoxy-oxido-phosphoryl]oxy-hydroxy-phosphoryl] hydrogen phosphate
   45    47     1     0     0
SMALL
USER_CHARGES

@<TRIPOS>ATOM
      1 PG          9.1218    2.6139    4.4739 P.3       1 ATP         1.5496
      2 O1G         9.8130    3.9075    4.8437 O.co2     1 ATP        -0.8494
      3 O2G         9.9209    1.3837    4.1059 O.co2     1 ATP        -0.8494
      4 O3G         8.0850    2.2194    5.6721 O.3       1 ATP        -0.7845
      5 PB          8.2497    3.3731    1.7608 P.3       1 ATP         1.9068
      6 O1B         8.9597    4.6818    1.5780 O.2       1 ATP        -0.8942
      7 O2B         8.9740    2.0993    1.0779 O.3       1 ATP        -0.8166
      8 O3B         8.0347    2.9141    3.2957 O.3       1 ATP        -0.8194
      9 PA          6.1592    3.5242   -0.3148 P.3       1 ATP         1.5903
     10 O1A         6.6758    2.4088   -1.1974 O.co2     1 ATP        -0.8519
     11 O2A         6.3637    4.9731   -0.7001 O.co2     1 ATP        -0.8519
     12 O3A         6.7372    3.3096    1.1971 O.3       1 ATP        -0.8093
     13 O5'         4.5669    3.2939   -0.0211 O.3       1 ATP        -0.5649
     14 C5'         4.0922    1.9801    0.2227 C.3       1 ATP         0.1979
     15 C4'         2.5944    2.0310    0.4653 C.3       1 ATP         0.1179
     16 O4'         1.9327    2.5740   -0.6889 O.3       1 ATP        -0.3878
     17 C3'         1.9685    0.6634    0.6767 C.3       1 ATP         0.1185
     18 O3'         2.1425    0.1975    1.9977 O.3       1 ATP        -0.5544
     19 C2'         0.5176    0.9128    0.3099 C.3       1 ATP         0.0542
     20 O2'        -0.2103    1.4454    1.4152 O.3       1 ATP        -0.5831
     21 C1'         0.6219    1.9765   -0.7844 C.3       1 ATP         0.2222
     22 N9          0.4237    1.4496   -2.1357 N.pl3     1 ATP        -0.1887
     23 C8          1.4069    0.9710   -2.9662 C.ar      1 ATP         0.4447
     24 N7          0.9316    0.5623   -4.1260 N.2       1 ATP        -0.6159
     25 C5         -0.4120    0.7884   -4.0344 C.ar      1 ATP         0.2195
     26 C6         -1.4353    0.5283   -5.0204 C.ar      1 ATP         0.6144
     27 N6         -1.1199    0.0176   -6.1586 N.2       1 ATP        -0.8160
     28 N1         -2.6704    0.9095   -4.5147 N.pl3     1 ATP        -0.8611
     29 C2         -2.8863    1.4571   -3.2520 C.ar      1 ATP         0.6141
     30 N3         -1.9805    1.7017   -2.3442 N.2       1 ATP        -0.5913
     31 C4         -0.7561    1.3381   -2.8112 C.ar      1 ATP         0.0067
     32 HOG3        7.5562    1.3983    5.5802 H         1 ATP         0.4313
     33 HOB2        9.8823    1.8612    1.3618 H         1 ATP         0.4716
     34 H5'1        4.3180    1.3550   -0.6470 H         1 ATP         0.0452
     35 H5'2        4.6084    1.5739    1.0983 H         1 ATP         0.0452
     36 H4'         2.3751    2.7029    1.3156 H         1 ATP         0.0998
     37 H3'         2.4336   -0.1217   -0.0015 H         1 ATP         0.0544
     38 HO3'        1.7160   -0.6716    2.0397 H         1 ATP         0.3961
     39 H2'         0.0316    0.0155   -0.0339 H         1 ATP         0.0499
     40 HO2'       -1.1270    1.5823    1.1180 H         1 ATP         0.4045
     41 H1'        -0.1474    2.7798   -0.6651 H         1 ATP         0.0912
     42 H8          2.4466    0.9468   -2.6694 H         1 ATP         0.1090
     43 HN62       -1.9661   -0.0965   -6.7275 H         1 ATP         0.3694
     44 H2         -3.9481    1.6825   -3.0660 H         1 ATP         0.0371
     45 H45        -3.4814    0.7753   -5.1133 H         1 ATP         0.4283
@<TRIPOS>BOND
     1    1    2 2
     2    1    3 1
     3    1    4 1
     4    1    8 1
     5    4   32 1
     6    5    6 2
     7    5    7 1
     8    5    8 1
     9    5   12 1
    10    7   33 1
    11    9   10 2
    12    9   11 1
    13    9   12 1
    14    9   13 1
    15   13   14 1
    16   14   15 1
    17   14   34 1
    18   14   35 1
    19   15   16 1
    20   15   17 1
    21   15   36 1
    22   16   21 1
    23   17   18 1
    24   17   19 1
    25   17   37 1
    26   18   38 1
    27   19   20 1
    28   19   21 1
    29   19   39 1
    30   20   40 1
    31   21   22 1
    32   21   41 1
    33   22   23 ar
    34   22   31 ar
    35   23   24 ar
    36   23   42 1
    37   24   25 ar
    38   25   26 ar
    39   25   31 ar
    40   26   27 2
    41   26   28 ar
    42   27   43 1
    43   28   29 ar
    44   28   45 1
    45   29   30 ar
    46   29   44 1
    47   30   31 ar
@<TRIPOS>SUBSTRUCTURE
     1 ATP         1 GROUP 0 A     ****
@<TRIPOS>MOLECULE
[[[3,4-dihydroxy-5-(6-imino-1~{H}-purin-9-yl)tetrahydrofuran-2-yl]methoxy-oxido-phosphoryl]oxy-hydroxy-phosphoryl] hydrogen phosphate
   45    47     1     0     0
SMALL
USER_CHARGES

@<TRIPOS>ATOM
      1 PG         -6.3756    6.2891   -0.2837 P.3       1 ATP         1.5496
      2 O1G        -7.6465    5.4735   -0.3705 O.co2     1 ATP        -0.8494
      3 O2G        -5.8848    7.0912   -1.4683 O.co2     1 ATP        -0.8494
      4 O3G        -6.4854    7.2840    1.0063 O.3       1 ATP        -0.7845
      5 PB         -4.4459    4.0655   -0.4558 P.3       1 ATP         1.9068
      6 O1B        -5.3500    2.9150   -0.7860 O.2       1 ATP        -0.8942
      7 O2B        -3.6762    4.7169   -1.7195 O.3       1 ATP        -0.8166
      8 O3B        -5.1677    5.3299    0.2464 O.3       1 ATP        -0.8194
      9 PA         -3.3346    3.2336    2.1469 P.3       1 ATP         1.5903
     10 O1A        -3.9078    1.8333    2.1683 O.co2     1 ATP        -0.8519
     11 O2A        -3.9474    4.3330    2.9871 O.co2     1 ATP        -0.8519
     12 O3A        -3.2643    3.7501    0.5996 O.3       1 ATP        -0.8093
     13 O5'        -1.7337    3.1724    2.4752 O.3       1 ATP        -0.5649
     14 C5'        -0.8811    2.4285    1.6206 C.3       1 ATP         0.1979
     15 C4'        -0.1994    1.3333    2.4288 C.3       1 ATP         0.1179
     16 O4'        -1.1285    0.2356    2.5840 O.3       1 ATP        -0.3878
     17 C3'         1.0324    0.7610    1.7344 C.3       1 ATP         0.1185
     18 O3'         1.9175    0.2377    2.7247 O.3       1 ATP        -0.5544
     19 C2'         0.4468   -0.3802    0.9263 C.3       1 ATP         0.0542
     20 O2'         1.3993   -1.3703    0.5961 O.3       1 ATP        -0.5831
     21 C1'        -0.6159   -0.9100    1.8769 C.3       1 ATP         0.2222
     22 N9         -1.7127   -1.6108    1.2130 N.pl3     1 ATP        -0.1887
     23 C8         -2.5485   -1.0808    0.2609 C.ar      1 ATP         0.4447
     24 N7         -3.4476   -1.9486   -0.1593 N.2       1 ATP        -0.6159
     25 C5         -3.1762   -3.0816    0.5530 C.ar      1 ATP         0.2195
     26 C6         -3.8510   -4.3579    0.5006 C.ar      1 ATP         0.6144
     27 N6         -4.8468   -4.5293   -0.2961 N.2       1 ATP        -0.8160
     28 N1         -3.2499   -5.2342    1.3937 N.pl3     1 ATP        -0.8611
     29 C2         -2.1646   -4.9275    2.2116 C.ar      1 ATP         0.6141
     30 N3         -1.5382   -3.7840    2.2778 N.2       1 ATP        -0.5913
     31 C4         -2.1054   -2.9018    1.4120 C.ar      1 ATP         0.0067
     32 HOG3       -6.6006    6.8850    1.8950 H         1 ATP         0.4313
     33 HOB2       -3.0754    4.1528   -2.2514 H         1 ATP         0.4716
     34 H5'1       -1.4801    1.9928    0.8147 H         1 ATP         0.0452
     35 H5'2       -0.1369    3.1041    1.1872 H         1 ATP         0.0452
     36 H4'         0.0403    1.7078    3.4343 H         1 ATP         0.0998
     37 H3'         1.5906    1.4859    1.1353 H         1 ATP         0.0544
     38 HO3'        2.1521    0.9800    3.3017 H         1 ATP         0.3961
     39 H2'        -0.0017    0.0018    0.0005 H         1 ATP         0.0499
     40 HO2'        0.9369   -2.0558    0.0825 H         1 ATP         0.4045
     41 H1'        -0.1998   -1.6319    2.6178 H         1 ATP         0.0912
     42 H8         -2.4515   -0.0599   -0.0829 H         1 ATP         0.1090
     43 HN62       -5.1990   -5.4882   -0.2004 H         1 ATP         0.3694
     44 H2         -1.8555   -5.7783    2.8388 H         1 ATP         0.0371
     45 H45        -3.6312   -6.1750    1.4526 H         1 ATP         0.4283
@<TRIPOS>BOND
     1    1    2 2
     2    1    3 1
     3    1    4 1
     4    1    8 1
     5    4   32 1
     6    5    6 2
     7    5    7 1
     8    5    8 1
     9    5   12 1
    10    7   33 1
    11    9   10 2
    12    9   11 1
    13    9   12 1
    14    9   13 1
    15   13   14 1
    16   14   15 1
    17   14   34 1
    18   14   35 1
    19   15   16 1
    20   15   17 1
    21   15   36 1
    22   16   21 1
    23   17   18 1
    24   17   19 1
    25   17   37 1
    26   18   38 1
    27   19   20 1
    28   19   21 1
    29   19   39 1
    30   20   40 1
    31   21   22 1
    32   21   41 1
    33   22   23 ar
    34   22   31 ar
    35   23   24 ar
    36   23   42 1
    37   24   25 ar
    38   25   26 ar
    39   25   31 ar
    40   26   27 2
    41   26   28 ar
    42   27   43 1
    43   28   29 ar
    44   28   45 1
    45   29   30 ar
    46   29   44 1
    47   30   31 ar
@<TRIPOS>SUBSTRUCTURE
     1 ATP         1 GROUP 0 A     ****
@<TRIPOS>MOLECULE
[[[3,4-dihydroxy-5-(6-imino-1~{H}-purin-9-yl)tetrahydrofuran-2-yl]methoxy-oxido-phosphoryl]oxy-hydroxy-phosphoryl] hydrogen phosphate
   45    47     1     0     0
SMALL
USER_CHARGES

@<TRIPOS>ATOM
      1 PG         -4.9543    4.3455    0.6939 P.3       1 ATP         1.5496
      2 O1G        -5.7376    4.3952    1.9869 O.co2     1 ATP        -0.8494
      3 O2G        -4.0229    3.1924    0.3936 O.co2     1 ATP        -0.8494
      4 O3G        -5.9985    4.5063   -0.5511 O.3       1 ATP        -0.7845
      5 PB         -2.9145    6.3656    1.3694 P.3       1 ATP         1.9068
      6 O1B        -2.4173    7.7008    0.8999 O.2       1 ATP        -0.8942
      7 O2B        -3.4540    6.3323    2.8931 O.3       1 ATP        -0.8166
      8 O3B        -4.1399    5.7473    0.5156 O.3       1 ATP        -0.8194
      9 PA         -0.3961    4.9845    2.0411 P.3       1 ATP         1.5903
     10 O1A        -0.6131    4.8933    3.5359 O.co2     1 ATP        -0.8519
     11 O2A         0.5549    6.0073    1.4587 O.co2     1 ATP        -0.8519
     12 O3A        -1.8451    5.1565    1.3083 O.3       1 ATP        -0.8093
     13 O5'         0.0180    3.5131    1.4595 O.3       1 ATP        -0.5649
     14 C5'        -0.8811    2.4285    1.6206 C.3       1 ATP         0.1979
     15 C4'        -0.1994    1.3333    2.4288 C.3       1 ATP         0.1179
     16 O4'        -1.1285    0.2356    2.5840 O.3       1 ATP        -0.3878
     17 C3'         1.0324    0.7610    1.7344 C.3       1 ATP         0.1185
     18 O3'         1.9175    0.2377    2.7247 O.3       1 ATP        -0.5544
     19 C2'         0.4468   -0.3802    0.9263 C.3       1 ATP         0.0542
     20 O2'         1.3993   -1.3703    0.5961 O.3       1 ATP        -0.5831
     21 C1'        -0.6159   -0.9100    1.8769 C.3       1 ATP         0.2222
     22 N9         -1.7127   -1.6108    1.2130 N.pl3     1 ATP        -0.1887
     23 C8         -2.8662   -1.0361    0.7388 C.ar      1 ATP         0.4447
     24 N7         -3.6774   -1.9166    0.1867 N.2       1 ATP        -0.6159
     25 C5         -3.0159   -3.1045    0.3123 C.ar      1 ATP         0.2195
     26 C6         -3.4377   -4.4169   -0.1199 C.ar      1 ATP         0.6144
     27 N6         -4.5720   -4.5691   -0.7080 N.2       1 ATP        -0.8160
     28 N1         -2.4600   -5.3463    0.2071 N.pl3     1 ATP        -0.8611
     29 C2         -1.2595   -5.0554    0.8515 C.ar      1 ATP         0.6141
     30 N3         -0.8555   -3.8803    1.2516 N.2       1 ATP        -0.5913
     31 C4         -1.7946   -2.9457    0.9448 C.ar      1 ATP         0.0067
     32 HOG3       -5.6411    4.4940   -1.4645 H         1 ATP         0.4313
     33 HOB2       -3.7924    5.4871    3.2583 H         1 ATP         0.4716
     34 H5'1       -1.7770    2.7851    2.1387 H         1 ATP         0.0452
     35 H5'2       -1.1653    2.0543    0.6320 H         1 ATP         0.0452
     36 H4'         0.0403    1.7078    3.4343 H         1 ATP         0.0998
     37 H3'         1.5906    1.4859    1.1353 H         1 ATP         0.0544
     38 HO3'        2.6839   -0.1150    2.2479 H         1 ATP         0.3961
     39 H2'        -0.0017    0.0018    0.0005 H         1 ATP         0.0499
     40 HO2'        2.0953   -0.9375    0.0709 H         1 ATP         0.4045
     41 H1'        -0.1998   -1.6319    2.6178 H         1 ATP         0.0912
     42 H8         -3.0558    0.0252    0.8256 H         1 ATP         0.1090
     43 HN62       -4.7047   -5.5592   -0.9421 H         1 ATP         0.3694
     44 H2         -0.6372   -5.9505    1.0077 H         1 ATP         0.0371
     45 H45        -2.6338   -6.3155   -0.0469 H         1 ATP         0.4283
@<TRIPOS>BOND
     1    1    2 2
     2    1    3 1
     3    1    4 1
     4    1    8 1
     5    4   32 1
     6    5    6 2
     7    5    7 1
     8    5    8 1
     9    5   12 1
    10    7   33 1
    11    9   10 2
    12    9   11 1
    13    9   12 1
    14    9   13 1
    15   13   14 1
    16   14   15 1
    17   14   34 1
    18   14   35 1
    19   15   16 1
    20   15   17 1
    21   15   36 1
    22   16   21 1
    23   17   18 1
    24   17   19 1
    25   17   37 1
    26   18   38 1
    27   19   20 1
    28   19   21 1
    29   19   39 1
    30   20   40 1
    31   21   22 1
    32   21   41 1
    33   22   23 ar
    34   22   31 ar
    35   23   24 ar
    36   23   42 1
    37   24   25 ar
    38   25   26 ar
    39   25   31 ar
    40   26   27 2
    41   26   28 ar
    42   27   43 1
    43   28   29 ar
    44   28   45 1
    45   29   30 ar
    46   29   44 1
    47   30   31 ar
@<TRIPOS>SUBSTRUCTURE
     1 ATP         1 GROUP 0 A     ****
@<TRIPOS>MOLECULE
[[[3,4-dihydroxy-5-(6-imino-1~{H}-purin-9-yl)tetrahydrofuran-2-yl]methoxy-oxido-phosphoryl]oxy-hydroxy-phosphoryl] hydrogen phosphate
   45    47     1     0     0
SMALL
USER_CHARGES

@<TRIPOS>ATOM
      1 PG          8.5223    4.9428   -3.4866 P.3       1 ATP         1.5496
      2 O1G         8.1296    6.3823   -3.7339 O.co2     1 ATP        -0.8494
      3 O2G         9.2109    4.1299   -4.5601 O.co2     1 ATP        -0.8494
      4 O3G         9.4256    4.8781   -2.1279 O.3       1 ATP        -0.7845
      5 PB          5.8389    3.7393   -3.7074 P.3       1 ATP         1.9068
      6 O1B         5.0323    4.9047   -4.1987 O.2       1 ATP        -0.8942
      7 O2B         6.3056    2.6976   -4.8522 O.3       1 ATP        -0.8166
      8 O3B         7.2166    4.1231   -2.9541 O.3       1 ATP        -0.8194
      9 PA          5.6601    1.4687   -1.8329 P.3       1 ATP         1.5903
     10 O1A         6.8281    1.8493   -0.9492 O.co2     1 ATP        -0.8519
     11 O2A         5.7910    0.3572   -2.8513 O.co2     1 ATP        -0.8519
     12 O3A         5.1228    2.8061   -2.6001 O.3       1 ATP        -0.8093
     13 O5'         4.3515    1.1574   -0.9027 O.3       1 ATP        -0.5649
     14 C5'         4.0922    1.9801    0.2227 C.3       1 ATP         0.1979
     15 C4'         2.5944    2.0310    0.4653 C.3       1 ATP         0.1179
     16 O4'         1.9327    2.5740   -0.6889 O.3       1 ATP        -0.3878
     17 C3'         1.9685    0.6634    0.6767 C.3       1 ATP         0.1185
     18 O3'         2.1425    0.1975    1.9977 O.3       1 ATP        -0.5544
     19 C2'         0.5176    0.9128    0.3099 C.3       1 ATP         0.0542
     20 O2'        -0.2103    1.4454    1.4152 O.3       1 ATP        -0.5831
     21 C1'         0.6219    1.9765   -0.7844 C.3       1 ATP         0.2222
     22 N9          0.4237    1.4496   -2.1357 N.pl3     1 ATP        -0.1887
     23 C8          1.4069    0.9710   -2.9662 C.ar      1 ATP         0.4447
     24 N7          0.9316    0.5623   -4.1260 N.2       1 ATP        -0.6159
     25 C5         -0.4120    0.7884   -4.0344 C.ar      1 ATP         0.2195
     26 C6         -1.4353    0.5283   -5.0204 C.ar      1 ATP         0.6144
     27 N6         -1.1199    0.0176   -6.1586 N.2       1 ATP        -0.8160
     28 N1         -2.6704    0.9095   -4.5147 N.pl3     1 ATP        -0.8611
     29 C2         -2.8863    1.4571   -3.2520 C.ar      1 ATP         0.6141
     30 N3         -1.9805    1.7017   -2.3442 N.2       1 ATP        -0.5913
     31 C4         -0.7561    1.3381   -2.8112 C.ar      1 ATP         0.0067
     32 HOG3        9.7602    4.0052   -1.8310 H         1 ATP         0.4313
     33 HOB2        5.6208    2.2404   -5.3854 H         1 ATP         0.4716
     34 H5'1        4.6070    1.5617    1.0934 H         1 ATP         0.0452
     35 H5'2        4.4825    2.9836    0.0252 H         1 ATP         0.0452
     36 H4'         2.3751    2.7029    1.3156 H         1 ATP         0.0998
     37 H3'         2.4336   -0.1217   -0.0015 H         1 ATP         0.0544
     38 HO3'        1.7160   -0.6716    2.0397 H         1 ATP         0.3961
     39 H2'         0.0316    0.0155   -0.0339 H         1 ATP         0.0499
     40 HO2'       -0.1608    0.7921    2.1351 H         1 ATP         0.4045
     41 H1'        -0.1474    2.7798   -0.6651 H         1 ATP         0.0912
     42 H8          2.4466    0.9468   -2.6694 H         1 ATP         0.1090
     43 HN62       -1.9661   -0.0965   -6.7275 H         1 ATP         0.3694
     44 H2         -3.9481    1.6825   -3.0660 H         1 ATP         0.0371
     45 H45        -3.4814    0.7753   -5.1133 H         1 ATP         0.4283
@<TRIPOS>BOND
     1    1    2 2
     2    1    3 1
     3    1    4 1
     4    1    8 1
     5    4   32 1
     6    5    6 2
     7    5    7 1
     8    5    8 1
     9    5   12 1
    10    7   33 1
    11    9   10 2
    12    9   11 1
    13    9   12 1
    14    9   13 1
    15   13   14 1
    16   14   15 1
    17   14   34 1
    18   14   35 1
    19   15   16 1
    20   15   17 1
    21   15   36 1
    22   16   21 1
    23   17   18 1
    24   17   19 1
    25   17   37 1
    26   18   38 1
    27   19   20 1
    28   19   21 1
    29   19   39 1
    30   20   40 1
    31   21   22 1
    32   21   41 1
    33   22   23 ar
    34   22   31 ar
    35   23   24 ar
    36   23   42 1
    37   24   25 ar
    38   25   26 ar
    39   25   31 ar
    40   26   27 2
    41   26   28 ar
    42   27   43 1
    43   28   29 ar
    44   28   45 1
    45   29   30 ar
    46   29   44 1
    47   30   31 ar
@<TRIPOS>SUBSTRUCTURE
     1 ATP         1 GROUP 0 A     ****
@<TRIPOS>MOLECULE
[[[3,4-dihydroxy-5-(6-imino-1~{H}-purin-9-yl)tetrahydrofuran-2-yl]methoxy-oxido-phosphoryl]oxy-hydroxy-phosphoryl] hydrogen phosphate
   45    47     1     0     0
SMALL
USER_CHARGES

@<TRIPOS>ATOM
      1 PG          8.0402    2.5252   -4.7352 P.3       1 ATP         1.5496
      2 O1G         7.2060    2.4099   -5.9916 O.co2     1 ATP        -0.8494
      3 O2G         8.9607    1.4038   -4.3080 O.co2     1 ATP        -0.8494
      4 O3G         8.9077    3.9063   -4.8141 O.3       1 ATP        -0.7845
      5 PB          6.0024    4.1243   -3.3251 P.3       1 ATP         1.9068
      6 O1B         6.5795    5.5043   -3.4388 O.2       1 ATP        -0.8942
      7 O2B         4.8529    3.7710   -4.4055 O.3       1 ATP        -0.8166
      8 O3B         7.0651    2.9172   -3.4880 O.3       1 ATP        -0.8194
      9 PA          5.9683    3.7220   -0.4031 P.3       1 ATP         1.5903
     10 O1A         6.3632    5.1276   -0.0053 O.co2     1 ATP        -0.8519
     11 O2A         6.9719    2.5909   -0.3448 O.co2     1 ATP        -0.8519
     12 O3A         5.3262    3.7604   -1.9039 O.3       1 ATP        -0.8093
     13 O5'         4.6405    3.2701    0.4379 O.3       1 ATP        -0.5649
     14 C5'         4.0922    1.9801    0.2227 C.3       1 ATP         0.1979
     15 C4'         2.5944    2.0310    0.4653 C.3       1 ATP         0.1179
     16 O4'         1.9327    2.5740   -0.6889 O.3       1 ATP        -0.3878
     17 C3'         1.9685    0.6634    0.6767 C.3       1 ATP         0.1185
     18 O3'         2.1425    0.1975    1.9977 O.3       1 ATP        -0.5544
     19 C2'         0.5176    0.9128    0.3099 C.3       1 ATP         0.0542
     20 O2'        -0.2103    1.4454    1.4152 O.3       1 ATP        -0.5831
     21 C1'         0.6219    1.9765   -0.7844 C.3       1 ATP         0.2222
     22 N9          0.4237    1.4496   -2.1357 N.pl3     1 ATP        -0.1887
     23 C8          1.4069    0.9710   -2.9662 C.ar      1 ATP         0.4447
     24 N7          0.9316    0.5623   -4.1260 N.2       1 ATP        -0.6159
     25 C5         -0.4120    0.7884   -4.0344 C.ar      1 ATP         0.2195
     26 C6         -1.4353    0.5283   -5.0204 C.ar      1 ATP         0.6144
     27 N6         -1.1199    0.0176   -6.1586 N.2       1 ATP        -0.8160
     28 N1         -2.6704    0.9095   -4.5147 N.pl3     1 ATP        -0.8611
     29 C2         -2.8863    1.4571   -3.2520 C.ar      1 ATP         0.6141
     30 N3         -1.9805    1.7017   -2.3442 N.2       1 ATP        -0.5913
     31 C4         -0.7561    1.3381   -2.8112 C.ar      1 ATP         0.0067
     32 HOG3        9.5040    4.1263   -4.0670 H         1 ATP         0.4313
     33 HOB2        5.0732    3.8041   -5.3608 H         1 ATP         0.4716
     34 H5'1        4.3029    1.6730   -0.8066 H         1 ATP         0.0452
     35 H5'2        4.5678    1.2739    0.9106 H         1 ATP         0.0452
     36 H4'         2.3751    2.7029    1.3156 H         1 ATP         0.0998
     37 H3'         2.4336   -0.1217   -0.0015 H         1 ATP         0.0544
     38 HO3'        1.7160   -0.6716    2.0397 H         1 ATP         0.3961
     39 H2'         0.0316    0.0155   -0.0339 H         1 ATP         0.0499
     40 HO2'       -0.1608    0.7921    2.1351 H         1 ATP         0.4045
     41 H1'        -0.1474    2.7798   -0.6651 H         1 ATP         0.0912
     42 H8          2.4466    0.9468   -2.6694 H         1 ATP         0.1090
     43 HN62       -1.9661   -0.0965   -6.7275 H         1 ATP         0.3694
     44 H2         -3.9481    1.6825   -3.0660 H         1 ATP         0.0371
     45 H45        -3.4814    0.7753   -5.1133 H         1 ATP         0.4283
@<TRIPOS>BOND
     1    1    2 2
     2    1    3 1
     3    1    4 1
     4    1    8 1
     5    4   32 1
     6    5    6 2
     7    5    7 1
     8    5    8 1
     9    5   12 1
    10    7   33 1
    11    9   10 2
    12    9   11 1
    13    9   12 1
    14    9   13 1
    15   13   14 1
    16   14   15 1
    17   14   34 1
    18   14   35 1
    19   15   16 1
    20   15   17 1
    21   15   36 1
    22   16   21 1
    23   17   18 1
    24   17   19 1
    25   17   37 1
    26   18   38 1
    27   19   20 1
    28   19   21 1
    29   19   39 1
    30   20   40 1
    31   21   22 1
    32   21   41 1
    33   22   23 ar
    34   22   31 ar
    35   23   24 ar
    36   23   42 1
    37   24   25 ar
    38   25   26 ar
    39   25   31 ar
    40   26   27 2
    41   26   28 ar
    42   27   43 1
    43   28   29 ar
    44   28   45 1
    45   29   30 ar
    46   29   44 1
    47   30   31 ar
@<TRIPOS>SUBSTRUCTURE
     1 ATP         1 GROUP 0 A     ****
@<TRIPOS>MOLECULE
[[[3,4-dihydroxy-5-(6-imino-1~{H}-purin-9-yl)tetrahydrofuran-2-yl]methoxy-oxido-phosphoryl]oxy-hydroxy-phosphoryl] hydrogen phosphate
   45    47     1     0     0
SMALL
USER_CHARGES

@<TRIPOS>ATOM
      1 PG         -3.4560    6.6749   -2.4663 P.3       1 ATP         1.5496
      2 O1G        -3.5267    5.5180   -3.4381 O.co2     1 ATP        -0.8494
      3 O2G        -2.7567    7.9625   -2.8409 O.co2     1 ATP        -0.8494
      4 O3G        -4.9716    7.0320   -1.9746 O.3       1 ATP        -0.7845
      5 PB         -1.3860    5.5812   -0.6728 P.3       1 ATP         1.9068
      6 O1B        -0.9487    4.3648   -1.4340 O.2       1 ATP        -0.8942
      7 O2B        -0.4322    6.8755   -0.8426 O.3       1 ATP        -0.8166
      8 O3B        -2.8567    6.1373   -1.0479 O.3       1 ATP        -0.8194
      9 PA         -0.3961    4.9845    2.0411 P.3       1 ATP         1.5903
     10 O1A        -1.0788    4.8231    3.3819 O.co2     1 ATP        -0.8519
     11 O2A         0.7940    5.9060    1.8851 O.co2     1 ATP        -0.8519
     12 O3A        -1.5153    5.3999    0.9272 O.3       1 ATP        -0.8093
     13 O5'         0.0180    3.5131    1.4595 O.3       1 ATP        -0.5649
     14 C5'        -0.8811    2.4285    1.6206 C.3       1 ATP         0.1979
     15 C4'        -0.1994    1.3333    2.4288 C.3       1 ATP         0.1179
     16 O4'        -1.1285    0.2356    2.5840 O.3       1 ATP        -0.3878
     17 C3'         1.0324    0.7610    1.7344 C.3       1 ATP         0.1185
     18 O3'         1.9175    0.2377    2.7247 O.3       1 ATP        -0.5544
     19 C2'         0.4468   -0.3802    0.9263 C.3       1 ATP         0.0542
     20 O2'         1.3993   -1.3703    0.5961 O.3       1 ATP        -0.5831
     21 C1'        -0.6159   -0.9100    1.8769 C.3       1 ATP         0.2222
     22 N9         -1.7127   -1.6108    1.2130 N.pl3     1 ATP        -0.1887
     23 C8         -2.5485   -1.0808    0.2609 C.ar      1 ATP         0.4447
     24 N7         -3.4476   -1.9486   -0.1593 N.2       1 ATP        -0.6159
     25 C5         -3.1762   -3.0816    0.5530 C.ar      1 ATP         0.2195
     26 C6         -3.8510   -4.3579    0.5006 C.ar      1 ATP         0.6144
     27 N6         -4.8468   -4.5293   -0.2961 N.2       1 ATP        -0.8160
     28 N1         -3.2499   -5.2342    1.3937 N.pl3     1 ATP        -0.8611
     29 C2         -2.1646   -4.9275    2.2116 C.ar      1 ATP         0.6141
     30 N3         -1.5382   -3.7840    2.2778 N.2       1 ATP        -0.5913
     31 C4         -2.1054   -2.9018    1.4120 C.ar      1 ATP         0.0067
     32 HOG3       -5.0942    7.7668   -1.3365 H         1 ATP         0.4313
     33 HOB2        0.5078    6.8113   -0.5698 H         1 ATP         0.4716
     34 H5'1       -1.7770    2.7851    2.1387 H         1 ATP         0.0452
     35 H5'2       -1.1653    2.0543    0.6320 H         1 ATP         0.0452
     36 H4'         0.0403    1.7078    3.4343 H         1 ATP         0.0998
     37 H3'         1.5906    1.4859    1.1353 H         1 ATP         0.0544
     38 HO3'        2.1521    0.9800    3.3017 H         1 ATP         0.3961
     39 H2'        -0.0017    0.0018    0.0005 H         1 ATP         0.0499
     40 HO2'        0.9369   -2.0558    0.0825 H         1 ATP         0.4045
     41 H1'        -0.1998   -1.6319    2.6178 H         1 ATP         0.0912
     42 H8         -2.4515   -0.0599   -0.0829 H         1 ATP         0.1090
     43 HN62       -5.1990   -5.4882   -0.2004 H         1 ATP         0.3694
     44 H2         -1.8555   -5.7783    2.8388 H         1 ATP         0.0371
     45 H45        -3.6312   -6.1750    1.4526 H         1 ATP         0.4283
@<TRIPOS>BOND
     1    1    2 2
     2    1    3 1
     3    1    4 1
     4    1    8 1
     5    4   32 1
     6    5    6 2
     7    5    7 1
     8    5    8 1
     9    5   12 1
    10    7   33 1
    11    9   10 2
    12    9   11 1
    13    9   12 1
    14    9   13 1
    15   13   14 1
    16   14   15 1
    17   14   34 1
    18   14   35 1
    19   15   16 1
    20   15   17 1
    21   15   36 1
    22   16   21 1
    23   17   18 1
    24   17   19 1
    25   17   37 1
    26   18   38 1
    27   19   20 1
    28   19   21 1
    29   19   39 1
    30   20   40 1
    31   21   22 1
    32   21   41 1
    33   22   23 ar
    34   22   31 ar
    35   23   24 ar
    36   23   42 1
    37   24   25 ar
    38   25   26 ar
    39   25   31 ar
    40   26   27 2
    41   26   28 ar
    42   27   43 1
    43   28   29 ar
    44   28   45 1
    45   29   30 ar
    46   29   44 1
    47   30   31 ar
@<TRIPOS>SUBSTRUCTURE
     1 ATP         1 GROUP 0 A     ****
@<TRIPOS>MOLECULE
[[[3,4-dihydroxy-5-(6-imino-1~{H}-purin-9-yl)tetrahydrofuran-2-yl]methoxy-oxido-phosphoryl]oxy-hydroxy-phosphoryl] hydrogen phosphate
   45    47     1     0     0
SMALL
USER_CHARGES

@<TRIPOS>ATOM
      1 PG         -0.0648    7.3759   -3.3853 P.3       1 ATP         1.5496
      2 O1G        -1.2715    8.2685   -3.5717 O.co2     1 ATP        -0.8494
      3 O2G         0.5122    6.5971   -4.5463 O.co2     1 ATP        -0.8494
      4 O3G         1.1311    8.2563   -2.7063 O.3       1 ATP        -0.7845
      5 PB         -1.4126    5.1413   -2.0113 P.3       1 ATP         1.9068
      6 O1B        -2.8534    5.5349   -2.1512 O.2       1 ATP        -0.8942
      7 O2B        -0.8921    4.0523   -3.0869 O.3       1 ATP        -0.8166
      8 O3B        -0.3508    6.3525   -2.1481 O.3       1 ATP        -0.8194
      9 PA          0.4529    3.9703   -0.0492 P.3       1 ATP         1.5903
     10 O1A         1.4112    5.1385    0.0342 O.co2     1 ATP        -0.8519
     11 O2A         0.8147    2.7278   -0.8334 O.co2     1 ATP        -0.8519
     12 O3A        -0.9915    4.5116   -0.5846 O.3       1 ATP        -0.8093
     13 O5'         0.0180    3.5131    1.4595 O.3       1 ATP        -0.5649
     14 C5'        -0.8811    2.4285    1.6206 C.3       1 ATP         0.1979
     15 C4'        -0.1994    1.3333    2.4288 C.3       1 ATP         0.1179
     16 O4'        -1.1285    0.2356    2.5840 O.3       1 ATP        -0.3878
     17 C3'         1.0324    0.7610    1.7344 C.3       1 ATP         0.1185
     18 O3'         1.9175    0.2377    2.7247 O.3       1 ATP        -0.5544
     19 C2'         0.4468   -0.3802    0.9263 C.3       1 ATP         0.0542
     20 O2'         1.3993   -1.3703    0.5961 O.3       1 ATP        -0.5831
     21 C1'        -0.6159   -0.9100    1.8769 C.3       1 ATP         0.2222
     22 N9         -1.7127   -1.6108    1.2130 N.pl3     1 ATP        -0.1887
     23 C8         -2.8662   -1.0361    0.7388 C.ar      1 ATP         0.4447
     24 N7         -3.6774   -1.9166    0.1867 N.2       1 ATP        -0.6159
     25 C5         -3.0159   -3.1045    0.3123 C.ar      1 ATP         0.2195
     26 C6         -3.4377   -4.4169   -0.1199 C.ar      1 ATP         0.6144
     27 N6         -4.5720   -4.5691   -0.7080 N.2       1 ATP        -0.8160
     28 N1         -2.4600   -5.3463    0.2071 N.pl3     1 ATP        -0.8611
     29 C2         -1.2595   -5.0554    0.8515 C.ar      1 ATP         0.6141
     30 N3         -0.8555   -3.8803    1.2516 N.2       1 ATP        -0.5913
     31 C4         -1.7946   -2.9457    0.9448 C.ar      1 ATP         0.0067
     32 HOG3        1.9873    7.8153   -2.5202 H         1 ATP         0.4313
     33 HOB2       -0.9350    4.2709   -4.0422 H         1 ATP         0.4716
     34 H5'1       -1.7770    2.7851    2.1387 H         1 ATP         0.0452
     35 H5'2       -1.1653    2.0543    0.6320 H         1 ATP         0.0452
     36 H4'         0.0403    1.7078    3.4343 H         1 ATP         0.0998
     37 H3'         1.5906    1.4859    1.1353 H         1 ATP         0.0544
     38 HO3'        2.6839   -0.1150    2.2479 H         1 ATP         0.3961
     39 H2'        -0.0017    0.0018    0.0005 H         1 ATP         0.0499
     40 HO2'        2.0953   -0.9375    0.0709 H         1 ATP         0.4045
     41 H1'        -0.1998   -1.6319    2.6178 H         1 ATP         0.0912
     42 H8         -3.0558    0.0252    0.8256 H         1 ATP         0.1090
     43 HN62       -4.7047   -5.5592   -0.9421 H         1 ATP         0.3694
     44 H2         -0.6372   -5.9505    1.0077 H         1 ATP         0.0371
     45 H45        -2.6338   -6.3155   -0.0469 H         1 ATP         0.4283
@<TRIPOS>BOND
     1    1    2 2
     2    1    3 1
     3    1    4 1
     4    1    8 1
     5    4   32 1
     6    5    6 2
     7    5    7 1
     8    5    8 1
     9    5   12 1
    10    7   33 1
    11    9   10 2
    12    9   11 1
    13    9   12 1
    14    9   13 1
    15   13   14 1
    16   14   15 1
    17   14   34 1
    18   14   35 1
    19   15   16 1
    20   15   17 1
    21   15   36 1
    22   16   21 1
    23   17   18 1
    24   17   19 1
    25   17   37 1
    26   18   38 1
    27   19   20 1
    28   19   21 1
    29   19   39 1
    30   20   40 1
    31   21   22 1
    32   21   41 1
    33   22   23 ar
    34   22   31 ar
    35   23   24 ar
    36   23   42 1
    37   24   25 ar
    38   25   26 ar
    39   25   31 ar
    40   26   27 2
    41   26   28 ar
    42   27   43 1
    43   28   29 ar
    44   28   45 1
    45   29   30 ar
    46   29   44 1
    47   30   31 ar
@<TRIPOS>SUBSTRUCTURE
     1 ATP         1 GROUP 0 A     ****
@<TRIPOS>MOLECULE
[[[3,4-dihydroxy-5-(6-imino-1~{H}-purin-9-yl)tetrahydrofuran-2-yl]methoxy-oxido-phosphoryl]oxy-hydroxy-phosphoryl] hydrogen phosphate
   45    47     1     0     0
SMALL
USER_CHARGES

@<TRIPOS>ATOM
      1 PG         -4.4100    7.6456    3.6344 P.3       1 ATP         1.5496
      2 O1G        -3.7978    9.0286    3.6299 O.co2     1 ATP        -0.8494
      3 O2G        -4.9502    7.0391    4.9103 O.co2     1 ATP        -0.8494
      4 O3G        -5.5825    7.5941    2.4991 O.3       1 ATP        -0.7845
      5 PB         -2.6041    6.6540    1.5242 P.3       1 ATP         1.9068
      6 O1B        -3.5045    6.6888    0.3249 O.2       1 ATP        -0.8942
      7 O2B        -1.6037    7.9159    1.6669 O.3       1 ATP        -0.8166
      8 O3B        -3.3598    6.6008    2.9521 O.3       1 ATP        -0.8194
      9 PA         -0.4664    4.8322    0.6228 P.3       1 ATP         1.5903
     10 O1A         0.6558    5.8467    0.5865 O.co2     1 ATP        -0.8519
     11 O2A        -1.1276    4.3642   -0.6553 O.co2     1 ATP        -0.8519
     12 O3A        -1.6298    5.3702    1.6343 O.3       1 ATP        -0.8093
     13 O5'         0.0180    3.5131    1.4595 O.3       1 ATP        -0.5649
     14 C5'        -0.8811    2.4285    1.6206 C.3       1 ATP         0.1979
     15 C4'        -0.1994    1.3333    2.4288 C.3       1 ATP         0.1179
     16 O4'        -1.1285    0.2356    2.5840 O.3       1 ATP        -0.3878
     17 C3'         1.0324    0.7610    1.7344 C.3       1 ATP         0.1185
     18 O3'         1.9175    0.2377    2.7247 O.3       1 ATP        -0.5544
     19 C2'         0.4468   -0.3802    0.9263 C.3       1 ATP         0.0542
     20 O2'         1.3993   -1.3703    0.5961 O.3       1 ATP        -0.5831
     21 C1'        -0.6159   -0.9100    1.8769 C.3       1 ATP         0.2222
     22 N9         -1.7127   -1.6108    1.2130 N.pl3     1 ATP        -0.1887
     23 C8         -1.7690   -2.9583    0.9549 C.ar      1 ATP         0.4447
     24 N7         -2.8827   -3.3076    0.3418 N.2       1 ATP        -0.6159
     25 C5         -3.5683   -2.1351    0.2017 C.ar      1 ATP         0.2195
     26 C6         -4.8617   -1.9185   -0.4044 C.ar      1 ATP         0.6144
     27 N6         -5.5166   -2.9094   -0.8994 N.2       1 ATP        -0.8160
     28 N1         -5.1836   -0.5701   -0.3344 N.pl3     1 ATP        -0.8611
     29 C2         -4.3821    0.4180    0.2330 C.ar      1 ATP         0.6141
     30 N3         -3.2117    0.2488    0.7860 N.2       1 ATP        -0.5913
     31 C4         -2.8672   -1.0657    0.7327 C.ar      1 ATP         0.0067
     32 HOG3       -5.3361    7.7674    1.5656 H         1 ATP         0.4313
     33 HOB2       -1.9842    8.8168    1.7440 H         1 ATP         0.4716
     34 H5'1       -1.7770    2.7851    2.1387 H         1 ATP         0.0452
     35 H5'2       -1.1653    2.0543    0.6320 H         1 ATP         0.0452
     36 H4'         0.0403    1.7078    3.4343 H         1 ATP         0.0998
     37 H3'         1.5906    1.4859    1.1353 H         1 ATP         0.0544
     38 HO3'        2.6839   -0.1150    2.2479 H         1 ATP         0.3961
     39 H2'        -0.0017    0.0018    0.0005 H         1 ATP         0.0499
     40 HO2'        2.0953   -0.9375    0.0709 H         1 ATP         0.4045
     41 H1'        -0.1998   -1.6319    2.6178 H         1 ATP         0.0912
     42 H8         -0.9697   -3.6300    1.2371 H         1 ATP         0.1090
     43 HN62       -6.4060   -2.5723   -1.2840 H         1 ATP         0.3694
     44 H2         -4.8409    1.4176    0.1757 H         1 ATP         0.0371
     45 H45        -6.0768   -0.2826   -0.7263 H         1 ATP         0.4283
@<TRIPOS>BOND
     1    1    2 2
     2    1    3 1
     3    1    4 1
     4    1    8 1
     5    4   32 1
     6    5    6 2
     7    5    7 1
     8    5    8 1
     9    5   12 1
    10    7   33 1
    11    9   10 2
    12    9   11 1
    13    9   12 1
    14    9   13 1
    15   13   14 1
    16   14   15 1
    17   14   34 1
    18   14   35 1
    19   15   16 1
    20   15   17 1
    21   15   36 1
    22   16   21 1
    23   17   18 1
    24   17   19 1
    25   17   37 1
    26   18   38 1
    27   19   20 1
    28   19   21 1
    29   19   39 1
    30   20   40 1
    31   21   22 1
    32   21   41 1
    33   22   23 ar
    34   22   31 ar
    35   23   24 ar
    36   23   42 1
    37   24   25 ar
    38   25   26 ar
    39   25   31 ar
    40   26   27 2
    41   26   28 ar
    42   27   43 1
    43   28   29 ar
    44   28   45 1
    45   29   30 ar
    46   29   44 1
    47   30   31 ar
@<TRIPOS>SUBSTRUCTURE
     1 ATP         1 GROUP 0 A     ****
@<TRIPOS>MOLECULE
[[[3,4-dihydroxy-5-(6-imino-1~{H}-purin-9-yl)tetrahydrofuran-2-yl]methoxy-oxido-phosphoryl]oxy-hydroxy-phosphoryl] hydrogen phosphate
   45    47     1     0     0
SMALL
USER_CHARGES

@<TRIPOS>ATOM
      1 PG          7.9193    5.7775   -3.6120 P.3       1 ATP         1.5496
      2 O1G         8.2628    5.5132   -5.0611 O.co2     1 ATP        -0.8494
      3 O2G         8.9940    6.1442   -2.6131 O.co2     1 ATP        -0.8494
      4 O3G         6.7495    6.9153   -3.5560 O.3       1 ATP        -0.7845
      5 PB          7.5024    2.9818   -2.7704 P.3       1 ATP         1.9068
      6 O1B         7.9758    2.2351   -3.9822 O.2       1 ATP        -0.8942
      7 O2B         8.5789    3.0920   -1.5693 O.3       1 ATP        -0.8166
      8 O3B         7.0637    4.5152   -3.0334 O.3       1 ATP        -0.8194
      9 PA          5.8978    0.9308   -1.3849 P.3       1 ATP         1.5903
     10 O1A         6.7865    0.7713   -0.1705 O.co2     1 ATP        -0.8519
     11 O2A         5.9016   -0.1054   -2.4876 O.co2     1 ATP        -0.8519
     12 O3A         6.1792    2.3930   -2.0547 O.3       1 ATP        -0.8093
     13 O5'         4.3515    1.1574   -0.9027 O.3       1 ATP        -0.5649
     14 C5'         4.0922    1.9801    0.2227 C.3       1 ATP         0.1979
     15 C4'         2.5944    2.0310    0.4653 C.3       1 ATP         0.1179
     16 O4'         1.9327    2.5740   -0.6889 O.3       1 ATP        -0.3878
     17 C3'         1.9685    0.6634    0.6767 C.3       1 ATP         0.1185
     18 O3'         2.1425    0.1975    1.9977 O.3       1 ATP        -0.5544
     19 C2'         0.5176    0.9128    0.3099 C.3       1 ATP         0.0542
     20 O2'        -0.2103    1.4454    1.4152 O.3       1 ATP        -0.5831
     21 C1'         0.6219    1.9765   -0.7844 C.3       1 ATP         0.2222
     22 N9          0.4237    1.4496   -2.1357 N.pl3     1 ATP        -0.1887
     23 C8          1.4069    0.9710   -2.9662 C.ar      1 ATP         0.4447
     24 N7          0.9316    0.5623   -4.1260 N.2       1 ATP        -0.6159
     25 C5         -0.4120    0.7884   -4.0344 C.ar      1 ATP         0.2195
     26 C6         -1.4353    0.5283   -5.0204 C.ar      1 ATP         0.6144
     27 N6         -1.1199    0.0176   -6.1586 N.2       1 ATP        -0.8160
     28 N1         -2.6704    0.9095   -4.5147 N.pl3     1 ATP        -0.8611
     29 C2         -2.8863    1.4571   -3.2520 C.ar      1 ATP         0.6141
     30 N3         -1.9805    1.7017   -2.3442 N.2       1 ATP        -0.5913
     31 C4         -0.7561    1.3381   -2.8112 C.ar      1 ATP         0.0067
     32 HOG3        6.4153    7.1983   -2.6782 H         1 ATP         0.4313
     33 HOB2        8.9198    2.2680   -1.1606 H         1 ATP         0.4716
     34 H5'1        4.6070    1.5617    1.0934 H         1 ATP         0.0452
     35 H5'2        4.4825    2.9836    0.0252 H         1 ATP         0.0452
     36 H4'         2.3751    2.7029    1.3156 H         1 ATP         0.0998
     37 H3'         2.4336   -0.1217   -0.0015 H         1 ATP         0.0544
     38 HO3'        1.7160   -0.6716    2.0397 H         1 ATP         0.3961
     39 H2'         0.0316    0.0155   -0.0339 H         1 ATP         0.0499
     40 HO2'       -0.1608    0.7921    2.1351 H         1 ATP         0.4045
     41 H1'        -0.1474    2.7798   -0.6651 H         1 ATP         0.0912
     42 H8          2.4466    0.9468   -2.6694 H         1 ATP         0.1090
     43 HN62       -1.9661   -0.0965   -6.7275 H         1 ATP         0.3694
     44 H2         -3.9481    1.6825   -3.0660 H         1 ATP         0.0371
     45 H45        -3.4814    0.7753   -5.1133 H         1 ATP         0.4283
@<TRIPOS>BOND
     1    1    2 2
     2    1    3 1
     3    1    4 1
     4    1    8 1
     5    4   32 1
     6    5    6 2
     7    5    7 1
     8    5    8 1
     9    5   12 1
    10    7   33 1
    11    9   10 2
    12    9   11 1
    13    9   12 1
    14    9   13 1
    15   13   14 1
    16   14   15 1
    17   14   34 1
    18   14   35 1
    19   15   16 1
    20   15   17 1
    21   15   36 1
    22   16   21 1
    23   17   18 1
    24   17   19 1
    25   17   37 1
    26   18   38 1
    27   19   20 1
    28   19   21 1
    29   19   39 1
    30   20   40 1
    31   21   22 1
    32   21   41 1
    33   22   23 ar
    34   22   31 ar
    35   23   24 ar
    36   23   42 1
    37   24   25 ar
    38   25   26 ar
    39   25   31 ar
    40   26   27 2
    41   26   28 ar
    42   27   43 1
    43   28   29 ar
    44   28   45 1
    45   29   30 ar
    46   29   44 1
    47   30   31 ar
@<TRIPOS>SUBSTRUCTURE
     1 ATP         1 GROUP 0 A     ****
@<TRIPOS>MOLECULE
[[[3,4-dihydroxy-5-(6-imino-1~{H}-purin-9-yl)tetrahydrofuran-2-yl]methoxy-oxido-phosphoryl]oxy-hydroxy-phosphoryl] hydrogen phosphate
   45    47     1     0     0
SMALL
USER_CHARGES

@<TRIPOS>ATOM
      1 PG         -2.4615    3.4946   -2.5616 P.3       1 ATP         1.5496
      2 O1G        -3.1099    2.2529   -3.1322 O.co2     1 ATP        -0.8494
      3 O2G        -1.2362    3.3963   -1.6806 O.co2     1 ATP        -0.8494
      4 O3G        -2.1361    4.5204   -3.7896 O.3       1 ATP        -0.7845
      5 PB         -4.4459    4.0655   -0.4558 P.3       1 ATP         1.9068
      6 O1B        -5.4165    5.1343   -0.0483 O.2       1 ATP        -0.8942
      7 O2B        -5.1035    2.6180   -0.7488 O.3       1 ATP        -0.8166
      8 O3B        -3.5977    4.3792   -1.7956 O.3       1 ATP        -0.8194
      9 PA         -3.3346    3.2336    2.1469 P.3       1 ATP         1.5903
     10 O1A        -3.9078    1.8333    2.1683 O.co2     1 ATP        -0.8519
     11 O2A        -3.9474    4.3330    2.9871 O.co2     1 ATP        -0.8519
     12 O3A        -3.2643    3.7501    0.5996 O.3       1 ATP        -0.8093
     13 O5'        -1.7337    3.1724    2.4752 O.3       1 ATP        -0.5649
     14 C5'        -0.8811    2.4285    1.6206 C.3       1 ATP         0.1979
     15 C4'        -0.1994    1.3333    2.4288 C.3       1 ATP         0.1179
     16 O4'        -1.1285    0.2356    2.5840 O.3       1 ATP        -0.3878
     17 C3'         1.0324    0.7610    1.7344 C.3       1 ATP         0.1185
     18 O3'         1.9175    0.2377    2.7247 O.3       1 ATP        -0.5544
     19 C2'         0.4468   -0.3802    0.9263 C.3       1 ATP         0.0542
     20 O2'         1.3993   -1.3703    0.5961 O.3       1 ATP        -0.5831
     21 C1'        -0.6159   -0.9100    1.8769 C.3       1 ATP         0.2222
     22 N9         -1.7127   -1.6108    1.2130 N.pl3     1 ATP        -0.1887
     23 C8         -2.8662   -1.0361    0.7388 C.ar      1 ATP         0.4447
     24 N7         -3.6774   -1.9166    0.1867 N.2       1 ATP        -0.6159
     25 C5         -3.0159   -3.1045    0.3123 C.ar      1 ATP         0.2195
     26 C6         -3.4377   -4.4169   -0.1199 C.ar      1 ATP         0.6144
     27 N6         -4.5720   -4.5691   -0.7080 N.2       1 ATP        -0.8160
     28 N1         -2.4600   -5.3463    0.2071 N.pl3     1 ATP        -0.8611
     29 C2         -1.2595   -5.0554    0.8515 C.ar      1 ATP         0.6141
     30 N3         -0.8555   -3.8803    1.2516 N.2       1 ATP        -0.5913
     31 C4         -1.7946   -2.9457    0.9448 C.ar      1 ATP         0.0067
     32 HOG3       -1.7107    5.3790   -3.5802 H         1 ATP         0.4313
     33 HOB2       -4.5198    1.8776   -1.0194 H         1 ATP         0.4716
     34 H5'1       -1.4801    1.9928    0.8147 H         1 ATP         0.0452
     35 H5'2       -0.1369    3.1041    1.1872 H         1 ATP         0.0452
     36 H4'         0.0403    1.7078    3.4343 H         1 ATP         0.0998
     37 H3'         1.5906    1.4859    1.1353 H         1 ATP         0.0544
     38 HO3'        2.6839   -0.1150    2.2479 H         1 ATP         0.3961
     39 H2'        -0.0017    0.0018    0.0005 H         1 ATP         0.0499
     40 HO2'        2.0953   -0.9375    0.0709 H         1 ATP         0.4045
     41 H1'        -0.1998   -1.6319    2.6178 H         1 ATP         0.0912
     42 H8         -3.0558    0.0252    0.8256 H         1 ATP         0.1090
     43 HN62       -4.7047   -5.5592   -0.9421 H         1 ATP         0.3694
     44 H2         -0.6372   -5.9505    1.0077 H         1 ATP         0.0371
     45 H45        -2.6338   -6.3155   -0.0469 H         1 ATP         0.4283
@<TRIPOS>BOND
     1    1    2 2
     2    1    3 1
     3    1    4 1
     4    1    8 1
     5    4   32 1
     6    5    6 2
     7    5    7 1
     8    5    8 1
     9    5   12 1
    10    7   33 1
    11    9   10 2
    12    9   11 1
    13    9   12 1
    14    9   13 1
    15   13   14 1
    16   14   15 1
    17   14   34 1
    18   14   35 1
    19   15   16 1
    20   15   17 1
    21   15   36 1
    22   16   21 1
    23   17   18 1
    24   17   19 1
    25   17   37 1
    26   18   38 1
    27   19   20 1
    28   19   21 1
    29   19   39 1
    30   20   40 1
    31   21   22 1
    32   21   41 1
    33   22   23 ar
    34   22   31 ar
    35   23   24 ar
    36   23   42 1
    37   24   25 ar
    38   25   26 ar
    39   25   31 ar
    40   26   27 2
    41   26   28 ar
    42   27   43 1
    43   28   29 ar
    44   28   45 1
    45   29   30 ar
    46   29   44 1
    47   30   31 ar
@<TRIPOS>SUBSTRUCTURE
     1 ATP         1 GROUP 0 A     ****
@<TRIPOS>MOLECULE
[[[3,4-dihydroxy-5-(6-imino-1~{H}-purin-9-yl)tetrahydrofuran-2-yl]methoxy-oxido-phosphoryl]oxy-hydroxy-phosphoryl] hydrogen phosphate
   45    47     1     0     0
SMALL
USER_CHARGES

@<TRIPOS>ATOM
      1 PG          2.7522    5.9210    2.8893 P.3       1 ATP         1.5496
      2 O1G         2.3805    4.5084    3.2819 O.co2     1 ATP        -0.8494
      3 O2G         2.8964    7.0052    3.9338 O.co2     1 ATP        -0.8494
      4 O3G         4.1228    5.8690    2.0033 O.3       1 ATP        -0.7845
      5 PB          0.1422    6.7440    1.7899 P.3       1 ATP         1.9068
      6 O1B        -0.2631    7.8131    2.7609 O.2       1 ATP        -0.8942
      7 O2B        -0.2515    7.0329    0.2487 O.3       1 ATP        -0.8166
      8 O3B         1.7274    6.4335    1.7286 O.3       1 ATP        -0.8194
      9 PA         -2.0037    4.7527    2.1524 P.3       1 ATP         1.5903
     10 O1A        -2.6321    4.8875    0.7824 O.co2     1 ATP        -0.8519
     11 O2A        -2.6546    5.3784    3.3667 O.co2     1 ATP        -0.8519
     12 O3A        -0.4573    5.2714    2.0756 O.3       1 ATP        -0.8093
     13 O5'        -1.7337    3.1724    2.4752 O.3       1 ATP        -0.5649
     14 C5'        -0.8811    2.4285    1.6206 C.3       1 ATP         0.1979
     15 C4'        -0.1994    1.3333    2.4288 C.3       1 ATP         0.1179
     16 O4'        -1.1285    0.2356    2.5840 O.3       1 ATP        -0.3878
     17 C3'         1.0324    0.7610    1.7344 C.3       1 ATP         0.1185
     18 O3'         1.9175    0.2377    2.7247 O.3       1 ATP        -0.5544
     19 C2'         0.4468   -0.3802    0.9263 C.3       1 ATP         0.0542
     20 O2'         1.3993   -1.3703    0.5961 O.3       1 ATP        -0.5831
     21 C1'        -0.6159   -0.9100    1.8769 C.3       1 ATP         0.2222
     22 N9         -1.7127   -1.6108    1.2130 N.pl3     1 ATP        -0.1887
     23 C8         -1.7690   -2.9583    0.9549 C.ar      1 ATP         0.4447
     24 N7         -2.8827   -3.3076    0.3418 N.2       1 ATP        -0.6159
     25 C5         -3.5683   -2.1351    0.2017 C.ar      1 ATP         0.2195
     26 C6         -4.8617   -1.9185   -0.4044 C.ar      1 ATP         0.6144
     27 N6         -5.5166   -2.9094   -0.8994 N.2       1 ATP        -0.8160
     28 N1         -5.1836   -0.5701   -0.3344 N.pl3     1 ATP        -0.8611
     29 C2         -4.3821    0.4180    0.2330 C.ar      1 ATP         0.6141
     30 N3         -3.2117    0.2488    0.7860 N.2       1 ATP        -0.5913
     31 C4         -2.8672   -1.0657    0.7327 C.ar      1 ATP         0.0067
     32 HOG3        4.4957    6.7130    1.6706 H         1 ATP         0.4313
     33 HOB2       -1.1967    7.1505    0.0145 H         1 ATP         0.4716
     34 H5'1       -1.4801    1.9928    0.8147 H         1 ATP         0.0452
     35 H5'2       -0.1369    3.1041    1.1872 H         1 ATP         0.0452
     36 H4'         0.0403    1.7078    3.4343 H         1 ATP         0.0998
     37 H3'         1.5906    1.4859    1.1353 H         1 ATP         0.0544
     38 HO3'        2.1521    0.9800    3.3017 H         1 ATP         0.3961
     39 H2'        -0.0017    0.0018    0.0005 H         1 ATP         0.0499
     40 HO2'        2.0953   -0.9375    0.0709 H         1 ATP         0.4045
     41 H1'        -0.1998   -1.6319    2.6178 H         1 ATP         0.0912
     42 H8         -0.9697   -3.6300    1.2371 H         1 ATP         0.1090
     43 HN62       -6.4060   -2.5723   -1.2840 H         1 ATP         0.3694
     44 H2         -4.8409    1.4176    0.1757 H         1 ATP         0.0371
     45 H45        -6.0768   -0.2826   -0.7263 H         1 ATP         0.4283
@<TRIPOS>BOND
     1    1    2 2
     2    1    3 1
     3    1    4 1
     4    1    8 1
     5    4   32 1
     6    5    6 2
     7    5    7 1
     8    5    8 1
     9    5   12 1
    10    7   33 1
    11    9   10 2
    12    9   11 1
    13    9   12 1
    14    9   13 1
    15   13   14 1
    16   14   15 1
    17   14   34 1
    18   14   35 1
    19   15   16 1
    20   15   17 1
    21   15   36 1
    22   16   21 1
    23   17   18 1
    24   17   19 1
    25   17   37 1
    26   18   38 1
    27   19   20 1
    28   19   21 1
    29   19   39 1
    30   20   40 1
    31   21   22 1
    32   21   41 1
    33   22   23 ar
    34   22   31 ar
    35   23   24 ar
    36   23   42 1
    37   24   25 ar
    38   25   26 ar
    39   25   31 ar
    40   26   27 2
    41   26   28 ar
    42   27   43 1
    43   28   29 ar
    44   28   45 1
    45   29   30 ar
    46   29   44 1
    47   30   31 ar
@<TRIPOS>SUBSTRUCTURE
     1 ATP         1 GROUP 0 A     ****
@<TRIPOS>MOLECULE
[[[3,4-dihydroxy-5-(6-imino-1~{H}-purin-9-yl)tetrahydrofuran-2-yl]methoxy-oxido-phosphoryl]oxy-hydroxy-phosphoryl] hydrogen phosphate
   45    47     1     0     0
SMALL
USER_CHARGES

@<TRIPOS>ATOM
      1 PG         -1.1999    9.2725    3.4263 P.3       1 ATP         1.5496
      2 O1G        -1.4506   10.2055    2.2625 O.co2     1 ATP        -0.8494
      3 O2G         0.0098    9.4489    4.3168 O.co2     1 ATP        -0.8494
      4 O3G        -2.5354    9.2449    4.3654 O.3       1 ATP        -0.7845
      5 PB         -0.2512    6.9411    1.8892 P.3       1 ATP         1.9068
      6 O1B        -0.1293    7.5249    0.5128 O.2       1 ATP        -0.8942
      7 O2B         1.1330    6.8482    2.7192 O.3       1 ATP        -0.8166
      8 O3B        -1.2445    7.7334    2.8885 O.3       1 ATP        -0.8194
      9 PA         -1.1367    4.4807    3.2541 P.3       1 ATP         1.5903
     10 O1A        -2.2255    5.1045    4.0999 O.co2     1 ATP        -0.8519
     11 O2A         0.1945    4.1001    3.8648 O.co2     1 ATP        -0.8519
     12 O3A        -0.8531    5.4441    1.9667 O.3       1 ATP        -0.8093
     13 O5'        -1.7337    3.1724    2.4752 O.3       1 ATP        -0.5649
     14 C5'        -0.8811    2.4285    1.6206 C.3       1 ATP         0.1979
     15 C4'        -0.1994    1.3333    2.4288 C.3       1 ATP         0.1179
     16 O4'        -1.1285    0.2356    2.5840 O.3       1 ATP        -0.3878
     17 C3'         1.0324    0.7610    1.7344 C.3       1 ATP         0.1185
     18 O3'         1.9175    0.2377    2.7247 O.3       1 ATP        -0.5544
     19 C2'         0.4468   -0.3802    0.9263 C.3       1 ATP         0.0542
     20 O2'         1.3993   -1.3703    0.5961 O.3       1 ATP        -0.5831
     21 C1'        -0.6159   -0.9100    1.8769 C.3       1 ATP         0.2222
     22 N9         -1.7127   -1.6108    1.2130 N.pl3     1 ATP        -0.1887
     23 C8         -2.8662   -1.0361    0.7388 C.ar      1 ATP         0.4447
     24 N7         -3.6774   -1.9166    0.1867 N.2       1 ATP        -0.6159
     25 C5         -3.0159   -3.1045    0.3123 C.ar      1 ATP         0.2195
     26 C6         -3.4377   -4.4169   -0.1199 C.ar      1 ATP         0.6144
     27 N6         -4.5720   -4.5691   -0.7080 N.2       1 ATP        -0.8160
     28 N1         -2.4600   -5.3463    0.2071 N.pl3     1 ATP        -0.8611
     29 C2         -1.2595   -5.0554    0.8515 C.ar      1 ATP         0.6141
     30 N3         -0.8555   -3.8803    1.2516 N.2       1 ATP        -0.5913
     31 C4         -1.7946   -2.9457    0.9448 C.ar      1 ATP         0.0067
     32 HOG3       -2.5301    8.6807    5.1678 H         1 ATP         0.4313
     33 HOB2        1.6292    7.6730    2.9085 H         1 ATP         0.4716
     34 H5'1       -1.4801    1.9928    0.8147 H         1 ATP         0.0452
     35 H5'2       -0.1369    3.1041    1.1872 H         1 ATP         0.0452
     36 H4'         0.0403    1.7078    3.4343 H         1 ATP         0.0998
     37 H3'         1.5906    1.4859    1.1353 H         1 ATP         0.0544
     38 HO3'        2.1521    0.9800    3.3017 H         1 ATP         0.3961
     39 H2'        -0.0017    0.0018    0.0005 H         1 ATP         0.0499
     40 HO2'        0.9369   -2.0558    0.0825 H         1 ATP         0.4045
     41 H1'        -0.1998   -1.6319    2.6178 H         1 ATP         0.0912
     42 H8         -3.0558    0.0252    0.8256 H         1 ATP         0.1090
     43 HN62       -4.7047   -5.5592   -0.9421 H         1 ATP         0.3694
     44 H2         -0.6372   -5.9505    1.0077 H         1 ATP         0.0371
     45 H45        -2.6338   -6.3155   -0.0469 H         1 ATP         0.4283
@<TRIPOS>BOND
     1    1    2 2
     2    1    3 1
     3    1    4 1
     4    1    8 1
     5    4   32 1
     6    5    6 2
     7    5    7 1
     8    5    8 1
     9    5   12 1
    10    7   33 1
    11    9   10 2
    12    9   11 1
    13    9   12 1
    14    9   13 1
    15   13   14 1
    16   14   15 1
    17   14   34 1
    18   14   35 1
    19   15   16 1
    20   15   17 1
    21   15   36 1
    22   16   21 1
    23   17   18 1
    24   17   19 1
    25   17   37 1
    26   18   38 1
    27   19   20 1
    28   19   21 1
    29   19   39 1
    30   20   40 1
    31   21   22 1
    32   21   41 1
    33   22   23 ar
    34   22   31 ar
    35   23   24 ar
    36   23   42 1
    37   24   25 ar
    38   25   26 ar
    39   25   31 ar
    40   26   27 2
    41   26   28 ar
    42   27   43 1
    43   28   29 ar
    44   28   45 1
    45   29   30 ar
    46   29   44 1
    47   30   31 ar
@<TRIPOS>SUBSTRUCTURE
     1 ATP         1 GROUP 0 A     ****
@<TRIPOS>MOLECULE
[[[3,4-dihydroxy-5-(6-imino-1~{H}-purin-9-yl)tetrahydrofuran-2-yl]methoxy-oxido-phosphoryl]oxy-hydroxy-phosphoryl] hydrogen phosphate
   45    47     1     0     0
SMALL
USER_CHARGES

@<TRIPOS>ATOM
      1 PG         -1.8162    8.0772   -2.3717 P.3       1 ATP         1.5496
      2 O1G        -2.5623    9.1746   -1.6460 O.co2     1 ATP        -0.8494
      3 O2G        -2.3229    7.5327   -3.6886 O.co2     1 ATP        -0.8494
      4 O3G        -0.2648    8.5473   -2.5678 O.3       1 ATP        -0.7845
      5 PB         -2.6209    5.8224   -0.6494 P.3       1 ATP         1.9068
      6 O1B        -3.6559    6.4711    0.2214 O.2       1 ATP        -0.8942
      7 O2B        -3.2071    4.9700   -1.8917 O.3       1 ATP        -0.8166
      8 O3B        -1.5698    6.8362   -1.3425 O.3       1 ATP        -0.8194
      9 PA         -0.5789    5.0299    1.3262 P.3       1 ATP         1.5903
     10 O1A        -1.3654    5.3738    2.5725 O.co2     1 ATP        -0.8519
     11 O2A         0.5326    5.9338    0.8392 O.co2     1 ATP        -0.8519
     12 O3A        -1.6231    4.7921    0.0937 O.3       1 ATP        -0.8093
     13 O5'         0.0180    3.5131    1.4595 O.3       1 ATP        -0.5649
     14 C5'        -0.8811    2.4285    1.6206 C.3       1 ATP         0.1979
     15 C4'        -0.1994    1.3333    2.4288 C.3       1 ATP         0.1179
     16 O4'        -1.1285    0.2356    2.5840 O.3       1 ATP        -0.3878
     17 C3'         1.0324    0.7610    1.7344 C.3       1 ATP         0.1185
     18 O3'         1.9175    0.2377    2.7247 O.3       1 ATP        -0.5544
     19 C2'         0.4468   -0.3802    0.9263 C.3       1 ATP         0.0542
     20 O2'         1.3993   -1.3703    0.5961 O.3       1 ATP        -0.5831
     21 C1'        -0.6159   -0.9100    1.8769 C.3       1 ATP         0.2222
     22 N9         -1.7127   -1.6108    1.2130 N.pl3     1 ATP        -0.1887
     23 C8         -2.0868   -2.9137    1.4327 C.ar      1 ATP         0.4447
     24 N7         -3.1125   -3.2756    0.6878 N.2       1 ATP        -0.6159
     25 C5         -3.4079   -2.1580   -0.0391 C.ar      1 ATP         0.2195
     26 C6         -4.4483   -1.9775   -1.0249 C.ar      1 ATP         0.6144
     27 N6         -5.2418   -2.9492   -1.3113 N.2       1 ATP        -0.8160
     28 N1         -4.3937   -0.6823   -1.5211 N.pl3     1 ATP        -0.8611
     29 C2         -3.4770    0.2901   -1.1271 C.ar      1 ATP         0.6141
     30 N3         -2.5289    0.1525   -0.2403 N.2       1 ATP        -0.5913
     31 C4         -2.5564   -1.1096    0.2655 C.ar      1 ATP         0.0067
     32 HOG3        0.3531    7.9384   -3.0256 H         1 ATP         0.4313
     33 HOB2       -3.8005    4.2107   -1.7082 H         1 ATP         0.4716
     34 H5'1       -1.7770    2.7851    2.1387 H         1 ATP         0.0452
     35 H5'2       -1.1653    2.0543    0.6320 H         1 ATP         0.0452
     36 H4'         0.0403    1.7078    3.4343 H         1 ATP         0.0998
     37 H3'         1.5906    1.4859    1.1353 H         1 ATP         0.0544
     38 HO3'        2.1521    0.9800    3.3017 H         1 ATP         0.3961
     39 H2'        -0.0017    0.0018    0.0005 H         1 ATP         0.0499
     40 HO2'        0.9369   -2.0558    0.0825 H         1 ATP         0.4045
     41 H1'        -0.1998   -1.6319    2.6178 H         1 ATP         0.0912
     42 H8         -1.5740   -3.5449    2.1457 H         1 ATP         0.1090
     43 HN62       -5.9117   -2.6433   -2.0256 H         1 ATP         0.3694
     44 H2         -3.6225    1.2454   -1.6553 H         1 ATP         0.0371
     45 H45        -5.0794   -0.4231   -2.2258 H         1 ATP         0.4283
@<TRIPOS>BOND
     1    1    2 2
     2    1    3 1
     3    1    4 1
     4    1    8 1
     5    4   32 1
     6    5    6 2
     7    5    7 1
     8    5    8 1
     9    5   12 1
    10    7   33 1
    11    9   10 2
    12    9   11 1
    13    9   12 1
    14    9   13 1
    15   13   14 1
    16   14   15 1
    17   14   34 1
    18   14   35 1
    19   15   16 1
    20   15   17 1
    21   15   36 1
    22   16   21 1
    23   17   18 1
    24   17   19 1
    25   17   37 1
    26   18   38 1
    27   19   20 1
    28   19   21 1
    29   19   39 1
    30   20   40 1
    31   21   22 1
    32   21   41 1
    33   22   23 ar
    34   22   31 ar
    35   23   24 ar
    36   23   42 1
    37   24   25 ar
    38   25   26 ar
    39   25   31 ar
    40   26   27 2
    41   26   28 ar
    42   27   43 1
    43   28   29 ar
    44   28   45 1
    45   29   30 ar
    46   29   44 1
    47   30   31 ar
@<TRIPOS>SUBSTRUCTURE
     1 ATP         1 GROUP 0 A     ****
@<TRIPOS>MOLECULE
[[[3,4-dihydroxy-5-(6-imino-1~{H}-purin-9-yl)tetrahydrofuran-2-yl]methoxy-oxido-phosphoryl]oxy-hydroxy-phosphoryl] hydrogen phosphate
   45    47     1     0     0
SMALL
USER_CHARGES

@<TRIPOS>ATOM
      1 PG         10.0740    0.0407    0.6885 P.3       1 ATP         1.5496
      2 O1G        11.2429    0.9031    1.1100 O.co2     1 ATP        -0.8494
      3 O2G        10.1858   -0.8955   -0.4941 O.co2     1 ATP        -0.8494
      4 O3G         9.5695   -0.8172    1.9830 O.3       1 ATP        -0.7845
      5 PB          8.4517    2.1431   -0.5945 P.3       1 ATP         1.9068
      6 O1B         9.4098    3.2973   -0.5929 O.2       1 ATP        -0.8942
      7 O2B         8.3537    1.3357   -1.9917 O.3       1 ATP        -0.8166
      8 O3B         8.7612    0.9888    0.4940 O.3       1 ATP        -0.8194
      9 PA          5.8654    3.5045   -0.9929 P.3       1 ATP         1.5903
     10 O1A         5.5609    2.9521   -2.3684 O.co2     1 ATP        -0.8519
     11 O2A         6.3581    4.9249   -0.8215 O.co2     1 ATP        -0.8519
     12 O3A         6.9164    2.5038   -0.2446 O.3       1 ATP        -0.8093
     13 O5'         4.5669    3.2939   -0.0211 O.3       1 ATP        -0.5649
     14 C5'         4.0922    1.9801    0.2227 C.3       1 ATP         0.1979
     15 C4'         2.5944    2.0310    0.4653 C.3       1 ATP         0.1179
     16 O4'         1.9327    2.5740   -0.6889 O.3       1 ATP        -0.3878
     17 C3'         1.9685    0.6634    0.6767 C.3       1 ATP         0.1185
     18 O3'         2.1425    0.1975    1.9977 O.3       1 ATP        -0.5544
     19 C2'         0.5176    0.9128    0.3099 C.3       1 ATP         0.0542
     20 O2'        -0.2103    1.4454    1.4152 O.3       1 ATP        -0.5831
     21 C1'         0.6219    1.9765   -0.7844 C.3       1 ATP         0.2222
     22 N9          0.4237    1.4496   -2.1357 N.pl3     1 ATP        -0.1887
     23 C8          1.4069    0.9710   -2.9662 C.ar      1 ATP         0.4447
     24 N7          0.9316    0.5623   -4.1260 N.2       1 ATP        -0.6159
     25 C5         -0.4120    0.7884   -4.0344 C.ar      1 ATP         0.2195
     26 C6         -1.4353    0.5283   -5.0204 C.ar      1 ATP         0.6144
     27 N6         -1.1199    0.0176   -6.1586 N.2       1 ATP        -0.8160
     28 N1         -2.6704    0.9095   -4.5147 N.pl3     1 ATP        -0.8611
     29 C2         -2.8863    1.4571   -3.2520 C.ar      1 ATP         0.6141
     30 N3         -1.9805    1.7017   -2.3442 N.2       1 ATP        -0.5913
     31 C4         -0.7561    1.3381   -2.8112 C.ar      1 ATP         0.0067
     32 HOG3        8.8114   -1.4294    1.8705 H         1 ATP         0.4313
     33 HOB2        8.0700    1.8162   -2.7985 H         1 ATP         0.4716
     34 H5'1        4.3180    1.3550   -0.6470 H         1 ATP         0.0452
     35 H5'2        4.6084    1.5739    1.0983 H         1 ATP         0.0452
     36 H4'         2.3751    2.7029    1.3156 H         1 ATP         0.0998
     37 H3'         2.4336   -0.1217   -0.0015 H         1 ATP         0.0544
     38 HO3'        1.7160   -0.6716    2.0397 H         1 ATP         0.3961
     39 H2'         0.0316    0.0155   -0.0339 H         1 ATP         0.0499
     40 HO2'       -0.1608    0.7921    2.1351 H         1 ATP         0.4045
     41 H1'        -0.1474    2.7798   -0.6651 H         1 ATP         0.0912
     42 H8          2.4466    0.9468   -2.6694 H         1 ATP         0.1090
     43 HN62       -1.9661   -0.0965   -6.7275 H         1 ATP         0.3694
     44 H2         -3.9481    1.6825   -3.0660 H         1 ATP         0.0371
     45 H45        -3.4814    0.7753   -5.1133 H         1 ATP         0.4283
@<TRIPOS>BOND
     1    1    2 2
     2    1    3 1
     3    1    4 1
     4    1    8 1
     5    4   32 1
     6    5    6 2
     7    5    7 1
     8    5    8 1
     9    5   12 1
    10    7   33 1
    11    9   10 2
    12    9   11 1
    13    9   12 1
    14    9   13 1
    15   13   14 1
    16   14   15 1
    17   14   34 1
    18   14   35 1
    19   15   16 1
    20   15   17 1
    21   15   36 1
    22   16   21 1
    23   17   18 1
    24   17   19 1
    25   17   37 1
    26   18   38 1
    27   19   20 1
    28   19   21 1
    29   19   39 1
    30   20   40 1
    31   21   22 1
    32   21   41 1
    33   22   23 ar
    34   22   31 ar
    35   23   24 ar
    36   23   42 1
    37   24   25 ar
    38   25   26 ar
    39   25   31 ar
    40   26   27 2
    41   26   28 ar
    42   27   43 1
    43   28   29 ar
    44   28   45 1
    45   29   30 ar
    46   29   44 1
    47   30   31 ar
@<TRIPOS>SUBSTRUCTURE
     1 ATP         1 GROUP 0 A     ****
@<TRIPOS>MOLECULE
[[[3,4-dihydroxy-5-(6-imino-1~{H}-purin-9-yl)tetrahydrofuran-2-yl]methoxy-oxido-phosphoryl]oxy-hydroxy-phosphoryl] hydrogen phosphate
   45    47     1     0     0
SMALL
USER_CHARGES

@<TRIPOS>ATOM
      1 PG         10.5699    1.9183    0.6662 P.3       1 ATP         1.5496
      2 O1G        11.0076    1.2293    1.9395 O.co2     1 ATP        -0.8494
      3 O2G        11.3322    3.1070    0.1245 O.co2     1 ATP        -0.8494
      4 O3G        10.4502    0.7972   -0.5149 O.3       1 ATP        -0.7845
      5 PB          8.2497    3.3731    1.7608 P.3       1 ATP         1.9068
      6 O1B         8.4094    3.1199    3.2307 O.2       1 ATP        -0.8942
      7 O2B         8.7967    4.8056    1.2487 O.3       1 ATP        -0.8166
      8 O3B         8.9922    2.3116    0.7939 O.3       1 ATP        -0.8194
      9 PA          6.1592    3.5242   -0.3148 P.3       1 ATP         1.5903
     10 O1A         6.6758    2.4088   -1.1974 O.co2     1 ATP        -0.8519
     11 O2A         6.3637    4.9731   -0.7001 O.co2     1 ATP        -0.8519
     12 O3A         6.7372    3.3096    1.1971 O.3       1 ATP        -0.8093
     13 O5'         4.5669    3.2939   -0.0211 O.3       1 ATP        -0.5649
     14 C5'         4.0922    1.9801    0.2227 C.3       1 ATP         0.1979
     15 C4'         2.5944    2.0310    0.4653 C.3       1 ATP         0.1179
     16 O4'         1.9327    2.5740   -0.6889 O.3       1 ATP        -0.3878
     17 C3'         1.9685    0.6634    0.6767 C.3       1 ATP         0.1185
     18 O3'         2.1425    0.1975    1.9977 O.3       1 ATP        -0.5544
     19 C2'         0.5176    0.9128    0.3099 C.3       1 ATP         0.0542
     20 O2'        -0.2103    1.4454    1.4152 O.3       1 ATP        -0.5831
     21 C1'         0.6219    1.9765   -0.7844 C.3       1 ATP         0.2222
     22 N9          0.4237    1.4496   -2.1357 N.pl3     1 ATP        -0.1887
     23 C8          1.4069    0.9710   -2.9662 C.ar      1 ATP         0.4447
     24 N7          0.9316    0.5623   -4.1260 N.2       1 ATP        -0.6159
     25 C5         -0.4120    0.7884   -4.0344 C.ar      1 ATP         0.2195
     26 C6         -1.4353    0.5283   -5.0204 C.ar      1 ATP         0.6144
     27 N6         -1.1199    0.0176   -6.1586 N.2       1 ATP        -0.8160
     28 N1         -2.6704    0.9095   -4.5147 N.pl3     1 ATP        -0.8611
     29 C2         -2.8863    1.4571   -3.2520 C.ar      1 ATP         0.6141
     30 N3         -1.9805    1.7017   -2.3442 N.2       1 ATP        -0.5913
     31 C4         -0.7561    1.3381   -2.8112 C.ar      1 ATP         0.0067
     32 HOG3       10.1739    1.0895   -1.4096 H         1 ATP         0.4313
     33 HOB2        8.4068    5.6240    1.6235 H         1 ATP         0.4716
     34 H5'1        4.3180    1.3550   -0.6470 H         1 ATP         0.0452
     35 H5'2        4.6084    1.5739    1.0983 H         1 ATP         0.0452
     36 H4'         2.3751    2.7029    1.3156 H         1 ATP         0.0998
     37 H3'         2.4336   -0.1217   -0.0015 H         1 ATP         0.0544
     38 HO3'        3.0987    0.1465    2.1461 H         1 ATP         0.3961
     39 H2'         0.0316    0.0155   -0.0339 H         1 ATP         0.0499
     40 HO2'       -0.1608    0.7921    2.1351 H         1 ATP         0.4045
     41 H1'        -0.1474    2.7798   -0.6651 H         1 ATP         0.0912
     42 H8          2.4466    0.9468   -2.6694 H         1 ATP         0.1090
     43 HN62       -1.9661   -0.0965   -6.7275 H         1 ATP         0.3694
     44 H2         -3.9481    1.6825   -3.0660 H         1 ATP         0.0371
     45 H45        -3.4814    0.7753   -5.1133 H         1 ATP         0.4283
@<TRIPOS>BOND
     1    1    2 2
     2    1    3 1
     3    1    4 1
     4    1    8 1
     5    4   32 1
     6    5    6 2
     7    5    7 1
     8    5    8 1
     9    5   12 1
    10    7   33 1
    11    9   10 2
    12    9   11 1
    13    9   12 1
    14    9   13 1
    15   13   14 1
    16   14   15 1
    17   14   34 1
    18   14   35 1
    19   15   16 1
    20   15   17 1
    21   15   36 1
    22   16   21 1
    23   17   18 1
    24   17   19 1
    25   17   37 1
    26   18   38 1
    27   19   20 1
    28   19   21 1
    29   19   39 1
    30   20   40 1
    31   21   22 1
    32   21   41 1
    33   22   23 ar
    34   22   31 ar
    35   23   24 ar
    36   23   42 1
    37   24   25 ar
    38   25   26 ar
    39   25   31 ar
    40   26   27 2
    41   26   28 ar
    42   27   43 1
    43   28   29 ar
    44   28   45 1
    45   29   30 ar
    46   29   44 1
    47   30   31 ar
@<TRIPOS>SUBSTRUCTURE
     1 ATP         1 GROUP 0 A     ****
@<TRIPOS>MOLECULE
[[[3,4-dihydroxy-5-(6-imino-1~{H}-purin-9-yl)tetrahydrofuran-2-yl]methoxy-oxido-phosphoryl]oxy-hydroxy-phosphoryl] hydrogen phosphate
   45    47     1     0     0
SMALL
USER_CHARGES

@<TRIPOS>ATOM
      1 PG         -1.4721    8.7929    0.9061 P.3       1 ATP         1.5496
      2 O1G        -0.0845    8.8695    1.5030 O.co2     1 ATP        -0.8494
      3 O2G        -2.6210    9.5705    1.5084 O.co2     1 ATP        -0.8494
      4 O3G        -1.3741    9.1594   -0.6820 O.3       1 ATP        -0.7845
      5 PB         -2.2058    6.1185    1.9097 P.3       1 ATP         1.9068
      6 O1B        -1.0650    5.8291    2.8398 O.2       1 ATP        -0.8942
      7 O2B        -3.5514    6.6604    2.6233 O.3       1 ATP        -0.8166
      8 O3B        -1.9033    7.2257    0.7715 O.3       1 ATP        -0.8194
      9 PA         -3.3161    3.4232    1.4577 P.3       1 ATP         1.5903
     10 O1A        -3.5062    2.5741    0.2197 O.co2     1 ATP        -0.8519
     11 O2A        -4.4618    3.6582    2.4178 O.co2     1 ATP        -0.8519
     12 O3A        -2.7142    4.8745    1.0132 O.3       1 ATP        -0.8093
     13 O5'        -2.0402    2.8619    2.3130 O.3       1 ATP        -0.5649
     14 C5'        -0.8811    2.4285    1.6206 C.3       1 ATP         0.1979
     15 C4'        -0.1994    1.3333    2.4288 C.3       1 ATP         0.1179
     16 O4'        -1.1285    0.2356    2.5840 O.3       1 ATP        -0.3878
     17 C3'         1.0324    0.7610    1.7344 C.3       1 ATP         0.1185
     18 O3'         1.9175    0.2377    2.7247 O.3       1 ATP        -0.5544
     19 C2'         0.4468   -0.3802    0.9263 C.3       1 ATP         0.0542
     20 O2'         1.3993   -1.3703    0.5961 O.3       1 ATP        -0.5831
     21 C1'        -0.6159   -0.9100    1.8769 C.3       1 ATP         0.2222
     22 N9         -1.7127   -1.6108    1.2130 N.pl3     1 ATP        -0.1887
     23 C8         -1.5982   -2.7455    0.4481 C.ar      1 ATP         0.4447
     24 N7         -2.7593   -3.1533   -0.0249 N.2       1 ATP        -0.6159
     25 C5         -3.6547   -2.2420    0.4573 C.ar      1 ATP         0.2195
     26 C6         -5.0842   -2.1942    0.2543 C.ar      1 ATP         0.6144
     27 N6         -5.6648   -3.0919   -0.4618 N.2       1 ATP        -0.8160
     28 N1         -5.6087   -1.0978    0.9248 N.pl3     1 ATP        -0.8611
     29 C2         -4.8689   -0.1873    1.6760 C.ar      1 ATP         0.6141
     30 N3         -3.5787   -0.2081    1.8745 N.2       1 ATP        -0.5913
     31 C4         -3.0344   -1.2737    1.2284 C.ar      1 ATP         0.0067
     32 HOG3       -2.1981    9.1533   -1.2142 H         1 ATP         0.4313
     33 HOB2       -3.5127    7.4946    3.1379 H         1 ATP         0.4716
     34 H5'1       -1.1769    2.0503    0.6369 H         1 ATP         0.0452
     35 H5'2       -0.2081    3.2815    1.4877 H         1 ATP         0.0452
     36 H4'         0.0403    1.7078    3.4343 H         1 ATP         0.0998
     37 H3'         1.5906    1.4859    1.1353 H         1 ATP         0.0544
     38 HO3'        2.6839   -0.1150    2.2479 H         1 ATP         0.3961
     39 H2'        -0.0017    0.0018    0.0005 H         1 ATP         0.0499
     40 HO2'        2.0953   -0.9375    0.0709 H         1 ATP         0.4045
     41 H1'        -0.1998   -1.6319    2.6178 H         1 ATP         0.0912
     42 H8         -0.6448   -3.2254    0.2735 H         1 ATP         0.1090
     43 HN62       -6.6723   -2.9015   -0.4966 H         1 ATP         0.3694
     44 H2         -5.4961    0.6026    2.1182 H         1 ATP         0.0371
     45 H45        -6.6130   -0.9504    0.8642 H         1 ATP         0.4283
@<TRIPOS>BOND
     1    1    2 2
     2    1    3 1
     3    1    4 1
     4    1    8 1
     5    4   32 1
     6    5    6 2
     7    5    7 1
     8    5    8 1
     9    5   12 1
    10    7   33 1
    11    9   10 2
    12    9   11 1
    13    9   12 1
    14    9   13 1
    15   13   14 1
    16   14   15 1
    17   14   34 1
    18   14   35 1
    19   15   16 1
    20   15   17 1
    21   15   36 1
    22   16   21 1
    23   17   18 1
    24   17   19 1
    25   17   37 1
    26   18   38 1
    27   19   20 1
    28   19   21 1
    29   19   39 1
    30   20   40 1
    31   21   22 1
    32   21   41 1
    33   22   23 ar
    34   22   31 ar
    35   23   24 ar
    36   23   42 1
    37   24   25 ar
    38   25   26 ar
    39   25   31 ar
    40   26   27 2
    41   26   28 ar
    42   27   43 1
    43   28   29 ar
    44   28   45 1
    45   29   30 ar
    46   29   44 1
    47   30   31 ar
@<TRIPOS>SUBSTRUCTURE
     1 ATP         1 GROUP 0 A     ****
@<TRIPOS>MOLECULE
[[[3,4-dihydroxy-5-(6-imino-1~{H}-purin-9-yl)tetrahydrofuran-2-yl]methoxy-oxido-phosphoryl]oxy-hydroxy-phosphoryl] hydrogen phosphate
   45    47     1     0     0
SMALL
USER_CHARGES

@<TRIPOS>ATOM
      1 PG         -3.4560    6.6749   -2.4663 P.3       1 ATP         1.5496
      2 O1G        -3.5267    5.5180   -3.4381 O.co2     1 ATP        -0.8494
      3 O2G        -2.7567    7.9625   -2.8409 O.co2     1 ATP        -0.8494
      4 O3G        -4.9716    7.0320   -1.9746 O.3       1 ATP        -0.7845
      5 PB         -1.3860    5.5812   -0.6728 P.3       1 ATP         1.9068
      6 O1B        -0.9487    4.3648   -1.4340 O.2       1 ATP        -0.8942
      7 O2B        -0.4322    6.8755   -0.8426 O.3       1 ATP        -0.8166
      8 O3B        -2.8567    6.1373   -1.0479 O.3       1 ATP        -0.8194
      9 PA         -0.3961    4.9845    2.0411 P.3       1 ATP         1.5903
     10 O1A        -1.0788    4.8231    3.3819 O.co2     1 ATP        -0.8519
     11 O2A         0.7940    5.9060    1.8851 O.co2     1 ATP        -0.8519
     12 O3A        -1.5153    5.3999    0.9272 O.3       1 ATP        -0.8093
     13 O5'         0.0180    3.5131    1.4595 O.3       1 ATP        -0.5649
     14 C5'        -0.8811    2.4285    1.6206 C.3       1 ATP         0.1979
     15 C4'        -0.1994    1.3333    2.4288 C.3       1 ATP         0.1179
     16 O4'        -1.1285    0.2356    2.5840 O.3       1 ATP        -0.3878
     17 C3'         1.0324    0.7610    1.7344 C.3       1 ATP         0.1185
     18 O3'         1.9175    0.2377    2.7247 O.3       1 ATP        -0.5544
     19 C2'         0.4468   -0.3802    0.9263 C.3       1 ATP         0.0542
     20 O2'         1.3993   -1.3703    0.5961 O.3       1 ATP        -0.5831
     21 C1'        -0.6159   -0.9100    1.8769 C.3       1 ATP         0.2222
     22 N9         -1.7127   -1.6108    1.2130 N.pl3     1 ATP        -0.1887
     23 C8         -1.7690   -2.9583    0.9549 C.ar      1 ATP         0.4447
     24 N7         -2.8827   -3.3076    0.3418 N.2       1 ATP        -0.6159
     25 C5         -3.5683   -2.1351    0.2017 C.ar      1 ATP         0.2195
     26 C6         -4.8617   -1.9185   -0.4044 C.ar      1 ATP         0.6144
     27 N6         -5.5166   -2.9094   -0.8994 N.2       1 ATP        -0.8160
     28 N1         -5.1836   -0.5701   -0.3344 N.pl3     1 ATP        -0.8611
     29 C2         -4.3821    0.4180    0.2330 C.ar      1 ATP         0.6141
     30 N3         -3.2117    0.2488    0.7860 N.2       1 ATP        -0.5913
     31 C4         -2.8672   -1.0657    0.7327 C.ar      1 ATP         0.0067
     32 HOG3       -5.0942    7.7668   -1.3365 H         1 ATP         0.4313
     33 HOB2       -0.2990    7.2525   -1.7384 H         1 ATP         0.4716
     34 H5'1       -1.7770    2.7851    2.1387 H         1 ATP         0.0452
     35 H5'2       -1.1653    2.0543    0.6320 H         1 ATP         0.0452
     36 H4'         0.0403    1.7078    3.4343 H         1 ATP         0.0998
     37 H3'         1.5906    1.4859    1.1353 H         1 ATP         0.0544
     38 HO3'        2.1521    0.9800    3.3017 H         1 ATP         0.3961
     39 H2'        -0.0017    0.0018    0.0005 H         1 ATP         0.0499
     40 HO2'        0.9369   -2.0558    0.0825 H         1 ATP         0.4045
     41 H1'        -0.1998   -1.6319    2.6178 H         1 ATP         0.0912
     42 H8         -0.9697   -3.6300    1.2371 H         1 ATP         0.1090
     43 HN62       -6.4060   -2.5723   -1.2840 H         1 ATP         0.3694
     44 H2         -4.8409    1.4176    0.1757 H         1 ATP         0.0371
     45 H45        -6.0768   -0.2826   -0.7263 H         1 ATP         0.4283
@<TRIPOS>BOND
     1    1    2 2
     2    1    3 1
     3    1    4 1
     4    1    8 1
     5    4   32 1
     6    5    6 2
     7    5    7 1
     8    5    8 1
     9    5   12 1
    10    7   33 1
    11    9   10 2
    12    9   11 1
    13    9   12 1
    14    9   13 1
    15   13   14 1
    16   14   15 1
    17   14   34 1
    18   14   35 1
    19   15   16 1
    20   15   17 1
    21   15   36 1
    22   16   21 1
    23   17   18 1
    24   17   19 1
    25   17   37 1
    26   18   38 1
    27   19   20 1
    28   19   21 1
    29   19   39 1
    30   20   40 1
    31   21   22 1
    32   21   41 1
    33   22   23 ar
    34   22   31 ar
    35   23   24 ar
    36   23   42 1
    37   24   25 ar
    38   25   26 ar
    39   25   31 ar
    40   26   27 2
    41   26   28 ar
    42   27   43 1
    43   28   29 ar
    44   28   45 1
    45   29   30 ar
    46   29   44 1
    47   30   31 ar
@<TRIPOS>SUBSTRUCTURE
     1 ATP         1 GROUP 0 A     ****
@<TRIPOS>MOLECULE
[[[3,4-dihydroxy-5-(6-imino-1~{H}-purin-9-yl)tetrahydrofuran-2-yl]methoxy-oxido-phosphoryl]oxy-hydroxy-phosphoryl] hydrogen phosphate
   45    47     1     0     0
SMALL
USER_CHARGES

@<TRIPOS>ATOM
      1 PG         -1.5187    3.6965   -4.5802 P.3       1 ATP         1.5496
      2 O1G        -0.6188    4.6148   -5.3768 O.co2     1 ATP        -0.8494
      3 O2G        -3.0183    3.7167   -4.7758 O.co2     1 ATP        -0.8494
      4 O3G        -0.9919    2.1626   -4.7693 O.3       1 ATP        -0.7845
      5 PB         -1.4126    5.1413   -2.0113 P.3       1 ATP         1.9068
      6 O1B        -0.6934    6.3966   -2.4083 O.2       1 ATP        -0.8942
      7 O2B        -3.0213    5.2729   -1.9199 O.3       1 ATP        -0.8166
      8 O3B        -1.1868    3.8776   -2.9936 O.3       1 ATP        -0.8194
      9 PA          0.4529    3.9703   -0.0492 P.3       1 ATP         1.5903
     10 O1A         1.4112    5.1385    0.0342 O.co2     1 ATP        -0.8519
     11 O2A         0.8147    2.7278   -0.8334 O.co2     1 ATP        -0.8519
     12 O3A        -0.9915    4.5116   -0.5846 O.3       1 ATP        -0.8093
     13 O5'         0.0180    3.5131    1.4595 O.3       1 ATP        -0.5649
     14 C5'        -0.8811    2.4285    1.6206 C.3       1 ATP         0.1979
     15 C4'        -0.1994    1.3333    2.4288 C.3       1 ATP         0.1179
     16 O4'        -1.1285    0.2356    2.5840 O.3       1 ATP        -0.3878
     17 C3'         1.0324    0.7610    1.7344 C.3       1 ATP         0.1185
     18 O3'         1.9175    0.2377    2.7247 O.3       1 ATP        -0.5544
     19 C2'         0.4468   -0.3802    0.9263 C.3       1 ATP         0.0542
     20 O2'         1.3993   -1.3703    0.5961 O.3       1 ATP        -0.5831
     21 C1'        -0.6159   -0.9100    1.8769 C.3       1 ATP         0.2222
     22 N9         -1.7127   -1.6108    1.2130 N.pl3     1 ATP        -0.1887
     23 C8         -1.7690   -2.9583    0.9549 C.ar      1 ATP         0.4447
     24 N7         -2.8827   -3.3076    0.3418 N.2       1 ATP        -0.6159
     25 C5         -3.5683   -2.1351    0.2017 C.ar      1 ATP         0.2195
     26 C6         -4.8617   -1.9185   -0.4044 C.ar      1 ATP         0.6144
     27 N6         -5.5166   -2.9094   -0.8994 N.2       1 ATP        -0.8160
     28 N1         -5.1836   -0.5701   -0.3344 N.pl3     1 ATP        -0.8611
     29 C2         -4.3821    0.4180    0.2330 C.ar      1 ATP         0.6141
     30 N3         -3.2117    0.2488    0.7860 N.2       1 ATP        -0.5913
     31 C4         -2.8672   -1.0657    0.7327 C.ar      1 ATP         0.0067
     32 HOG3       -1.4757    1.4430   -4.3107 H         1 ATP         0.4313
     33 HOB2       -3.4096    5.9183   -1.2916 H         1 ATP         0.4716
     34 H5'1       -1.7770    2.7851    2.1387 H         1 ATP         0.0452
     35 H5'2       -1.1653    2.0543    0.6320 H         1 ATP         0.0452
     36 H4'         0.0403    1.7078    3.4343 H         1 ATP         0.0998
     37 H3'         1.5906    1.4859    1.1353 H         1 ATP         0.0544
     38 HO3'        2.6839   -0.1150    2.2479 H         1 ATP         0.3961
     39 H2'        -0.0017    0.0018    0.0005 H         1 ATP         0.0499
     40 HO2'        2.0953   -0.9375    0.0709 H         1 ATP         0.4045
     41 H1'        -0.1998   -1.6319    2.6178 H         1 ATP         0.0912
     42 H8         -0.9697   -3.6300    1.2371 H         1 ATP         0.1090
     43 HN62       -6.4060   -2.5723   -1.2840 H         1 ATP         0.3694
     44 H2         -4.8409    1.4176    0.1757 H         1 ATP         0.0371
     45 H45        -6.0768   -0.2826   -0.7263 H         1 ATP         0.4283
@<TRIPOS>BOND
     1    1    2 2
     2    1    3 1
     3    1    4 1
     4    1    8 1
     5    4   32 1
     6    5    6 2
     7    5    7 1
     8    5    8 1
     9    5   12 1
    10    7   33 1
    11    9   10 2
    12    9   11 1
    13    9   12 1
    14    9   13 1
    15   13   14 1
    16   14   15 1
    17   14   34 1
    18   14   35 1
    19   15   16 1
    20   15   17 1
    21   15   36 1
    22   16   21 1
    23   17   18 1
    24   17   19 1
    25   17   37 1
    26   18   38 1
    27   19   20 1
    28   19   21 1
    29   19   39 1
    30   20   40 1
    31   21   22 1
    32   21   41 1
    33   22   23 ar
    34   22   31 ar
    35   23   24 ar
    36   23   42 1
    37   24   25 ar
    38   25   26 ar
    39   25   31 ar
    40   26   27 2
    41   26   28 ar
    42   27   43 1
    43   28   29 ar
    44   28   45 1
    45   29   30 ar
    46   29   44 1
    47   30   31 ar
@<TRIPOS>SUBSTRUCTURE
     1 ATP         1 GROUP 0 A     ****
@<TRIPOS>MOLECULE
[[[3,4-dihydroxy-5-(6-imino-1~{H}-purin-9-yl)tetrahydrofuran-2-yl]methoxy-oxido-phosphoryl]oxy-hydroxy-phosphoryl] hydrogen phosphate
   45    47     1     0     0
SMALL
USER_CHARGES

@<TRIPOS>ATOM
      1 PG         -3.7784    5.7387   -1.4282 P.3       1 ATP         1.5496
      2 O1G        -4.9491    6.5978   -1.0049 O.co2     1 ATP        -0.8494
      3 O2G        -3.7121    4.2754   -1.0514 O.co2     1 ATP        -0.8494
      4 O3G        -3.6005    5.8660   -3.0463 O.3       1 ATP        -0.7845
      5 PB         -1.7982    6.7583    0.5050 P.3       1 ATP         1.9068
      6 O1B        -0.4751    7.4647    0.5330 O.2       1 ATP        -0.8942
      7 O2B        -3.0023    7.5282    1.2607 O.3       1 ATP        -0.8166
      8 O3B        -2.3942    6.4692   -0.9695 O.3       1 ATP        -0.8194
      9 PA         -1.4708    4.7755    2.6642 P.3       1 ATP         1.5903
     10 O1A        -2.5000    5.3467    3.6152 O.co2     1 ATP        -0.8519
     11 O2A         0.0078    4.9862    2.9073 O.co2     1 ATP        -0.8519
     12 O3A        -1.8177    5.2772    1.1497 O.3       1 ATP        -0.8093
     13 O5'        -1.7337    3.1724    2.4752 O.3       1 ATP        -0.5649
     14 C5'        -0.8811    2.4285    1.6206 C.3       1 ATP         0.1979
     15 C4'        -0.1994    1.3333    2.4288 C.3       1 ATP         0.1179
     16 O4'        -1.1285    0.2356    2.5840 O.3       1 ATP        -0.3878
     17 C3'         1.0324    0.7610    1.7344 C.3       1 ATP         0.1185
     18 O3'         1.9175    0.2377    2.7247 O.3       1 ATP        -0.5544
     19 C2'         0.4468   -0.3802    0.9263 C.3       1 ATP         0.0542
     20 O2'         1.3993   -1.3703    0.5961 O.3       1 ATP        -0.5831
     21 C1'        -0.6159   -0.9100    1.8769 C.3       1 ATP         0.2222
     22 N9         -1.7127   -1.6108    1.2130 N.pl3     1 ATP        -0.1887
     23 C8         -2.8662   -1.0361    0.7388 C.ar      1 ATP         0.4447
     24 N7         -3.6774   -1.9166    0.1867 N.2       1 ATP        -0.6159
     25 C5         -3.0159   -3.1045    0.3123 C.ar      1 ATP         0.2195
     26 C6         -3.4377   -4.4169   -0.1199 C.ar      1 ATP         0.6144
     27 N6         -4.5720   -4.5691   -0.7080 N.2       1 ATP        -0.8160
     28 N1         -2.4600   -5.3463    0.2071 N.pl3     1 ATP        -0.8611
     29 C2         -1.2595   -5.0554    0.8515 C.ar      1 ATP         0.6141
     30 N3         -0.8555   -3.8803    1.2516 N.2       1 ATP        -0.5913
     31 C4         -1.7946   -2.9457    0.9448 C.ar      1 ATP         0.0067
     32 HOG3       -2.8769    5.3631   -3.4772 H         1 ATP         0.4313
     33 HOB2       -3.8925    7.1165    1.2770 H         1 ATP         0.4716
     34 H5'1       -1.4801    1.9928    0.8147 H         1 ATP         0.0452
     35 H5'2       -0.1369    3.1041    1.1872 H         1 ATP         0.0452
     36 H4'         0.0403    1.7078    3.4343 H         1 ATP         0.0998
     37 H3'         1.5906    1.4859    1.1353 H         1 ATP         0.0544
     38 HO3'        2.1521    0.9800    3.3017 H         1 ATP         0.3961
     39 H2'        -0.0017    0.0018    0.0005 H         1 ATP         0.0499
     40 HO2'        2.0953   -0.9375    0.0709 H         1 ATP         0.4045
     41 H1'        -0.1998   -1.6319    2.6178 H         1 ATP         0.0912
     42 H8         -3.0558    0.0252    0.8256 H         1 ATP         0.1090
     43 HN62       -4.7047   -5.5592   -0.9421 H         1 ATP         0.3694
     44 H2         -0.6372   -5.9505    1.0077 H         1 ATP         0.0371
     45 H45        -2.6338   -6.3155   -0.0469 H         1 ATP         0.4283
@<TRIPOS>BOND
     1    1    2 2
     2    1    3 1
     3    1    4 1
     4    1    8 1
     5    4   32 1
     6    5    6 2
     7    5    7 1
     8    5    8 1
     9    5   12 1
    10    7   33 1
    11    9   10 2
    12    9   11 1
    13    9   12 1
    14    9   13 1
    15   13   14 1
    16   14   15 1
    17   14   34 1
    18   14   35 1
    19   15   16 1
    20   15   17 1
    21   15   36 1
    22   16   21 1
    23   17   18 1
    24   17   19 1
    25   17   37 1
    26   18   38 1
    27   19   20 1
    28   19   21 1
    29   19   39 1
    30   20   40 1
    31   21   22 1
    32   21   41 1
    33   22   23 ar
    34   22   31 ar
    35   23   24 ar
    36   23   42 1
    37   24   25 ar
    38   25   26 ar
    39   25   31 ar
    40   26   27 2
    41   26   28 ar
    42   27   43 1
    43   28   29 ar
    44   28   45 1
    45   29   30 ar
    46   29   44 1
    47   30   31 ar
@<TRIPOS>SUBSTRUCTURE
     1 ATP         1 GROUP 0 A     ****
@<TRIPOS>MOLECULE
[[[3,4-dihydroxy-5-(6-imino-1~{H}-purin-9-yl)tetrahydrofuran-2-yl]methoxy-oxido-phosphoryl]oxy-hydroxy-phosphoryl] hydrogen phosphate
   45    47     1     0     0
SMALL
USER_CHARGES

@<TRIPOS>ATOM
      1 PG         -6.1296    5.7958    0.1573 P.3       1 ATP         1.5496
      2 O1G        -5.9880    6.6369   -1.0917 O.co2     1 ATP        -0.8494
      3 O2G        -7.0707    6.2062    1.2679 O.co2     1 ATP        -0.8494
      4 O3G        -6.4872    4.2656   -0.2862 O.3       1 ATP        -0.7845
      5 PB         -3.3087    4.9369    0.1038 P.3       1 ATP         1.9068
      6 O1B        -3.4338    3.5474   -0.4475 O.2       1 ATP        -0.8942
      7 O2B        -2.8948    6.0675   -0.9749 O.3       1 ATP        -0.8166
      8 O3B        -4.6483    5.5307    0.7863 O.3       1 ATP        -0.8194
      9 PA         -2.1560    4.4277    2.7709 P.3       1 ATP         1.5903
     10 O1A        -3.4707    4.6479    3.4869 O.co2     1 ATP        -0.8519
     11 O2A        -0.8473    4.8292    3.4158 O.co2     1 ATP        -0.8519
     12 O3A        -2.2360    5.1255    1.2968 O.3       1 ATP        -0.8093
     13 O5'        -2.0402    2.8619    2.3130 O.3       1 ATP        -0.5649
     14 C5'        -0.8811    2.4285    1.6206 C.3       1 ATP         0.1979
     15 C4'        -0.1994    1.3333    2.4288 C.3       1 ATP         0.1179
     16 O4'        -1.1285    0.2356    2.5840 O.3       1 ATP        -0.3878
     17 C3'         1.0324    0.7610    1.7344 C.3       1 ATP         0.1185
     18 O3'         1.9175    0.2377    2.7247 O.3       1 ATP        -0.5544
     19 C2'         0.4468   -0.3802    0.9263 C.3       1 ATP         0.0542
     20 O2'         1.3993   -1.3703    0.5961 O.3       1 ATP        -0.5831
     21 C1'        -0.6159   -0.9100    1.8769 C.3       1 ATP         0.2222
     22 N9         -1.7127   -1.6108    1.2130 N.pl3     1 ATP        -0.1887
     23 C8         -1.7690   -2.9583    0.9549 C.ar      1 ATP         0.4447
     24 N7         -2.8827   -3.3076    0.3418 N.2       1 ATP        -0.6159
     25 C5         -3.5683   -2.1351    0.2017 C.ar      1 ATP         0.2195
     26 C6         -4.8617   -1.9185   -0.4044 C.ar      1 ATP         0.6144
     27 N6         -5.5166   -2.9094   -0.8994 N.2       1 ATP        -0.8160
     28 N1         -5.1836   -0.5701   -0.3344 N.pl3     1 ATP        -0.8611
     29 C2         -4.3821    0.4180    0.2330 C.ar      1 ATP         0.6141
     30 N3         -3.2117    0.2488    0.7860 N.2       1 ATP        -0.5913
     31 C4         -2.8672   -1.0657    0.7327 C.ar      1 ATP         0.0067
     32 HOG3       -5.8496    3.7833   -0.8546 H         1 ATP         0.4313
     33 HOB2       -3.4798    6.2239   -1.7467 H         1 ATP         0.4716
     34 H5'1       -1.1769    2.0503    0.6369 H         1 ATP         0.0452
     35 H5'2       -0.2081    3.2815    1.4877 H         1 ATP         0.0452
     36 H4'         0.0403    1.7078    3.4343 H         1 ATP         0.0998
     37 H3'         1.5906    1.4859    1.1353 H         1 ATP         0.0544
     38 HO3'        2.1521    0.9800    3.3017 H         1 ATP         0.3961
     39 H2'        -0.0017    0.0018    0.0005 H         1 ATP         0.0499
     40 HO2'        0.9369   -2.0558    0.0825 H         1 ATP         0.4045
     41 H1'        -0.1998   -1.6319    2.6178 H         1 ATP         0.0912
     42 H8         -0.9697   -3.6300    1.2371 H         1 ATP         0.1090
     43 HN62       -6.4060   -2.5723   -1.2840 H         1 ATP         0.3694
     44 H2         -4.8409    1.4176    0.1757 H         1 ATP         0.0371
     45 H45        -6.0768   -0.2826   -0.7263 H         1 ATP         0.4283
@<TRIPOS>BOND
     1    1    2 2
     2    1    3 1
     3    1    4 1
     4    1    8 1
     5    4   32 1
     6    5    6 2
     7    5    7 1
     8    5    8 1
     9    5   12 1
    10    7   33 1
    11    9   10 2
    12    9   11 1
    13    9   12 1
    14    9   13 1
    15   13   14 1
    16   14   15 1
    17   14   34 1
    18   14   35 1
    19   15   16 1
    20   15   17 1
    21   15   36 1
    22   16   21 1
    23   17   18 1
    24   17   19 1
    25   17   37 1
    26   18   38 1
    27   19   20 1
    28   19   21 1
    29   19   39 1
    30   20   40 1
    31   21   22 1
    32   21   41 1
    33   22   23 ar
    34   22   31 ar
    35   23   24 ar
    36   23   42 1
    37   24   25 ar
    38   25   26 ar
    39   25   31 ar
    40   26   27 2
    41   26   28 ar
    42   27   43 1
    43   28   29 ar
    44   28   45 1
    45   29   30 ar
    46   29   44 1
    47   30   31 ar
@<TRIPOS>SUBSTRUCTURE
     1 ATP         1 GROUP 0 A     ****
@<TRIPOS>MOLECULE
[[[3,4-dihydroxy-5-(6-imino-1~{H}-purin-9-yl)tetrahydrofuran-2-yl]methoxy-oxido-phosphoryl]oxy-hydroxy-phosphoryl] hydrogen phosphate
   45    47     1     0     0
SMALL
USER_CHARGES

@<TRIPOS>ATOM
      1 PG          9.5880    5.4659   -2.5790 P.3       1 ATP         1.5496
      2 O1G         9.4769    5.6945   -4.0700 O.co2     1 ATP        -0.8494
      3 O2G        10.7837    4.7515   -1.9894 O.co2     1 ATP        -0.8494
      4 O3G         9.4159    6.9015   -1.8203 O.3       1 ATP        -0.7845
      5 PB          7.6342    3.2684   -2.3518 P.3       1 ATP         1.9068
      6 O1B         7.3535    2.9727   -3.7954 O.2       1 ATP        -0.8942
      7 O2B         8.6991    2.2791   -1.6440 O.3       1 ATP        -0.8166
      8 O3B         8.2239    4.7433   -2.0523 O.3       1 ATP        -0.8194
      9 PA          6.2485    3.4952    0.2423 P.3       1 ATP         1.5903
     10 O1A         6.5934    4.9413    0.5251 O.co2     1 ATP        -0.8519
     11 O2A         6.9725    2.3738    0.9551 O.co2     1 ATP        -0.8519
     12 O3A         6.3551    3.2334   -1.3658 O.3       1 ATP        -0.8093
     13 O5'         4.6405    3.2701    0.4379 O.3       1 ATP        -0.5649
     14 C5'         4.0922    1.9801    0.2227 C.3       1 ATP         0.1979
     15 C4'         2.5944    2.0310    0.4653 C.3       1 ATP         0.1179
     16 O4'         1.9327    2.5740   -0.6889 O.3       1 ATP        -0.3878
     17 C3'         1.9685    0.6634    0.6767 C.3       1 ATP         0.1185
     18 O3'         2.1425    0.1975    1.9977 O.3       1 ATP        -0.5544
     19 C2'         0.5176    0.9128    0.3099 C.3       1 ATP         0.0542
     20 O2'        -0.2103    1.4454    1.4152 O.3       1 ATP        -0.5831
     21 C1'         0.6219    1.9765   -0.7844 C.3       1 ATP         0.2222
     22 N9          0.4237    1.4496   -2.1357 N.pl3     1 ATP        -0.1887
     23 C8          1.4069    0.9710   -2.9662 C.ar      1 ATP         0.4447
     24 N7          0.9316    0.5623   -4.1260 N.2       1 ATP        -0.6159
     25 C5         -0.4120    0.7884   -4.0344 C.ar      1 ATP         0.2195
     26 C6         -1.4353    0.5283   -5.0204 C.ar      1 ATP         0.6144
     27 N6         -1.1199    0.0176   -6.1586 N.2       1 ATP        -0.8160
     28 N1         -2.6704    0.9095   -4.5147 N.pl3     1 ATP        -0.8611
     29 C2         -2.8863    1.4571   -3.2520 C.ar      1 ATP         0.6141
     30 N3         -1.9805    1.7017   -2.3442 N.2       1 ATP        -0.5913
     31 C4         -0.7561    1.3381   -2.8112 C.ar      1 ATP         0.0067
     32 HOG3        9.4639    6.9204   -0.8407 H         1 ATP         0.4313
     33 HOB2        9.6096    2.2255   -2.0051 H         1 ATP         0.4716
     34 H5'1        4.3029    1.6730   -0.8066 H         1 ATP         0.0452
     35 H5'2        4.5678    1.2739    0.9106 H         1 ATP         0.0452
     36 H4'         2.3751    2.7029    1.3156 H         1 ATP         0.0998
     37 H3'         2.4336   -0.1217   -0.0015 H         1 ATP         0.0544
     38 HO3'        1.7160   -0.6716    2.0397 H         1 ATP         0.3961
     39 H2'         0.0316    0.0155   -0.0339 H         1 ATP         0.0499
     40 HO2'       -0.1608    0.7921    2.1351 H         1 ATP         0.4045
     41 H1'        -0.1474    2.7798   -0.6651 H         1 ATP         0.0912
     42 H8          2.4466    0.9468   -2.6694 H         1 ATP         0.1090
     43 HN62       -1.9661   -0.0965   -6.7275 H         1 ATP         0.3694
     44 H2         -3.9481    1.6825   -3.0660 H         1 ATP         0.0371
     45 H45        -3.4814    0.7753   -5.1133 H         1 ATP         0.4283
@<TRIPOS>BOND
     1    1    2 2
     2    1    3 1
     3    1    4 1
     4    1    8 1
     5    4   32 1
     6    5    6 2
     7    5    7 1
     8    5    8 1
     9    5   12 1
    10    7   33 1
    11    9   10 2
    12    9   11 1
    13    9   12 1
    14    9   13 1
    15   13   14 1
    16   14   15 1
    17   14   34 1
    18   14   35 1
    19   15   16 1
    20   15   17 1
    21   15   36 1
    22   16   21 1
    23   17   18 1
    24   17   19 1
    25   17   37 1
    26   18   38 1
    27   19   20 1
    28   19   21 1
    29   19   39 1
    30   20   40 1
    31   21   22 1
    32   21   41 1
    33   22   23 ar
    34   22   31 ar
    35   23   24 ar
    36   23   42 1
    37   24   25 ar
    38   25   26 ar
    39   25   31 ar
    40   26   27 2
    41   26   28 ar
    42   27   43 1
    43   28   29 ar
    44   28   45 1
    45   29   30 ar
    46   29   44 1
    47   30   31 ar
@<TRIPOS>SUBSTRUCTURE
     1 ATP         1 GROUP 0 A     ****
@<TRIPOS>MOLECULE
[[[3,4-dihydroxy-5-(6-imino-1~{H}-purin-9-yl)tetrahydrofuran-2-yl]methoxy-oxido-phosphoryl]oxy-hydroxy-phosphoryl] hydrogen phosphate
   45    47     1     0     0
SMALL
USER_CHARGES

@<TRIPOS>ATOM
      1 PG          7.2368    3.6426    4.5175 P.3       1 ATP         1.5496
      2 O1G         5.7581    3.6529    4.1995 O.co2     1 ATP        -0.8494
      3 O2G         7.9607    4.9178    4.8882 O.co2     1 ATP        -0.8494
      4 O3G         7.5081    2.5342    5.6854 O.3       1 ATP        -0.7845
      5 PB          8.2497    3.3731    1.7608 P.3       1 ATP         1.9068
      6 O1B         8.9597    4.6818    1.5780 O.2       1 ATP        -0.8942
      7 O2B         8.9740    2.0993    1.0779 O.3       1 ATP        -0.8166
      8 O3B         8.0347    2.9141    3.2957 O.3       1 ATP        -0.8194
      9 PA          6.1592    3.5242   -0.3148 P.3       1 ATP         1.5903
     10 O1A         6.6758    2.4088   -1.1974 O.co2     1 ATP        -0.8519
     11 O2A         6.3637    4.9731   -0.7001 O.co2     1 ATP        -0.8519
     12 O3A         6.7372    3.3096    1.1971 O.3       1 ATP        -0.8093
     13 O5'         4.5669    3.2939   -0.0211 O.3       1 ATP        -0.5649
     14 C5'         4.0922    1.9801    0.2227 C.3       1 ATP         0.1979
     15 C4'         2.5944    2.0310    0.4653 C.3       1 ATP         0.1179
     16 O4'         1.9327    2.5740   -0.6889 O.3       1 ATP        -0.3878
     17 C3'         1.9685    0.6634    0.6767 C.3       1 ATP         0.1185
     18 O3'         2.1425    0.1975    1.9977 O.3       1 ATP        -0.5544
     19 C2'         0.5176    0.9128    0.3099 C.3       1 ATP         0.0542
     20 O2'        -0.2103    1.4454    1.4152 O.3       1 ATP        -0.5831
     21 C1'         0.6219    1.9765   -0.7844 C.3       1 ATP         0.2222
     22 N9          0.4237    1.4496   -2.1357 N.pl3     1 ATP        -0.1887
     23 C8         -0.7779    1.3483   -2.7928 C.ar      1 ATP         0.4447
     24 N7         -0.6499    0.8341   -4.0000 N.2       1 ATP        -0.6159
     25 C5          0.6893    0.5965   -4.1212 C.ar      1 ATP         0.2195
     26 C6          1.4031    0.0342   -5.2443 C.ar      1 ATP         0.6144
     27 N6          0.7649   -0.3130   -6.3063 N.2       1 ATP        -0.8160
     28 N1          2.7566   -0.0326   -4.9437 N.pl3     1 ATP        -0.8611
     29 C2          3.3337    0.3796   -3.7446 C.ar      1 ATP         0.6141
     30 N3          2.7120    0.8899   -2.7163 N.2       1 ATP        -0.5913
     31 C4          1.3803    0.9684   -2.9805 C.ar      1 ATP         0.0067
     32 HOG3        8.4271    2.4073    6.0039 H         1 ATP         0.4313
     33 HOB2        9.1196    2.0999    0.1078 H         1 ATP         0.4716
     34 H5'1        4.3180    1.3550   -0.6470 H         1 ATP         0.0452
     35 H5'2        4.6084    1.5739    1.0983 H         1 ATP         0.0452
     36 H4'         2.3751    2.7029    1.3156 H         1 ATP         0.0998
     37 H3'         2.4336   -0.1217   -0.0015 H         1 ATP         0.0544
     38 HO3'        1.7160   -0.6716    2.0397 H         1 ATP         0.3961
     39 H2'         0.0316    0.0155   -0.0339 H         1 ATP         0.0499
     40 HO2'       -0.1608    0.7921    2.1351 H         1 ATP         0.4045
     41 H1'        -0.1474    2.7798   -0.6651 H         1 ATP         0.0912
     42 H8         -1.7076    1.6648   -2.3398 H         1 ATP         0.1090
     43 HN62        1.4266   -0.6890   -6.9943 H         1 ATP         0.3694
     44 H2          4.4251    0.2326   -3.7294 H         1 ATP         0.0371
     45 H45         3.3750   -0.4100   -5.6572 H         1 ATP         0.4283
@<TRIPOS>BOND
     1    1    2 2
     2    1    3 1
     3    1    4 1
     4    1    8 1
     5    4   32 1
     6    5    6 2
     7    5    7 1
     8    5    8 1
     9    5   12 1
    10    7   33 1
    11    9   10 2
    12    9   11 1
    13    9   12 1
    14    9   13 1
    15   13   14 1
    16   14   15 1
    17   14   34 1
    18   14   35 1
    19   15   16 1
    20   15   17 1
    21   15   36 1
    22   16   21 1
    23   17   18 1
    24   17   19 1
    25   17   37 1
    26   18   38 1
    27   19   20 1
    28   19   21 1
    29   19   39 1
    30   20   40 1
    31   21   22 1
    32   21   41 1
    33   22   23 ar
    34   22   31 ar
    35   23   24 ar
    36   23   42 1
    37   24   25 ar
    38   25   26 ar
    39   25   31 ar
    40   26   27 2
    41   26   28 ar
    42   27   43 1
    43   28   29 ar
    44   28   45 1
    45   29   30 ar
    46   29   44 1
    47   30   31 ar
@<TRIPOS>SUBSTRUCTURE
     1 ATP         1 GROUP 0 A     ****
@<TRIPOS>MOLECULE
[[[3,4-dihydroxy-5-(6-imino-1~{H}-purin-9-yl)tetrahydrofuran-2-yl]methoxy-oxido-phosphoryl]oxy-hydroxy-phosphoryl] hydrogen phosphate
   45    47     1     0     0
SMALL
USER_CHARGES

@<TRIPOS>ATOM
      1 PG         -2.6813    5.5162   -2.1992 P.3       1 ATP         1.5496
      2 O1G        -3.1214    4.0729   -2.3035 O.co2     1 ATP        -0.8494
      3 O2G        -1.2339    5.9039   -2.4044 O.co2     1 ATP        -0.8494
      4 O3G        -3.6056    6.4137   -3.2024 O.3       1 ATP        -0.7845
      5 PB         -2.7678    5.7626    0.7385 P.3       1 ATP         1.9068
      6 O1B        -1.3179    5.9752    1.0595 O.2       1 ATP        -0.8942
      7 O2B        -3.8021    6.6132    1.6441 O.3       1 ATP        -0.8166
      8 O3B        -3.1984    6.1246   -0.7769 O.3       1 ATP        -0.8194
      9 PA         -3.3346    3.2336    2.1469 P.3       1 ATP         1.5903
     10 O1A        -3.8072    1.8724    1.6847 O.co2     1 ATP        -0.8519
     11 O2A        -4.0245    3.9444    3.2909 O.co2     1 ATP        -0.8519
     12 O3A        -3.2996    4.2424    0.8635 O.3       1 ATP        -0.8093
     13 O5'        -1.7337    3.1724    2.4752 O.3       1 ATP        -0.5649
     14 C5'        -0.8811    2.4285    1.6206 C.3       1 ATP         0.1979
     15 C4'        -0.1994    1.3333    2.4288 C.3       1 ATP         0.1179
     16 O4'        -1.1285    0.2356    2.5840 O.3       1 ATP        -0.3878
     17 C3'         1.0324    0.7610    1.7344 C.3       1 ATP         0.1185
     18 O3'         1.9175    0.2377    2.7247 O.3       1 ATP        -0.5544
     19 C2'         0.4468   -0.3802    0.9263 C.3       1 ATP         0.0542
     20 O2'         1.3993   -1.3703    0.5961 O.3       1 ATP        -0.5831
     21 C1'        -0.6159   -0.9100    1.8769 C.3       1 ATP         0.2222
     22 N9         -1.7127   -1.6108    1.2130 N.pl3     1 ATP        -0.1887
     23 C8         -2.5485   -1.0808    0.2609 C.ar      1 ATP         0.4447
     24 N7         -3.4476   -1.9486   -0.1593 N.2       1 ATP        -0.6159
     25 C5         -3.1762   -3.0816    0.5530 C.ar      1 ATP         0.2195
     26 C6         -3.8510   -4.3579    0.5006 C.ar      1 ATP         0.6144
     27 N6         -4.8468   -4.5293   -0.2961 N.2       1 ATP        -0.8160
     28 N1         -3.2499   -5.2342    1.3937 N.pl3     1 ATP        -0.8611
     29 C2         -2.1646   -4.9275    2.2116 C.ar      1 ATP         0.6141
     30 N3         -1.5382   -3.7840    2.2778 N.2       1 ATP        -0.5913
     31 C4         -2.1054   -2.9018    1.4120 C.ar      1 ATP         0.0067
     32 HOG3       -4.5757    6.4256   -3.0576 H         1 ATP         0.4313
     33 HOB2       -3.8034    6.4788    2.6158 H         1 ATP         0.4716
     34 H5'1       -1.4801    1.9928    0.8147 H         1 ATP         0.0452
     35 H5'2       -0.1369    3.1041    1.1872 H         1 ATP         0.0452
     36 H4'         0.0403    1.7078    3.4343 H         1 ATP         0.0998
     37 H3'         1.5906    1.4859    1.1353 H         1 ATP         0.0544
     38 HO3'        2.1521    0.9800    3.3017 H         1 ATP         0.3961
     39 H2'        -0.0017    0.0018    0.0005 H         1 ATP         0.0499
     40 HO2'        1.7495   -1.7243    1.4324 H         1 ATP         0.4045
     41 H1'        -0.1998   -1.6319    2.6178 H         1 ATP         0.0912
     42 H8         -2.4515   -0.0599   -0.0829 H         1 ATP         0.1090
     43 HN62       -5.1990   -5.4882   -0.2004 H         1 ATP         0.3694
     44 H2         -1.8555   -5.7783    2.8388 H         1 ATP         0.0371
     45 H45        -3.6312   -6.1750    1.4526 H         1 ATP         0.4283
@<TRIPOS>BOND
     1    1    2 2
     2    1    3 1
     3    1    4 1
     4    1    8 1
     5    4   32 1
     6    5    6 2
     7    5    7 1
     8    5    8 1
     9    5   12 1
    10    7   33 1
    11    9   10 2
    12    9   11 1
    13    9   12 1
    14    9   13 1
    15   13   14 1
    16   14   15 1
    17   14   34 1
    18   14   35 1
    19   15   16 1
    20   15   17 1
    21   15   36 1
    22   16   21 1
    23   17   18 1
    24   17   19 1
    25   17   37 1
    26   18   38 1
    27   19   20 1
    28   19   21 1
    29   19   39 1
    30   20   40 1
    31   21   22 1
    32   21   41 1
    33   22   23 ar
    34   22   31 ar
    35   23   24 ar
    36   23   42 1
    37   24   25 ar
    38   25   26 ar
    39   25   31 ar
    40   26   27 2
    41   26   28 ar
    42   27   43 1
    43   28   29 ar
    44   28   45 1
    45   29   30 ar
    46   29   44 1
    47   30   31 ar
@<TRIPOS>SUBSTRUCTURE
     1 ATP         1 GROUP 0 A     ****
@<TRIPOS>MOLECULE
[[[3,4-dihydroxy-5-(6-imino-1~{H}-purin-9-yl)tetrahydrofuran-2-yl]methoxy-oxido-phosphoryl]oxy-hydroxy-phosphoryl] hydrogen phosphate
   45    47     1     0     0
SMALL
USER_CHARGES

@<TRIPOS>ATOM
      1 PG         -1.3635    7.9637    1.1456 P.3       1 ATP         1.5496
      2 O1G        -0.3804    8.8928    0.4688 O.co2     1 ATP        -0.8494
      3 O2G        -0.9212    7.0440    2.2619 O.co2     1 ATP        -0.8494
      4 O3G        -2.6319    8.8464    1.6730 O.3       1 ATP        -0.7845
      5 PB         -3.3718    6.0572    0.1309 P.3       1 ATP         1.9068
      6 O1B        -4.6398    6.6478    0.6731 O.2       1 ATP        -0.8942
      7 O2B        -3.4914    5.4188   -1.3495 O.3       1 ATP        -0.8166
      8 O3B        -2.1310    7.0855    0.0055 O.3       1 ATP        -0.8194
      9 PA         -3.3161    3.4232    1.4577 P.3       1 ATP         1.5903
     10 O1A        -3.5062    2.5741    0.2197 O.co2     1 ATP        -0.8519
     11 O2A        -4.4618    3.6582    2.4178 O.co2     1 ATP        -0.8519
     12 O3A        -2.7142    4.8745    1.0132 O.3       1 ATP        -0.8093
     13 O5'        -2.0402    2.8619    2.3130 O.3       1 ATP        -0.5649
     14 C5'        -0.8811    2.4285    1.6206 C.3       1 ATP         0.1979
     15 C4'        -0.1994    1.3333    2.4288 C.3       1 ATP         0.1179
     16 O4'        -1.1285    0.2356    2.5840 O.3       1 ATP        -0.3878
     17 C3'         1.0324    0.7610    1.7344 C.3       1 ATP         0.1185
     18 O3'         1.9175    0.2377    2.7247 O.3       1 ATP        -0.5544
     19 C2'         0.4468   -0.3802    0.9263 C.3       1 ATP         0.0542
     20 O2'         1.3993   -1.3703    0.5961 O.3       1 ATP        -0.5831
     21 C1'        -0.6159   -0.9100    1.8769 C.3       1 ATP         0.2222
     22 N9         -1.7127   -1.6108    1.2130 N.pl3     1 ATP        -0.1887
     23 C8         -1.5982   -2.7455    0.4481 C.ar      1 ATP         0.4447
     24 N7         -2.7593   -3.1533   -0.0249 N.2       1 ATP        -0.6159
     25 C5         -3.6547   -2.2420    0.4573 C.ar      1 ATP         0.2195
     26 C6         -5.0842   -2.1942    0.2543 C.ar      1 ATP         0.6144
     27 N6         -5.6648   -3.0919   -0.4618 N.2       1 ATP        -0.8160
     28 N1         -5.6087   -1.0978    0.9248 N.pl3     1 ATP        -0.8611
     29 C2         -4.8689   -0.1873    1.6760 C.ar      1 ATP         0.6141
     30 N3         -3.5787   -0.2081    1.8745 N.2       1 ATP        -0.5913
     31 C4         -3.0344   -1.2737    1.2284 C.ar      1 ATP         0.0067
     32 HOG3       -3.3615    8.3838    2.1376 H         1 ATP         0.4313
     33 HOB2       -4.1208    4.6813   -1.4988 H         1 ATP         0.4716
     34 H5'1       -1.1769    2.0503    0.6369 H         1 ATP         0.0452
     35 H5'2       -0.2081    3.2815    1.4877 H         1 ATP         0.0452
     36 H4'         0.0403    1.7078    3.4343 H         1 ATP         0.0998
     37 H3'         1.5906    1.4859    1.1353 H         1 ATP         0.0544
     38 HO3'        2.1521    0.9800    3.3017 H         1 ATP         0.3961
     39 H2'        -0.0017    0.0018    0.0005 H         1 ATP         0.0499
     40 HO2'        2.0953   -0.9375    0.0709 H         1 ATP         0.4045
     41 H1'        -0.1998   -1.6319    2.6178 H         1 ATP         0.0912
     42 H8         -0.6448   -3.2254    0.2735 H         1 ATP         0.1090
     43 HN62       -6.6723   -2.9015   -0.4966 H         1 ATP         0.3694
     44 H2         -5.4961    0.6026    2.1182 H         1 ATP         0.0371
     45 H45        -6.6130   -0.9504    0.8642 H         1 ATP         0.4283
@<TRIPOS>BOND
     1    1    2 2
     2    1    3 1
     3    1    4 1
     4    1    8 1
     5    4   32 1
     6    5    6 2
     7    5    7 1
     8    5    8 1
     9    5   12 1
    10    7   33 1
    11    9   10 2
    12    9   11 1
    13    9   12 1
    14    9   13 1
    15   13   14 1
    16   14   15 1
    17   14   34 1
    18   14   35 1
    19   15   16 1
    20   15   17 1
    21   15   36 1
    22   16   21 1
    23   17   18 1
    24   17   19 1
    25   17   37 1
    26   18   38 1
    27   19   20 1
    28   19   21 1
    29   19   39 1
    30   20   40 1
    31   21   22 1
    32   21   41 1
    33   22   23 ar
    34   22   31 ar
    35   23   24 ar
    36   23   42 1
    37   24   25 ar
    38   25   26 ar
    39   25   31 ar
    40   26   27 2
    41   26   28 ar
    42   27   43 1
    43   28   29 ar
    44   28   45 1
    45   29   30 ar
    46   29   44 1
    47   30   31 ar
@<TRIPOS>SUBSTRUCTURE
     1 ATP         1 GROUP 0 A     ****
@<TRIPOS>MOLECULE
[[[3,4-dihydroxy-5-(6-imino-1~{H}-purin-9-yl)tetrahydrofuran-2-yl]methoxy-oxido-phosphoryl]oxy-hydroxy-phosphoryl] hydrogen phosphate
   45    47     1     0     0
SMALL
USER_CHARGES

@<TRIPOS>ATOM
      1 PG         -6.5895    3.2057   -1.3745 P.3       1 ATP         1.5496
      2 O1G        -6.3835    3.7085   -2.7860 O.co2     1 ATP        -0.8494
      3 O2G        -7.7695    3.6685   -0.5493 O.co2     1 ATP        -0.8494
      4 O3G        -6.5831    1.5731   -1.3998 O.3       1 ATP        -0.7845
      5 PB         -4.4996    4.8142   -0.0544 P.3       1 ATP         1.9068
      6 O1B        -4.0893    5.7343   -1.1658 O.2       1 ATP        -0.8942
      7 O2B        -5.5379    5.4469    1.0111 O.3       1 ATP        -0.8166
      8 O3B        -5.2189    3.4447   -0.5234 O.3       1 ATP        -0.8194
      9 PA         -3.3346    3.2336    2.1469 P.3       1 ATP         1.5903
     10 O1A        -3.8072    1.8724    1.6847 O.co2     1 ATP        -0.8519
     11 O2A        -4.0245    3.9444    3.2909 O.co2     1 ATP        -0.8519
     12 O3A        -3.2996    4.2424    0.8635 O.3       1 ATP        -0.8093
     13 O5'        -1.7337    3.1724    2.4752 O.3       1 ATP        -0.5649
     14 C5'        -0.8811    2.4285    1.6206 C.3       1 ATP         0.1979
     15 C4'        -0.1994    1.3333    2.4288 C.3       1 ATP         0.1179
     16 O4'        -1.1285    0.2356    2.5840 O.3       1 ATP        -0.3878
     17 C3'         1.0324    0.7610    1.7344 C.3       1 ATP         0.1185
     18 O3'         1.9175    0.2377    2.7247 O.3       1 ATP        -0.5544
     19 C2'         0.4468   -0.3802    0.9263 C.3       1 ATP         0.0542
     20 O2'         1.3993   -1.3703    0.5961 O.3       1 ATP        -0.5831
     21 C1'        -0.6159   -0.9100    1.8769 C.3       1 ATP         0.2222
     22 N9         -1.7127   -1.6108    1.2130 N.pl3     1 ATP        -0.1887
     23 C8         -2.0868   -2.9137    1.4327 C.ar      1 ATP         0.4447
     24 N7         -3.1125   -3.2756    0.6878 N.2       1 ATP        -0.6159
     25 C5         -3.4079   -2.1580   -0.0391 C.ar      1 ATP         0.2195
     26 C6         -4.4483   -1.9775   -1.0249 C.ar      1 ATP         0.6144
     27 N6         -5.2418   -2.9492   -1.3113 N.2       1 ATP        -0.8160
     28 N1         -4.3937   -0.6823   -1.5211 N.pl3     1 ATP        -0.8611
     29 C2         -3.4770    0.2901   -1.1271 C.ar      1 ATP         0.6141
     30 N3         -2.5289    0.1525   -0.2403 N.2       1 ATP        -0.5913
     31 C4         -2.5564   -1.1096    0.2655 C.ar      1 ATP         0.0067
     32 HOG3       -6.7063    1.0927   -0.5535 H         1 ATP         0.4313
     33 HOB2       -6.4119    5.7593    0.6938 H         1 ATP         0.4716
     34 H5'1       -1.4801    1.9928    0.8147 H         1 ATP         0.0452
     35 H5'2       -0.1369    3.1041    1.1872 H         1 ATP         0.0452
     36 H4'         0.0403    1.7078    3.4343 H         1 ATP         0.0998
     37 H3'         1.5906    1.4859    1.1353 H         1 ATP         0.0544
     38 HO3'        2.6839   -0.1150    2.2479 H         1 ATP         0.3961
     39 H2'        -0.0017    0.0018    0.0005 H         1 ATP         0.0499
     40 HO2'        2.0953   -0.9375    0.0709 H         1 ATP         0.4045
     41 H1'        -0.1998   -1.6319    2.6178 H         1 ATP         0.0912
     42 H8         -1.5740   -3.5449    2.1457 H         1 ATP         0.1090
     43 HN62       -5.9117   -2.6433   -2.0256 H         1 ATP         0.3694
     44 H2         -3.6225    1.2454   -1.6553 H         1 ATP         0.0371
     45 H45        -5.0794   -0.4231   -2.2258 H         1 ATP         0.4283
@<TRIPOS>BOND
     1    1    2 2
     2    1    3 1
     3    1    4 1
     4    1    8 1
     5    4   32 1
     6    5    6 2
     7    5    7 1
     8    5    8 1
     9    5   12 1
    10    7   33 1
    11    9   10 2
    12    9   11 1
    13    9   12 1
    14    9   13 1
    15   13   14 1
    16   14   15 1
    17   14   34 1
    18   14   35 1
    19   15   16 1
    20   15   17 1
    21   15   36 1
    22   16   21 1
    23   17   18 1
    24   17   19 1
    25   17   37 1
    26   18   38 1
    27   19   20 1
    28   19   21 1
    29   19   39 1
    30   20   40 1
    31   21   22 1
    32   21   41 1
    33   22   23 ar
    34   22   31 ar
    35   23   24 ar
    36   23   42 1
    37   24   25 ar
    38   25   26 ar
    39   25   31 ar
    40   26   27 2
    41   26   28 ar
    42   27   43 1
    43   28   29 ar
    44   28   45 1
    45   29   30 ar
    46   29   44 1
    47   30   31 ar
@<TRIPOS>SUBSTRUCTURE
     1 ATP         1 GROUP 0 A     ****
@<TRIPOS>MOLECULE
[[[3,4-dihydroxy-5-(6-imino-1~{H}-purin-9-yl)tetrahydrofuran-2-yl]methoxy-oxido-phosphoryl]oxy-hydroxy-phosphoryl] hydrogen phosphate
   45    47     1     0     0
SMALL
USER_CHARGES

@<TRIPOS>ATOM
      1 PG          8.7460    0.2076    1.7087 P.3       1 ATP         1.5496
      2 O1G         9.1549   -1.2478    1.7554 O.co2     1 ATP        -0.8494
      3 O2G         7.4974    0.6869    2.4151 O.co2     1 ATP        -0.8494
      4 O3G        10.0065    1.1164    2.2102 O.3       1 ATP        -0.7845
      5 PB          8.4704    2.1617   -0.4829 P.3       1 ATP         1.9068
      6 O1B         9.4877    3.1916   -0.0897 O.2       1 ATP        -0.8942
      7 O2B         8.3593    1.8796   -2.0709 O.3       1 ATP        -0.8166
      8 O3B         8.6958    0.6926    0.1523 O.3       1 ATP        -0.8194
      9 PA          5.9683    3.7220   -0.4031 P.3       1 ATP         1.5903
     10 O1A         5.6640    3.6838   -1.8850 O.co2     1 ATP        -0.8519
     11 O2A         6.5315    4.9712    0.2389 O.co2     1 ATP        -0.8519
     12 O3A         6.9493    2.4698   -0.0348 O.3       1 ATP        -0.8093
     13 O5'         4.6405    3.2701    0.4379 O.3       1 ATP        -0.5649
     14 C5'         4.0922    1.9801    0.2227 C.3       1 ATP         0.1979
     15 C4'         2.5944    2.0310    0.4653 C.3       1 ATP         0.1179
     16 O4'         1.9327    2.5740   -0.6889 O.3       1 ATP        -0.3878
     17 C3'         1.9685    0.6634    0.6767 C.3       1 ATP         0.1185
     18 O3'         2.1425    0.1975    1.9977 O.3       1 ATP        -0.5544
     19 C2'         0.5176    0.9128    0.3099 C.3       1 ATP         0.0542
     20 O2'        -0.2103    1.4454    1.4152 O.3       1 ATP        -0.5831
     21 C1'         0.6219    1.9765   -0.7844 C.3       1 ATP         0.2222
     22 N9          0.4237    1.4496   -2.1357 N.pl3     1 ATP        -0.1887
     23 C8          1.4069    0.9710   -2.9662 C.ar      1 ATP         0.4447
     24 N7          0.9316    0.5623   -4.1260 N.2       1 ATP        -0.6159
     25 C5         -0.4120    0.7884   -4.0344 C.ar      1 ATP         0.2195
     26 C6         -1.4353    0.5283   -5.0204 C.ar      1 ATP         0.6144
     27 N6         -1.1199    0.0176   -6.1586 N.2       1 ATP        -0.8160
     28 N1         -2.6704    0.9095   -4.5147 N.pl3     1 ATP        -0.8611
     29 C2         -2.8863    1.4571   -3.2520 C.ar      1 ATP         0.6141
     30 N3         -1.9805    1.7017   -2.3442 N.2       1 ATP        -0.5913
     31 C4         -0.7561    1.3381   -2.8112 C.ar      1 ATP         0.0067
     32 HOG3        9.8979    2.0909    2.2368 H         1 ATP         0.4313
     33 HOB2        8.1183    2.6191   -2.6686 H         1 ATP         0.4716
     34 H5'1        4.3029    1.6730   -0.8066 H         1 ATP         0.0452
     35 H5'2        4.5678    1.2739    0.9106 H         1 ATP         0.0452
     36 H4'         2.3751    2.7029    1.3156 H         1 ATP         0.0998
     37 H3'         2.4336   -0.1217   -0.0015 H         1 ATP         0.0544
     38 HO3'        1.7160   -0.6716    2.0397 H         1 ATP         0.3961
     39 H2'         0.0316    0.0155   -0.0339 H         1 ATP         0.0499
     40 HO2'       -0.1608    0.7921    2.1351 H         1 ATP         0.4045
     41 H1'        -0.1474    2.7798   -0.6651 H         1 ATP         0.0912
     42 H8          2.4466    0.9468   -2.6694 H         1 ATP         0.1090
     43 HN62       -1.9661   -0.0965   -6.7275 H         1 ATP         0.3694
     44 H2         -3.9481    1.6825   -3.0660 H         1 ATP         0.0371
     45 H45        -3.4814    0.7753   -5.1133 H         1 ATP         0.4283
@<TRIPOS>BOND
     1    1    2 2
     2    1    3 1
     3    1    4 1
     4    1    8 1
     5    4   32 1
     6    5    6 2
     7    5    7 1
     8    5    8 1
     9    5   12 1
    10    7   33 1
    11    9   10 2
    12    9   11 1
    13    9   12 1
    14    9   13 1
    15   13   14 1
    16   14   15 1
    17   14   34 1
    18   14   35 1
    19   15   16 1
    20   15   17 1
    21   15   36 1
    22   16   21 1
    23   17   18 1
    24   17   19 1
    25   17   37 1
    26   18   38 1
    27   19   20 1
    28   19   21 1
    29   19   39 1
    30   20   40 1
    31   21   22 1
    32   21   41 1
    33   22   23 ar
    34   22   31 ar
    35   23   24 ar
    36   23   42 1
    37   24   25 ar
    38   25   26 ar
    39   25   31 ar
    40   26   27 2
    41   26   28 ar
    42   27   43 1
    43   28   29 ar
    44   28   45 1
    45   29   30 ar
    46   29   44 1
    47   30   31 ar
@<TRIPOS>SUBSTRUCTURE
     1 ATP         1 GROUP 0 A     ****
@<TRIPOS>MOLECULE
[[[3,4-dihydroxy-5-(6-imino-1~{H}-purin-9-yl)tetrahydrofuran-2-yl]methoxy-oxido-phosphoryl]oxy-hydroxy-phosphoryl] hydrogen phosphate
   45    47     1     0     0
SMALL
USER_CHARGES

@<TRIPOS>ATOM
      1 PG          1.0024    8.1016   -2.3591 P.3       1 ATP         1.5496
      2 O1G        -0.2248    8.9133   -2.7093 O.co2     1 ATP        -0.8494
      3 O2G         1.9437    7.6121   -3.4370 O.co2     1 ATP        -0.8494
      4 O3G         1.8699    8.9265   -1.2487 O.3       1 ATP        -0.7845
      5 PB         -0.3456    5.5416   -1.7871 P.3       1 ATP         1.9068
      6 O1B        -1.7451    5.8376   -2.2388 O.2       1 ATP        -0.8942
      7 O2B         0.5601    4.7278   -2.8506 O.3       1 ATP        -0.8166
      8 O3B         0.5526    6.8376   -1.4317 O.3       1 ATP        -0.8194
      9 PA         -0.7384    5.0053    1.0868 P.3       1 ATP         1.5903
     10 O1A        -2.2516    5.0190    1.0856 O.co2     1 ATP        -0.8519
     11 O2A         0.0453    6.1849    1.6198 O.co2     1 ATP        -0.8519
     12 O3A        -0.2137    4.6826   -0.4254 O.3       1 ATP        -0.8093
     13 O5'        -0.2061    3.6558    1.8418 O.3       1 ATP        -0.5649
     14 C5'        -0.8811    2.4285    1.6206 C.3       1 ATP         0.1979
     15 C4'        -0.1994    1.3333    2.4288 C.3       1 ATP         0.1179
     16 O4'        -1.1285    0.2356    2.5840 O.3       1 ATP        -0.3878
     17 C3'         1.0324    0.7610    1.7344 C.3       1 ATP         0.1185
     18 O3'         1.9175    0.2377    2.7247 O.3       1 ATP        -0.5544
     19 C2'         0.4468   -0.3802    0.9263 C.3       1 ATP         0.0542
     20 O2'         1.3993   -1.3703    0.5961 O.3       1 ATP        -0.5831
     21 C1'        -0.6159   -0.9100    1.8769 C.3       1 ATP         0.2222
     22 N9         -1.7127   -1.6108    1.2130 N.pl3     1 ATP        -0.1887
     23 C8         -2.5485   -1.0808    0.2609 C.ar      1 ATP         0.4447
     24 N7         -3.4476   -1.9486   -0.1593 N.2       1 ATP        -0.6159
     25 C5         -3.1762   -3.0816    0.5530 C.ar      1 ATP         0.2195
     26 C6         -3.8510   -4.3579    0.5006 C.ar      1 ATP         0.6144
     27 N6         -4.8468   -4.5293   -0.2961 N.2       1 ATP        -0.8160
     28 N1         -3.2499   -5.2342    1.3937 N.pl3     1 ATP        -0.8611
     29 C2         -2.1646   -4.9275    2.2116 C.ar      1 ATP         0.6141
     30 N3         -1.5382   -3.7840    2.2778 N.2       1 ATP        -0.5913
     31 C4         -2.1054   -2.9018    1.4120 C.ar      1 ATP         0.0067
     32 HOG3        1.4458    9.1416   -0.3908 H         1 ATP         0.4313
     33 HOB2        0.2653    3.8390   -3.1429 H         1 ATP         0.4716
     34 H5'1       -1.9255    2.5382    1.9293 H         1 ATP         0.0452
     35 H5'2       -0.8473    2.1932    0.5521 H         1 ATP         0.0452
     36 H4'         0.0403    1.7078    3.4343 H         1 ATP         0.0998
     37 H3'         1.5906    1.4859    1.1353 H         1 ATP         0.0544
     38 HO3'        2.6839   -0.1150    2.2479 H         1 ATP         0.3961
     39 H2'        -0.0017    0.0018    0.0005 H         1 ATP         0.0499
     40 HO2'        2.0953   -0.9375    0.0709 H         1 ATP         0.4045
     41 H1'        -0.1998   -1.6319    2.6178 H         1 ATP         0.0912
     42 H8         -2.4515   -0.0599   -0.0829 H         1 ATP         0.1090
     43 HN62       -5.1990   -5.4882   -0.2004 H         1 ATP         0.3694
     44 H2         -1.8555   -5.7783    2.8388 H         1 ATP         0.0371
     45 H45        -3.6312   -6.1750    1.4526 H         1 ATP         0.4283
@<TRIPOS>BOND
     1    1    2 2
     2    1    3 1
     3    1    4 1
     4    1    8 1
     5    4   32 1
     6    5    6 2
     7    5    7 1
     8    5    8 1
     9    5   12 1
    10    7   33 1
    11    9   10 2
    12    9   11 1
    13    9   12 1
    14    9   13 1
    15   13   14 1
    16   14   15 1
    17   14   34 1
    18   14   35 1
    19   15   16 1
    20   15   17 1
    21   15   36 1
    22   16   21 1
    23   17   18 1
    24   17   19 1
    25   17   37 1
    26   18   38 1
    27   19   20 1
    28   19   21 1
    29   19   39 1
    30   20   40 1
    31   21   22 1
    32   21   41 1
    33   22   23 ar
    34   22   31 ar
    35   23   24 ar
    36   23   42 1
    37   24   25 ar
    38   25   26 ar
    39   25   31 ar
    40   26   27 2
    41   26   28 ar
    42   27   43 1
    43   28   29 ar
    44   28   45 1
    45   29   30 ar
    46   29   44 1
    47   30   31 ar
@<TRIPOS>SUBSTRUCTURE
     1 ATP         1 GROUP 0 A     ****
@<TRIPOS>MOLECULE
[[[3,4-dihydroxy-5-(6-imino-1~{H}-purin-9-yl)tetrahydrofuran-2-yl]methoxy-oxido-phosphoryl]oxy-hydroxy-phosphoryl] hydrogen phosphate
   45    47     1     0     0
SMALL
USER_CHARGES

@<TRIPOS>ATOM
      1 PG         -2.6715    7.1748    5.6737 P.3       1 ATP         1.5496
      2 O1G        -4.1523    7.4535    5.5425 O.co2     1 ATP        -0.8494
      3 O2G        -1.6902    8.2954    5.9358 O.co2     1 ATP        -0.8494
      4 O3G        -2.4597    6.0235    6.8121 O.3       1 ATP        -0.7845
      5 PB         -2.0756    6.7569    2.8157 P.3       1 ATP         1.9068
      6 O1B        -3.3707    7.1691    2.1809 O.2       1 ATP        -0.8942
      7 O2B        -0.9170    7.8844    2.8035 O.3       1 ATP        -0.8166
      8 O3B        -2.1761    6.3278    4.3709 O.3       1 ATP        -0.8194
      9 PA          0.0330    4.7082    2.5759 P.3       1 ATP         1.5903
     10 O1A        -0.1147    4.1095    3.9578 O.co2     1 ATP        -0.8519
     11 O2A         1.1818    5.6395    2.2553 O.co2     1 ATP        -0.8519
     12 O3A        -1.3612    5.4575    2.1750 O.3       1 ATP        -0.8093
     13 O5'         0.0180    3.5131    1.4595 O.3       1 ATP        -0.5649
     14 C5'        -0.8811    2.4285    1.6206 C.3       1 ATP         0.1979
     15 C4'        -0.1994    1.3333    2.4288 C.3       1 ATP         0.1179
     16 O4'        -1.1285    0.2356    2.5840 O.3       1 ATP        -0.3878
     17 C3'         1.0324    0.7610    1.7344 C.3       1 ATP         0.1185
     18 O3'         1.9175    0.2377    2.7247 O.3       1 ATP        -0.5544
     19 C2'         0.4468   -0.3802    0.9263 C.3       1 ATP         0.0542
     20 O2'         1.3993   -1.3703    0.5961 O.3       1 ATP        -0.5831
     21 C1'        -0.6159   -0.9100    1.8769 C.3       1 ATP         0.2222
     22 N9         -1.7127   -1.6108    1.2130 N.pl3     1 ATP        -0.1887
     23 C8         -2.5485   -1.0808    0.2609 C.ar      1 ATP         0.4447
     24 N7         -3.4476   -1.9486   -0.1593 N.2       1 ATP        -0.6159
     25 C5         -3.1762   -3.0816    0.5530 C.ar      1 ATP         0.2195
     26 C6         -3.8510   -4.3579    0.5006 C.ar      1 ATP         0.6144
     27 N6         -4.8468   -4.5293   -0.2961 N.2       1 ATP        -0.8160
     28 N1         -3.2499   -5.2342    1.3937 N.pl3     1 ATP        -0.8611
     29 C2         -2.1646   -4.9275    2.2116 C.ar      1 ATP         0.6141
     30 N3         -1.5382   -3.7840    2.2778 N.2       1 ATP        -0.5913
     31 C4         -2.1054   -2.9018    1.4120 C.ar      1 ATP         0.0067
     32 HOG3       -1.5459    5.7304    7.0150 H         1 ATP         0.4313
     33 HOB2       -1.0828    8.7400    3.2538 H         1 ATP         0.4716
     34 H5'1       -1.7770    2.7851    2.1387 H         1 ATP         0.0452
     35 H5'2       -1.1653    2.0543    0.6320 H         1 ATP         0.0452
     36 H4'         0.0403    1.7078    3.4343 H         1 ATP         0.0998
     37 H3'         1.5906    1.4859    1.1353 H         1 ATP         0.0544
     38 HO3'        2.6839   -0.1150    2.2479 H         1 ATP         0.3961
     39 H2'        -0.0017    0.0018    0.0005 H         1 ATP         0.0499
     40 HO2'        2.0953   -0.9375    0.0709 H         1 ATP         0.4045
     41 H1'        -0.1998   -1.6319    2.6178 H         1 ATP         0.0912
     42 H8         -2.4515   -0.0599   -0.0829 H         1 ATP         0.1090
     43 HN62       -5.1990   -5.4882   -0.2004 H         1 ATP         0.3694
     44 H2         -1.8555   -5.7783    2.8388 H         1 ATP         0.0371
     45 H45        -3.6312   -6.1750    1.4526 H         1 ATP         0.4283
@<TRIPOS>BOND
     1    1    2 2
     2    1    3 1
     3    1    4 1
     4    1    8 1
     5    4   32 1
     6    5    6 2
     7    5    7 1
     8    5    8 1
     9    5   12 1
    10    7   33 1
    11    9   10 2
    12    9   11 1
    13    9   12 1
    14    9   13 1
    15   13   14 1
    16   14   15 1
    17   14   34 1
    18   14   35 1
    19   15   16 1
    20   15   17 1
    21   15   36 1
    22   16   21 1
    23   17   18 1
    24   17   19 1
    25   17   37 1
    26   18   38 1
    27   19   20 1
    28   19   21 1
    29   19   39 1
    30   20   40 1
    31   21   22 1
    32   21   41 1
    33   22   23 ar
    34   22   31 ar
    35   23   24 ar
    36   23   42 1
    37   24   25 ar
    38   25   26 ar
    39   25   31 ar
    40   26   27 2
    41   26   28 ar
    42   27   43 1
    43   28   29 ar
    44   28   45 1
    45   29   30 ar
    46   29   44 1
    47   30   31 ar
@<TRIPOS>SUBSTRUCTURE
     1 ATP         1 GROUP 0 A     ****
@<TRIPOS>MOLECULE
[[[3,4-dihydroxy-5-(6-imino-1~{H}-purin-9-yl)tetrahydrofuran-2-yl]methoxy-oxido-phosphoryl]oxy-hydroxy-phosphoryl] hydrogen phosphate
   45    47     1     0     0
SMALL
USER_CHARGES

@<TRIPOS>ATOM
      1 PG         10.7540    3.9739   -0.3826 P.3       1 ATP         1.5496
      2 O1G        11.2683    3.8319   -1.7978 O.co2     1 ATP        -0.8494
      3 O2G        11.4597    3.2983    0.7720 O.co2     1 ATP        -0.8494
      4 O3G        10.6075    5.5640   -0.0415 O.3       1 ATP        -0.7845
      5 PB          8.4517    2.1431   -0.5945 P.3       1 ATP         1.9068
      6 O1B         8.6865    1.5284   -1.9426 O.2       1 ATP        -0.8942
      7 O2B         8.9376    1.2478    0.6609 O.3       1 ATP        -0.8166
      8 O3B         9.1746    3.5682   -0.3513 O.3       1 ATP        -0.8194
      9 PA          5.8654    3.5045   -0.9929 P.3       1 ATP         1.5903
     10 O1A         5.5609    2.9521   -2.3684 O.co2     1 ATP        -0.8519
     11 O2A         6.3581    4.9249   -0.8215 O.co2     1 ATP        -0.8519
     12 O3A         6.9164    2.5038   -0.2446 O.3       1 ATP        -0.8093
     13 O5'         4.5669    3.2939   -0.0211 O.3       1 ATP        -0.5649
     14 C5'         4.0922    1.9801    0.2227 C.3       1 ATP         0.1979
     15 C4'         2.5944    2.0310    0.4653 C.3       1 ATP         0.1179
     16 O4'         1.9327    2.5740   -0.6889 O.3       1 ATP        -0.3878
     17 C3'         1.9685    0.6634    0.6767 C.3       1 ATP         0.1185
     18 O3'         2.1425    0.1975    1.9977 O.3       1 ATP        -0.5544
     19 C2'         0.5176    0.9128    0.3099 C.3       1 ATP         0.0542
     20 O2'        -0.2103    1.4454    1.4152 O.3       1 ATP        -0.5831
     21 C1'         0.6219    1.9765   -0.7844 C.3       1 ATP         0.2222
     22 N9          0.4237    1.4496   -2.1357 N.pl3     1 ATP        -0.1887
     23 C8          1.4069    0.9710   -2.9662 C.ar      1 ATP         0.4447
     24 N7          0.9316    0.5623   -4.1260 N.2       1 ATP        -0.6159
     25 C5         -0.4120    0.7884   -4.0344 C.ar      1 ATP         0.2195
     26 C6         -1.4353    0.5283   -5.0204 C.ar      1 ATP         0.6144
     27 N6         -1.1199    0.0176   -6.1586 N.2       1 ATP        -0.8160
     28 N1         -2.6704    0.9095   -4.5147 N.pl3     1 ATP        -0.8611
     29 C2         -2.8863    1.4571   -3.2520 C.ar      1 ATP         0.6141
     30 N3         -1.9805    1.7017   -2.3442 N.2       1 ATP        -0.5913
     31 C4         -0.7561    1.3381   -2.8112 C.ar      1 ATP         0.0067
     32 HOG3       10.2821    5.8228    0.8470 H         1 ATP         0.4313
     33 HOB2        8.5451    0.3581    0.7894 H         1 ATP         0.4716
     34 H5'1        4.3180    1.3550   -0.6470 H         1 ATP         0.0452
     35 H5'2        4.6084    1.5739    1.0983 H         1 ATP         0.0452
     36 H4'         2.3751    2.7029    1.3156 H         1 ATP         0.0998
     37 H3'         2.4336   -0.1217   -0.0015 H         1 ATP         0.0544
     38 HO3'        1.7160   -0.6716    2.0397 H         1 ATP         0.3961
     39 H2'         0.0316    0.0155   -0.0339 H         1 ATP         0.0499
     40 HO2'       -1.1270    1.5823    1.1180 H         1 ATP         0.4045
     41 H1'        -0.1474    2.7798   -0.6651 H         1 ATP         0.0912
     42 H8          2.4466    0.9468   -2.6694 H         1 ATP         0.1090
     43 HN62       -1.9661   -0.0965   -6.7275 H         1 ATP         0.3694
     44 H2         -3.9481    1.6825   -3.0660 H         1 ATP         0.0371
     45 H45        -3.4814    0.7753   -5.1133 H         1 ATP         0.4283
@<TRIPOS>BOND
     1    1    2 2
     2    1    3 1
     3    1    4 1
     4    1    8 1
     5    4   32 1
     6    5    6 2
     7    5    7 1
     8    5    8 1
     9    5   12 1
    10    7   33 1
    11    9   10 2
    12    9   11 1
    13    9   12 1
    14    9   13 1
    15   13   14 1
    16   14   15 1
    17   14   34 1
    18   14   35 1
    19   15   16 1
    20   15   17 1
    21   15   36 1
    22   16   21 1
    23   17   18 1
    24   17   19 1
    25   17   37 1
    26   18   38 1
    27   19   20 1
    28   19   21 1
    29   19   39 1
    30   20   40 1
    31   21   22 1
    32   21   41 1
    33   22   23 ar
    34   22   31 ar
    35   23   24 ar
    36   23   42 1
    37   24   25 ar
    38   25   26 ar
    39   25   31 ar
    40   26   27 2
    41   26   28 ar
    42   27   43 1
    43   28   29 ar
    44   28   45 1
    45   29   30 ar
    46   29   44 1
    47   30   31 ar
@<TRIPOS>SUBSTRUCTURE
     1 ATP         1 GROUP 0 A     ****
@<TRIPOS>MOLECULE
[[[3,4-dihydroxy-5-(6-imino-1~{H}-purin-9-yl)tetrahydrofuran-2-yl]methoxy-oxido-phosphoryl]oxy-hydroxy-phosphoryl] hydrogen phosphate
   45    47     1     0     0
SMALL
USER_CHARGES

@<TRIPOS>ATOM
      1 PG         -4.9688    5.8652   -2.0727 P.3       1 ATP         1.5496
      2 O1G        -4.2113    6.6130   -3.1473 O.co2     1 ATP        -0.8494
      3 O2G        -6.1844    6.4754   -1.4114 O.co2     1 ATP        -0.8494
      4 O3G        -5.3780    4.3955   -2.6545 O.3       1 ATP        -0.7845
      5 PB         -3.0512    6.2585    0.1333 P.3       1 ATP         1.9068
      6 O1B        -2.0921    7.2353   -0.4801 O.2       1 ATP        -0.8942
      7 O2B        -4.1680    6.9113    1.1029 O.3       1 ATP        -0.8166
      8 O3B        -3.9181    5.3903   -0.9192 O.3       1 ATP        -0.8194
      9 PA         -3.0798    3.8626    1.8537 P.3       1 ATP         1.5903
     10 O1A        -3.7209    2.9152    0.8630 O.co2     1 ATP        -0.8519
     11 O2A        -3.8821    4.4459    2.9964 O.co2     1 ATP        -0.8519
     12 O3A        -2.3874    5.0928    1.0333 O.3       1 ATP        -0.8093
     13 O5'        -1.7337    3.1724    2.4752 O.3       1 ATP        -0.5649
     14 C5'        -0.8811    2.4285    1.6206 C.3       1 ATP         0.1979
     15 C4'        -0.1994    1.3333    2.4288 C.3       1 ATP         0.1179
     16 O4'        -1.1285    0.2356    2.5840 O.3       1 ATP        -0.3878
     17 C3'         1.0324    0.7610    1.7344 C.3       1 ATP         0.1185
     18 O3'         1.9175    0.2377    2.7247 O.3       1 ATP        -0.5544
     19 C2'         0.4468   -0.3802    0.9263 C.3       1 ATP         0.0542
     20 O2'         1.3993   -1.3703    0.5961 O.3       1 ATP        -0.5831
     21 C1'        -0.6159   -0.9100    1.8769 C.3       1 ATP         0.2222
     22 N9         -1.7127   -1.6108    1.2130 N.pl3     1 ATP        -0.1887
     23 C8         -2.8662   -1.0361    0.7388 C.ar      1 ATP         0.4447
     24 N7         -3.6774   -1.9166    0.1867 N.2       1 ATP        -0.6159
     25 C5         -3.0159   -3.1045    0.3123 C.ar      1 ATP         0.2195
     26 C6         -3.4377   -4.4169   -0.1199 C.ar      1 ATP         0.6144
     27 N6         -4.5720   -4.5691   -0.7080 N.2       1 ATP        -0.8160
     28 N1         -2.4600   -5.3463    0.2071 N.pl3     1 ATP        -0.8611
     29 C2         -1.2595   -5.0554    0.8515 C.ar      1 ATP         0.6141
     30 N3         -0.8555   -3.8803    1.2516 N.2       1 ATP        -0.5913
     31 C4         -1.7946   -2.9457    0.9448 C.ar      1 ATP         0.0067
     32 HOG3       -4.6607    3.7894   -2.9378 H         1 ATP         0.4313
     33 HOB2       -3.8754    7.4098    1.8954 H         1 ATP         0.4716
     34 H5'1       -1.4801    1.9928    0.8147 H         1 ATP         0.0452
     35 H5'2       -0.1369    3.1041    1.1872 H         1 ATP         0.0452
     36 H4'         0.0403    1.7078    3.4343 H         1 ATP         0.0998
     37 H3'         1.5906    1.4859    1.1353 H         1 ATP         0.0544
     38 HO3'        2.1521    0.9800    3.3017 H         1 ATP         0.3961
     39 H2'        -0.0017    0.0018    0.0005 H         1 ATP         0.0499
     40 HO2'        1.7495   -1.7243    1.4324 H         1 ATP         0.4045
     41 H1'        -0.1998   -1.6319    2.6178 H         1 ATP         0.0912
     42 H8         -3.0558    0.0252    0.8256 H         1 ATP         0.1090
     43 HN62       -4.7047   -5.5592   -0.9421 H         1 ATP         0.3694
     44 H2         -0.6372   -5.9505    1.0077 H         1 ATP         0.0371
     45 H45        -2.6338   -6.3155   -0.0469 H         1 ATP         0.4283
@<TRIPOS>BOND
     1    1    2 2
     2    1    3 1
     3    1    4 1
     4    1    8 1
     5    4   32 1
     6    5    6 2
     7    5    7 1
     8    5    8 1
     9    5   12 1
    10    7   33 1
    11    9   10 2
    12    9   11 1
    13    9   12 1
    14    9   13 1
    15   13   14 1
    16   14   15 1
    17   14   34 1
    18   14   35 1
    19   15   16 1
    20   15   17 1
    21   15   36 1
    22   16   21 1
    23   17   18 1
    24   17   19 1
    25   17   37 1
    26   18   38 1
    27   19   20 1
    28   19   21 1
    29   19   39 1
    30   20   40 1
    31   21   22 1
    32   21   41 1
    33   22   23 ar
    34   22   31 ar
    35   23   24 ar
    36   23   42 1
    37   24   25 ar
    38   25   26 ar
    39   25   31 ar
    40   26   27 2
    41   26   28 ar
    42   27   43 1
    43   28   29 ar
    44   28   45 1
    45   29   30 ar
    46   29   44 1
    47   30   31 ar
@<TRIPOS>SUBSTRUCTURE
     1 ATP         1 GROUP 0 A     ****
@<TRIPOS>MOLECULE
[[[3,4-dihydroxy-5-(6-imino-1~{H}-purin-9-yl)tetrahydrofuran-2-yl]methoxy-oxido-phosphoryl]oxy-hydroxy-phosphoryl] hydrogen phosphate
   45    47     1     0     0
SMALL
USER_CHARGES

@<TRIPOS>ATOM
      1 PG         -0.3151    4.8614    7.7433 P.3       1 ATP         1.5496
      2 O1G         0.5827    6.0484    8.0128 O.co2     1 ATP        -0.8494
      3 O2G        -0.1012    3.5469    8.4601 O.co2     1 ATP        -0.8494
      4 O3G        -1.8657    5.3244    7.9612 O.3       1 ATP        -0.7845
      5 PB         -0.7090    5.5862    4.9118 P.3       1 ATP         1.9068
      6 O1B        -2.0796    6.1947    4.9509 O.2       1 ATP        -0.8942
      7 O2B         0.5118    6.6460    4.9235 O.3       1 ATP        -0.8166
      8 O3B        -0.3624    4.5891    6.1359 O.3       1 ATP        -0.8194
      9 PA         -0.3961    4.9845    2.0411 P.3       1 ATP         1.5903
     10 O1A         0.7136    5.9718    1.7518 O.co2     1 ATP        -0.8519
     11 O2A        -1.8198    5.2756    1.6189 O.co2     1 ATP        -0.8519
     12 O3A        -0.3946    4.6439    3.6380 O.3       1 ATP        -0.8093
     13 O5'         0.0180    3.5131    1.4595 O.3       1 ATP        -0.5649
     14 C5'        -0.8811    2.4285    1.6206 C.3       1 ATP         0.1979
     15 C4'        -0.1994    1.3333    2.4288 C.3       1 ATP         0.1179
     16 O4'        -1.1285    0.2356    2.5840 O.3       1 ATP        -0.3878
     17 C3'         1.0324    0.7610    1.7344 C.3       1 ATP         0.1185
     18 O3'         1.9175    0.2377    2.7247 O.3       1 ATP        -0.5544
     19 C2'         0.4468   -0.3802    0.9263 C.3       1 ATP         0.0542
     20 O2'         1.3993   -1.3703    0.5961 O.3       1 ATP        -0.5831
     21 C1'        -0.6159   -0.9100    1.8769 C.3       1 ATP         0.2222
     22 N9         -1.7127   -1.6108    1.2130 N.pl3     1 ATP        -0.1887
     23 C8         -2.8662   -1.0361    0.7388 C.ar      1 ATP         0.4447
     24 N7         -3.6774   -1.9166    0.1867 N.2       1 ATP        -0.6159
     25 C5         -3.0159   -3.1045    0.3123 C.ar      1 ATP         0.2195
     26 C6         -3.4377   -4.4169   -0.1199 C.ar      1 ATP         0.6144
     27 N6         -4.5720   -4.5691   -0.7080 N.2       1 ATP        -0.8160
     28 N1         -2.4600   -5.3463    0.2071 N.pl3     1 ATP        -0.8611
     29 C2         -1.2595   -5.0554    0.8515 C.ar      1 ATP         0.6141
     30 N3         -0.8555   -3.8803    1.2516 N.2       1 ATP        -0.5913
     31 C4         -1.7946   -2.9457    0.9448 C.ar      1 ATP         0.0067
     32 HOG3       -2.2187    6.0504    7.4040 H         1 ATP         0.4313
     33 HOB2        0.6005    7.2594    5.6838 H         1 ATP         0.4716
     34 H5'1       -1.7770    2.7851    2.1387 H         1 ATP         0.0452
     35 H5'2       -1.1653    2.0543    0.6320 H         1 ATP         0.0452
     36 H4'         0.0403    1.7078    3.4343 H         1 ATP         0.0998
     37 H3'         1.5906    1.4859    1.1353 H         1 ATP         0.0544
     38 HO3'        2.6839   -0.1150    2.2479 H         1 ATP         0.3961
     39 H2'        -0.0017    0.0018    0.0005 H         1 ATP         0.0499
     40 HO2'        0.9369   -2.0558    0.0825 H         1 ATP         0.4045
     41 H1'        -0.1998   -1.6319    2.6178 H         1 ATP         0.0912
     42 H8         -3.0558    0.0252    0.8256 H         1 ATP         0.1090
     43 HN62       -4.7047   -5.5592   -0.9421 H         1 ATP         0.3694
     44 H2         -0.6372   -5.9505    1.0077 H         1 ATP         0.0371
     45 H45        -2.6338   -6.3155   -0.0469 H         1 ATP         0.4283
@<TRIPOS>BOND
     1    1    2 2
     2    1    3 1
     3    1    4 1
     4    1    8 1
     5    4   32 1
     6    5    6 2
     7    5    7 1
     8    5    8 1
     9    5   12 1
    10    7   33 1
    11    9   10 2
    12    9   11 1
    13    9   12 1
    14    9   13 1
    15   13   14 1
    16   14   15 1
    17   14   34 1
    18   14   35 1
    19   15   16 1
    20   15   17 1
    21   15   36 1
    22   16   21 1
    23   17   18 1
    24   17   19 1
    25   17   37 1
    26   18   38 1
    27   19   20 1
    28   19   21 1
    29   19   39 1
    30   20   40 1
    31   21   22 1
    32   21   41 1
    33   22   23 ar
    34   22   31 ar
    35   23   24 ar
    36   23   42 1
    37   24   25 ar
    38   25   26 ar
    39   25   31 ar
    40   26   27 2
    41   26   28 ar
    42   27   43 1
    43   28   29 ar
    44   28   45 1
    45   29   30 ar
    46   29   44 1
    47   30   31 ar
@<TRIPOS>SUBSTRUCTURE
     1 ATP         1 GROUP 0 A     ****
@<TRIPOS>MOLECULE
[[[3,4-dihydroxy-5-(6-imino-1~{H}-purin-9-yl)tetrahydrofuran-2-yl]methoxy-oxido-phosphoryl]oxy-hydroxy-phosphoryl] hydrogen phosphate
   45    47     1     0     0
SMALL
USER_CHARGES

@<TRIPOS>ATOM
      1 PG         10.3651    1.0598    0.7407 P.3       1 ATP         1.5496
      2 O1G        10.6141    0.3842    2.0708 O.co2     1 ATP        -0.8494
      3 O2G        10.7399    2.5088    0.5230 O.co2     1 ATP        -0.8494
      4 O3G        11.0589    0.1628   -0.4341 O.3       1 ATP        -0.7845
      5 PB          7.9213   -0.5040    0.2113 P.3       1 ATP         1.9068
      6 O1B         8.4269   -1.5175   -0.7724 O.2       1 ATP        -0.8942
      7 O2B         7.8187   -1.0234    1.7388 O.3       1 ATP        -0.8166
      8 O3B         8.8027    0.8463    0.3242 O.3       1 ATP        -0.8194
      9 PA          5.8978    0.9308   -1.3849 P.3       1 ATP         1.5903
     10 O1A         5.9208    0.0232   -2.5955 O.co2     1 ATP        -0.8519
     11 O2A         6.5852    2.2785   -1.4154 O.co2     1 ATP        -0.8519
     12 O3A         6.4548    0.1006   -0.0939 O.3       1 ATP        -0.8093
     13 O5'         4.3515    1.1574   -0.9027 O.3       1 ATP        -0.5649
     14 C5'         4.0922    1.9801    0.2227 C.3       1 ATP         0.1979
     15 C4'         2.5944    2.0310    0.4653 C.3       1 ATP         0.1179
     16 O4'         1.9327    2.5740   -0.6889 O.3       1 ATP        -0.3878
     17 C3'         1.9685    0.6634    0.6767 C.3       1 ATP         0.1185
     18 O3'         2.1425    0.1975    1.9977 O.3       1 ATP        -0.5544
     19 C2'         0.5176    0.9128    0.3099 C.3       1 ATP         0.0542
     20 O2'        -0.2103    1.4454    1.4152 O.3       1 ATP        -0.5831
     21 C1'         0.6219    1.9765   -0.7844 C.3       1 ATP         0.2222
     22 N9          0.4237    1.4496   -2.1357 N.pl3     1 ATP        -0.1887
     23 C8          1.4069    0.9710   -2.9662 C.ar      1 ATP         0.4447
     24 N7          0.9316    0.5623   -4.1260 N.2       1 ATP        -0.6159
     25 C5         -0.4120    0.7884   -4.0344 C.ar      1 ATP         0.2195
     26 C6         -1.4353    0.5283   -5.0204 C.ar      1 ATP         0.6144
     27 N6         -1.1199    0.0176   -6.1586 N.2       1 ATP        -0.8160
     28 N1         -2.6704    0.9095   -4.5147 N.pl3     1 ATP        -0.8611
     29 C2         -2.8863    1.4571   -3.2520 C.ar      1 ATP         0.6141
     30 N3         -1.9805    1.7017   -2.3442 N.2       1 ATP        -0.5913
     31 C4         -0.7561    1.3381   -2.8112 C.ar      1 ATP         0.0067
     32 HOG3       10.9847    0.4714   -1.3623 H         1 ATP         0.4313
     33 HOB2        8.6326   -1.3333    2.1903 H         1 ATP         0.4716
     34 H5'1        4.6070    1.5617    1.0934 H         1 ATP         0.0452
     35 H5'2        4.4825    2.9836    0.0252 H         1 ATP         0.0452
     36 H4'         2.3751    2.7029    1.3156 H         1 ATP         0.0998
     37 H3'         2.4336   -0.1217   -0.0015 H         1 ATP         0.0544
     38 HO3'        1.7160   -0.6716    2.0397 H         1 ATP         0.3961
     39 H2'         0.0316    0.0155   -0.0339 H         1 ATP         0.0499
     40 HO2'       -0.1608    0.7921    2.1351 H         1 ATP         0.4045
     41 H1'        -0.1474    2.7798   -0.6651 H         1 ATP         0.0912
     42 H8          2.4466    0.9468   -2.6694 H         1 ATP         0.1090
     43 HN62       -1.9661   -0.0965   -6.7275 H         1 ATP         0.3694
     44 H2         -3.9481    1.6825   -3.0660 H         1 ATP         0.0371
     45 H45        -3.4814    0.7753   -5.1133 H         1 ATP         0.4283
@<TRIPOS>BOND
     1    1    2 2
     2    1    3 1
     3    1    4 1
     4    1    8 1
     5    4   32 1
     6    5    6 2
     7    5    7 1
     8    5    8 1
     9    5   12 1
    10    7   33 1
    11    9   10 2
    12    9   11 1
    13    9   12 1
    14    9   13 1
    15   13   14 1
    16   14   15 1
    17   14   34 1
    18   14   35 1
    19   15   16 1
    20   15   17 1
    21   15   36 1
    22   16   21 1
    23   17   18 1
    24   17   19 1
    25   17   37 1
    26   18   38 1
    27   19   20 1
    28   19   21 1
    29   19   39 1
    30   20   40 1
    31   21   22 1
    32   21   41 1
    33   22   23 ar
    34   22   31 ar
    35   23   24 ar
    36   23   42 1
    37   24   25 ar
    38   25   26 ar
    39   25   31 ar
    40   26   27 2
    41   26   28 ar
    42   27   43 1
    43   28   29 ar
    44   28   45 1
    45   29   30 ar
    46   29   44 1
    47   30   31 ar
@<TRIPOS>SUBSTRUCTURE
     1 ATP         1 GROUP 0 A     ****
@<TRIPOS>MOLECULE
[[[3,4-dihydroxy-5-(6-imino-1~{H}-purin-9-yl)tetrahydrofuran-2-yl]methoxy-oxido-phosphoryl]oxy-hydroxy-phosphoryl] hydrogen phosphate
   45    47     1     0     0
SMALL
USER_CHARGES

@<TRIPOS>ATOM
      1 PG         -2.4217    4.6431    8.2758 P.3       1 ATP         1.5496
      2 O1G        -1.7986    3.6573    9.2390 O.co2     1 ATP        -0.8494
      3 O2G        -3.8885    4.9997    8.3698 O.co2     1 ATP        -0.8494
      4 O3G        -1.5495    6.0230    8.3100 O.3       1 ATP        -0.7845
      5 PB         -0.6713    3.8305    6.0456 P.3       1 ATP         1.9068
      6 O1B         0.3261    4.9509    6.0301 O.2       1 ATP        -0.8942
      7 O2B        -0.1831    2.4887    6.8037 O.3       1 ATP        -0.8166
      8 O3B        -2.0847    4.1757    6.7500 O.3       1 ATP        -0.8194
      9 PA         -1.9154    4.0917    3.3839 P.3       1 ATP         1.5903
     10 O1A        -0.9828    5.1481    2.8324 O.co2     1 ATP        -0.8519
     11 O2A        -3.3086    4.4564    3.8487 O.co2     1 ATP        -0.8519
     12 O3A        -1.1597    3.3045    4.5985 O.3       1 ATP        -0.8093
     13 O5'        -2.0402    2.8619    2.3130 O.3       1 ATP        -0.5649
     14 C5'        -0.8811    2.4285    1.6206 C.3       1 ATP         0.1979
     15 C4'        -0.1994    1.3333    2.4288 C.3       1 ATP         0.1179
     16 O4'        -1.1285    0.2356    2.5840 O.3       1 ATP        -0.3878
     17 C3'         1.0324    0.7610    1.7344 C.3       1 ATP         0.1185
     18 O3'         1.9175    0.2377    2.7247 O.3       1 ATP        -0.5544
     19 C2'         0.4468   -0.3802    0.9263 C.3       1 ATP         0.0542
     20 O2'         1.3993   -1.3703    0.5961 O.3       1 ATP        -0.5831
     21 C1'        -0.6159   -0.9100    1.8769 C.3       1 ATP         0.2222
     22 N9         -1.7127   -1.6108    1.2130 N.pl3     1 ATP        -0.1887
     23 C8         -2.8662   -1.0361    0.7388 C.ar      1 ATP         0.4447
     24 N7         -3.6774   -1.9166    0.1867 N.2       1 ATP        -0.6159
     25 C5         -3.0159   -3.1045    0.3123 C.ar      1 ATP         0.2195
     26 C6         -3.4377   -4.4169   -0.1199 C.ar      1 ATP         0.6144
     27 N6         -4.5720   -4.5691   -0.7080 N.2       1 ATP        -0.8160
     28 N1         -2.4600   -5.3463    0.2071 N.pl3     1 ATP        -0.8611
     29 C2         -1.2595   -5.0554    0.8515 C.ar      1 ATP         0.6141
     30 N3         -0.8555   -3.8803    1.2516 N.2       1 ATP        -0.5913
     31 C4         -1.7946   -2.9457    0.9448 C.ar      1 ATP         0.0067
     32 HOG3       -1.8292    6.7663    7.7344 H         1 ATP         0.4313
     33 HOB2        0.0556    2.5406    7.7538 H         1 ATP         0.4716
     34 H5'1       -1.1769    2.0503    0.6369 H         1 ATP         0.0452
     35 H5'2       -0.2081    3.2815    1.4877 H         1 ATP         0.0452
     36 H4'         0.0403    1.7078    3.4343 H         1 ATP         0.0998
     37 H3'         1.5906    1.4859    1.1353 H         1 ATP         0.0544
     38 HO3'        2.6839   -0.1150    2.2479 H         1 ATP         0.3961
     39 H2'        -0.0017    0.0018    0.0005 H         1 ATP         0.0499
     40 HO2'        2.0953   -0.9375    0.0709 H         1 ATP         0.4045
     41 H1'        -0.1998   -1.6319    2.6178 H         1 ATP         0.0912
     42 H8         -3.0558    0.0252    0.8256 H         1 ATP         0.1090
     43 HN62       -4.7047   -5.5592   -0.9421 H         1 ATP         0.3694
     44 H2         -0.6372   -5.9505    1.0077 H         1 ATP         0.0371
     45 H45        -2.6338   -6.3155   -0.0469 H         1 ATP         0.4283
@<TRIPOS>BOND
     1    1    2 2
     2    1    3 1
     3    1    4 1
     4    1    8 1
     5    4   32 1
     6    5    6 2
     7    5    7 1
     8    5    8 1
     9    5   12 1
    10    7   33 1
    11    9   10 2
    12    9   11 1
    13    9   12 1
    14    9   13 1
    15   13   14 1
    16   14   15 1
    17   14   34 1
    18   14   35 1
    19   15   16 1
    20   15   17 1
    21   15   36 1
    22   16   21 1
    23   17   18 1
    24   17   19 1
    25   17   37 1
    26   18   38 1
    27   19   20 1
    28   19   21 1
    29   19   39 1
    30   20   40 1
    31   21   22 1
    32   21   41 1
    33   22   23 ar
    34   22   31 ar
    35   23   24 ar
    36   23   42 1
    37   24   25 ar
    38   25   26 ar
    39   25   31 ar
    40   26   27 2
    41   26   28 ar
    42   27   43 1
    43   28   29 ar
    44   28   45 1
    45   29   30 ar
    46   29   44 1
    47   30   31 ar
@<TRIPOS>SUBSTRUCTURE
     1 ATP         1 GROUP 0 A     ****
@<TRIPOS>MOLECULE
[[[3,4-dihydroxy-5-(6-imino-1~{H}-purin-9-yl)tetrahydrofuran-2-yl]methoxy-oxido-phosphoryl]oxy-hydroxy-phosphoryl] hydrogen phosphate
   45    47     1     0     0
SMALL
USER_CHARGES

@<TRIPOS>ATOM
      1 PG          7.5589    3.1029   -5.2954 P.3       1 ATP         1.5496
      2 O1G         8.5038    1.9343   -5.4659 O.co2     1 ATP        -0.8494
      3 O2G         8.0063    4.5149   -5.6010 O.co2     1 ATP        -0.8494
      4 O3G         6.1969    2.7959   -6.1421 O.3       1 ATP        -0.7845
      5 PB          7.6342    3.2684   -2.3518 P.3       1 ATP         1.9068
      6 O1B         8.7329    2.2991   -2.0298 O.2       1 ATP        -0.8942
      7 O2B         8.0744    4.8239   -2.3641 O.3       1 ATP        -0.8166
      8 O3B         6.9297    3.0582   -3.7913 O.3       1 ATP        -0.8194
      9 PA          6.2485    3.4952    0.2423 P.3       1 ATP         1.5903
     10 O1A         6.5934    4.9413    0.5251 O.co2     1 ATP        -0.8519
     11 O2A         6.9725    2.3738    0.9551 O.co2     1 ATP        -0.8519
     12 O3A         6.3551    3.2334   -1.3658 O.3       1 ATP        -0.8093
     13 O5'         4.6405    3.2701    0.4379 O.3       1 ATP        -0.5649
     14 C5'         4.0922    1.9801    0.2227 C.3       1 ATP         0.1979
     15 C4'         2.5944    2.0310    0.4653 C.3       1 ATP         0.1179
     16 O4'         1.9327    2.5740   -0.6889 O.3       1 ATP        -0.3878
     17 C3'         1.9685    0.6634    0.6767 C.3       1 ATP         0.1185
     18 O3'         2.1425    0.1975    1.9977 O.3       1 ATP        -0.5544
     19 C2'         0.5176    0.9128    0.3099 C.3       1 ATP         0.0542
     20 O2'        -0.2103    1.4454    1.4152 O.3       1 ATP        -0.5831
     21 C1'         0.6219    1.9765   -0.7844 C.3       1 ATP         0.2222
     22 N9          0.4237    1.4496   -2.1357 N.pl3     1 ATP        -0.1887
     23 C8          1.4069    0.9710   -2.9662 C.ar      1 ATP         0.4447
     24 N7          0.9316    0.5623   -4.1260 N.2       1 ATP        -0.6159
     25 C5         -0.4120    0.7884   -4.0344 C.ar      1 ATP         0.2195
     26 C6         -1.4353    0.5283   -5.0204 C.ar      1 ATP         0.6144
     27 N6         -1.1199    0.0176   -6.1586 N.2       1 ATP        -0.8160
     28 N1         -2.6704    0.9095   -4.5147 N.pl3     1 ATP        -0.8611
     29 C2         -2.8863    1.4571   -3.2520 C.ar      1 ATP         0.6141
     30 N3         -1.9805    1.7017   -2.3442 N.2       1 ATP        -0.5913
     31 C4         -0.7561    1.3381   -2.8112 C.ar      1 ATP         0.0067
     32 HOG3        5.4801    3.4654   -6.1319 H         1 ATP         0.4313
     33 HOB2        8.7710    5.1150   -2.9905 H         1 ATP         0.4716
     34 H5'1        4.3029    1.6730   -0.8066 H         1 ATP         0.0452
     35 H5'2        4.5678    1.2739    0.9106 H         1 ATP         0.0452
     36 H4'         2.3751    2.7029    1.3156 H         1 ATP         0.0998
     37 H3'         2.4336   -0.1217   -0.0015 H         1 ATP         0.0544
     38 HO3'        1.7138    0.8467    2.5755 H         1 ATP         0.3961
     39 H2'         0.0316    0.0155   -0.0339 H         1 ATP         0.0499
     40 HO2'       -1.1270    1.5823    1.1180 H         1 ATP         0.4045
     41 H1'        -0.1474    2.7798   -0.6651 H         1 ATP         0.0912
     42 H8          2.4466    0.9468   -2.6694 H         1 ATP         0.1090
     43 HN62       -1.9661   -0.0965   -6.7275 H         1 ATP         0.3694
     44 H2         -3.9481    1.6825   -3.0660 H         1 ATP         0.0371
     45 H45        -3.4814    0.7753   -5.1133 H         1 ATP         0.4283
@<TRIPOS>BOND
     1    1    2 2
     2    1    3 1
     3    1    4 1
     4    1    8 1
     5    4   32 1
     6    5    6 2
     7    5    7 1
     8    5    8 1
     9    5   12 1
    10    7   33 1
    11    9   10 2
    12    9   11 1
    13    9   12 1
    14    9   13 1
    15   13   14 1
    16   14   15 1
    17   14   34 1
    18   14   35 1
    19   15   16 1
    20   15   17 1
    21   15   36 1
    22   16   21 1
    23   17   18 1
    24   17   19 1
    25   17   37 1
    26   18   38 1
    27   19   20 1
    28   19   21 1
    29   19   39 1
    30   20   40 1
    31   21   22 1
    32   21   41 1
    33   22   23 ar
    34   22   31 ar
    35   23   24 ar
    36   23   42 1
    37   24   25 ar
    38   25   26 ar
    39   25   31 ar
    40   26   27 2
    41   26   28 ar
    42   27   43 1
    43   28   29 ar
    44   28   45 1
    45   29   30 ar
    46   29   44 1
    47   30   31 ar
@<TRIPOS>SUBSTRUCTURE
     1 ATP         1 GROUP 0 A     ****
@<TRIPOS>MOLECULE
[[[3,4-dihydroxy-5-(6-imino-1~{H}-purin-9-yl)tetrahydrofuran-2-yl]methoxy-oxido-phosphoryl]oxy-hydroxy-phosphoryl] hydrogen phosphate
   45    47     1     0     0
SMALL
USER_CHARGES

@<TRIPOS>ATOM
      1 PG          2.2814    5.3838    4.2518 P.3       1 ATP         1.5496
      2 O1G         1.3545    5.0121    5.3877 O.co2     1 ATP        -0.8494
      3 O2G         1.8759    5.1579    2.8123 O.co2     1 ATP        -0.8494
      4 O3G         2.7164    6.9477    4.4284 O.3       1 ATP        -0.7845
      5 PB          5.1342    4.8617    3.7158 P.3       1 ATP         1.9068
      6 O1B         5.6889    6.2551    3.6873 O.2       1 ATP        -0.8942
      7 O2B         6.0966    3.7546    4.3953 O.3       1 ATP        -0.8166
      8 O3B         3.7360    4.6925    4.5093 O.3       1 ATP        -0.8194
      9 PA          5.6978    3.9302    0.9743 P.3       1 ATP         1.5903
     10 O1A         6.7117    2.8653    1.3318 O.co2     1 ATP        -0.8519
     11 O2A         6.1407    5.2577    0.3987 O.co2     1 ATP        -0.8519
     12 O3A         4.7612    4.2244    2.2791 O.3       1 ATP        -0.8093
     13 O5'         4.5669    3.2939   -0.0211 O.3       1 ATP        -0.5649
     14 C5'         4.0922    1.9801    0.2227 C.3       1 ATP         0.1979
     15 C4'         2.5944    2.0310    0.4653 C.3       1 ATP         0.1179
     16 O4'         1.9327    2.5740   -0.6889 O.3       1 ATP        -0.3878
     17 C3'         1.9685    0.6634    0.6767 C.3       1 ATP         0.1185
     18 O3'         2.1425    0.1975    1.9977 O.3       1 ATP        -0.5544
     19 C2'         0.5176    0.9128    0.3099 C.3       1 ATP         0.0542
     20 O2'        -0.2103    1.4454    1.4152 O.3       1 ATP        -0.5831
     21 C1'         0.6219    1.9765   -0.7844 C.3       1 ATP         0.2222
     22 N9          0.4237    1.4496   -2.1357 N.pl3     1 ATP        -0.1887
     23 C8          1.4069    0.9710   -2.9662 C.ar      1 ATP         0.4447
     24 N7          0.9316    0.5623   -4.1260 N.2       1 ATP        -0.6159
     25 C5         -0.4120    0.7884   -4.0344 C.ar      1 ATP         0.2195
     26 C6         -1.4353    0.5283   -5.0204 C.ar      1 ATP         0.6144
     27 N6         -1.1199    0.0176   -6.1586 N.2       1 ATP        -0.8160
     28 N1         -2.6704    0.9095   -4.5147 N.pl3     1 ATP        -0.8611
     29 C2         -2.8863    1.4571   -3.2520 C.ar      1 ATP         0.6141
     30 N3         -1.9805    1.7017   -2.3442 N.2       1 ATP        -0.5913
     31 C4         -0.7561    1.3381   -2.8112 C.ar      1 ATP         0.0067
     32 HOG3        3.3213    7.3418    3.7644 H         1 ATP         0.4313
     33 HOB2        6.9838    3.5955    4.0083 H         1 ATP         0.4716
     34 H5'1        4.3180    1.3550   -0.6470 H         1 ATP         0.0452
     35 H5'2        4.6084    1.5739    1.0983 H         1 ATP         0.0452
     36 H4'         2.3751    2.7029    1.3156 H         1 ATP         0.0998
     37 H3'         2.4336   -0.1217   -0.0015 H         1 ATP         0.0544
     38 HO3'        1.7160   -0.6716    2.0397 H         1 ATP         0.3961
     39 H2'         0.0316    0.0155   -0.0339 H         1 ATP         0.0499
     40 HO2'       -0.1608    0.7921    2.1351 H         1 ATP         0.4045
     41 H1'        -0.1474    2.7798   -0.6651 H         1 ATP         0.0912
     42 H8          2.4466    0.9468   -2.6694 H         1 ATP         0.1090
     43 HN62       -1.9661   -0.0965   -6.7275 H         1 ATP         0.3694
     44 H2         -3.9481    1.6825   -3.0660 H         1 ATP         0.0371
     45 H45        -3.4814    0.7753   -5.1133 H         1 ATP         0.4283
@<TRIPOS>BOND
     1    1    2 2
     2    1    3 1
     3    1    4 1
     4    1    8 1
     5    4   32 1
     6    5    6 2
     7    5    7 1
     8    5    8 1
     9    5   12 1
    10    7   33 1
    11    9   10 2
    12    9   11 1
    13    9   12 1
    14    9   13 1
    15   13   14 1
    16   14   15 1
    17   14   34 1
    18   14   35 1
    19   15   16 1
    20   15   17 1
    21   15   36 1
    22   16   21 1
    23   17   18 1
    24   17   19 1
    25   17   37 1
    26   18   38 1
    27   19   20 1
    28   19   21 1
    29   19   39 1
    30   20   40 1
    31   21   22 1
    32   21   41 1
    33   22   23 ar
    34   22   31 ar
    35   23   24 ar
    36   23   42 1
    37   24   25 ar
    38   25   26 ar
    39   25   31 ar
    40   26   27 2
    41   26   28 ar
    42   27   43 1
    43   28   29 ar
    44   28   45 1
    45   29   30 ar
    46   29   44 1
    47   30   31 ar
@<TRIPOS>SUBSTRUCTURE
     1 ATP         1 GROUP 0 A     ****
@<TRIPOS>MOLECULE
[[[3,4-dihydroxy-5-(6-imino-1~{H}-purin-9-yl)tetrahydrofuran-2-yl]methoxy-oxido-phosphoryl]oxy-hydroxy-phosphoryl] hydrogen phosphate
   45    47     1     0     0
SMALL
USER_CHARGES

@<TRIPOS>ATOM
      1 PG         -5.6438    7.7587    0.9315 P.3       1 ATP         1.5496
      2 O1G        -4.8661    9.0408    0.7335 O.co2     1 ATP        -0.8494
      3 O2G        -6.6963    7.6474    2.0119 O.co2     1 ATP        -0.8494
      4 O3G        -6.3178    7.3360   -0.4944 O.3       1 ATP        -0.7845
      5 PB         -3.3718    6.0572    0.1309 P.3       1 ATP         1.9068
      6 O1B        -3.7594    5.6876   -1.2703 O.2       1 ATP        -0.8942
      7 O2B        -2.3095    7.2699    0.2509 O.3       1 ATP        -0.8166
      8 O3B        -4.5922    6.5214    1.0839 O.3       1 ATP        -0.8194
      9 PA         -3.3161    3.4232    1.4577 P.3       1 ATP         1.5903
     10 O1A        -3.5062    2.5741    0.2197 O.co2     1 ATP        -0.8519
     11 O2A        -4.4618    3.6582    2.4178 O.co2     1 ATP        -0.8519
     12 O3A        -2.7142    4.8745    1.0132 O.3       1 ATP        -0.8093
     13 O5'        -2.0402    2.8619    2.3130 O.3       1 ATP        -0.5649
     14 C5'        -0.8811    2.4285    1.6206 C.3       1 ATP         0.1979
     15 C4'        -0.1994    1.3333    2.4288 C.3       1 ATP         0.1179
     16 O4'        -1.1285    0.2356    2.5840 O.3       1 ATP        -0.3878
     17 C3'         1.0324    0.7610    1.7344 C.3       1 ATP         0.1185
     18 O3'         1.9175    0.2377    2.7247 O.3       1 ATP        -0.5544
     19 C2'         0.4468   -0.3802    0.9263 C.3       1 ATP         0.0542
     20 O2'         1.3993   -1.3703    0.5961 O.3       1 ATP        -0.5831
     21 C1'        -0.6159   -0.9100    1.8769 C.3       1 ATP         0.2222
     22 N9         -1.7127   -1.6108    1.2130 N.pl3     1 ATP        -0.1887
     23 C8         -1.5982   -2.7455    0.4481 C.ar      1 ATP         0.4447
     24 N7         -2.7593   -3.1533   -0.0249 N.2       1 ATP        -0.6159
     25 C5         -3.6547   -2.2420    0.4573 C.ar      1 ATP         0.2195
     26 C6         -5.0842   -2.1942    0.2543 C.ar      1 ATP         0.6144
     27 N6         -5.6648   -3.0919   -0.4618 N.2       1 ATP        -0.8160
     28 N1         -5.6087   -1.0978    0.9248 N.pl3     1 ATP        -0.8611
     29 C2         -4.8689   -0.1873    1.6760 C.ar      1 ATP         0.6141
     30 N3         -3.5787   -0.2081    1.8745 N.2       1 ATP        -0.5913
     31 C4         -3.0344   -1.2737    1.2284 C.ar      1 ATP         0.0067
     32 HOG3       -6.8591    6.5187   -0.5307 H         1 ATP         0.4313
     33 HOB2       -2.5483    8.1479   -0.1156 H         1 ATP         0.4716
     34 H5'1       -1.1769    2.0503    0.6369 H         1 ATP         0.0452
     35 H5'2       -0.2081    3.2815    1.4877 H         1 ATP         0.0452
     36 H4'         0.0403    1.7078    3.4343 H         1 ATP         0.0998
     37 H3'         1.5906    1.4859    1.1353 H         1 ATP         0.0544
     38 HO3'        2.6839   -0.1150    2.2479 H         1 ATP         0.3961
     39 H2'        -0.0017    0.0018    0.0005 H         1 ATP         0.0499
     40 HO2'        2.0953   -0.9375    0.0709 H         1 ATP         0.4045
     41 H1'        -0.1998   -1.6319    2.6178 H         1 ATP         0.0912
     42 H8         -0.6448   -3.2254    0.2735 H         1 ATP         0.1090
     43 HN62       -6.6723   -2.9015   -0.4966 H         1 ATP         0.3694
     44 H2         -5.4961    0.6026    2.1182 H         1 ATP         0.0371
     45 H45        -6.6130   -0.9504    0.8642 H         1 ATP         0.4283
@<TRIPOS>BOND
     1    1    2 2
     2    1    3 1
     3    1    4 1
     4    1    8 1
     5    4   32 1
     6    5    6 2
     7    5    7 1
     8    5    8 1
     9    5   12 1
    10    7   33 1
    11    9   10 2
    12    9   11 1
    13    9   12 1
    14    9   13 1
    15   13   14 1
    16   14   15 1
    17   14   34 1
    18   14   35 1
    19   15   16 1
    20   15   17 1
    21   15   36 1
    22   16   21 1
    23   17   18 1
    24   17   19 1
    25   17   37 1
    26   18   38 1
    27   19   20 1
    28   19   21 1
    29   19   39 1
    30   20   40 1
    31   21   22 1
    32   21   41 1
    33   22   23 ar
    34   22   31 ar
    35   23   24 ar
    36   23   42 1
    37   24   25 ar
    38   25   26 ar
    39   25   31 ar
    40   26   27 2
    41   26   28 ar
    42   27   43 1
    43   28   29 ar
    44   28   45 1
    45   29   30 ar
    46   29   44 1
    47   30   31 ar
@<TRIPOS>SUBSTRUCTURE
     1 ATP         1 GROUP 0 A     ****
@<TRIPOS>MOLECULE
[[[3,4-dihydroxy-5-(6-imino-1~{H}-purin-9-yl)tetrahydrofuran-2-yl]methoxy-oxido-phosphoryl]oxy-hydroxy-phosphoryl] hydrogen phosphate
   45    47     1     0     0
SMALL
USER_CHARGES

@<TRIPOS>ATOM
      1 PG         -2.8421    7.7076   -1.8452 P.3       1 ATP         1.5496
      2 O1G        -1.6568    8.6434   -1.9286 O.co2     1 ATP        -0.8494
      3 O2G        -4.2406    8.2423   -1.6312 O.co2     1 ATP        -0.8494
      4 O3G        -2.8477    6.7587   -3.1740 O.3       1 ATP        -0.7845
      5 PB         -2.3658    6.6802    0.8779 P.3       1 ATP         1.9068
      6 O1B        -1.2550    7.5756    1.3411 O.2       1 ATP        -0.8942
      7 O2B        -3.8417    7.0993    1.3875 O.3       1 ATP        -0.8166
      8 O3B        -2.5333    6.5626   -0.7255 O.3       1 ATP        -0.8194
      9 PA         -2.1560    4.4277    2.7709 P.3       1 ATP         1.5903
     10 O1A        -3.4707    4.6479    3.4869 O.co2     1 ATP        -0.8519
     11 O2A        -0.8473    4.8292    3.4158 O.co2     1 ATP        -0.8519
     12 O3A        -2.2360    5.1255    1.2968 O.3       1 ATP        -0.8093
     13 O5'        -2.0402    2.8619    2.3130 O.3       1 ATP        -0.5649
     14 C5'        -0.8811    2.4285    1.6206 C.3       1 ATP         0.1979
     15 C4'        -0.1994    1.3333    2.4288 C.3       1 ATP         0.1179
     16 O4'        -1.1285    0.2356    2.5840 O.3       1 ATP        -0.3878
     17 C3'         1.0324    0.7610    1.7344 C.3       1 ATP         0.1185
     18 O3'         1.9175    0.2377    2.7247 O.3       1 ATP        -0.5544
     19 C2'         0.4468   -0.3802    0.9263 C.3       1 ATP         0.0542
     20 O2'         1.3993   -1.3703    0.5961 O.3       1 ATP        -0.5831
     21 C1'        -0.6159   -0.9100    1.8769 C.3       1 ATP         0.2222
     22 N9         -1.7127   -1.6108    1.2130 N.pl3     1 ATP        -0.1887
     23 C8         -2.0868   -2.9137    1.4327 C.ar      1 ATP         0.4447
     24 N7         -3.1125   -3.2756    0.6878 N.2       1 ATP        -0.6159
     25 C5         -3.4079   -2.1580   -0.0391 C.ar      1 ATP         0.2195
     26 C6         -4.4483   -1.9775   -1.0249 C.ar      1 ATP         0.6144
     27 N6         -5.2418   -2.9492   -1.3113 N.2       1 ATP        -0.8160
     28 N1         -4.3937   -0.6823   -1.5211 N.pl3     1 ATP        -0.8611
     29 C2         -3.4770    0.2901   -1.1271 C.ar      1 ATP         0.6141
     30 N3         -2.5289    0.1525   -0.2403 N.2       1 ATP        -0.5913
     31 C4         -2.5564   -1.1096    0.2655 C.ar      1 ATP         0.0067
     32 HOG3       -3.5613    6.0923   -3.2687 H         1 ATP         0.4313
     33 HOB2       -4.1961    7.9804    1.1418 H         1 ATP         0.4716
     34 H5'1       -1.1769    2.0503    0.6369 H         1 ATP         0.0452
     35 H5'2       -0.2081    3.2815    1.4877 H         1 ATP         0.0452
     36 H4'         0.0403    1.7078    3.4343 H         1 ATP         0.0998
     37 H3'         1.5906    1.4859    1.1353 H         1 ATP         0.0544
     38 HO3'        2.1521    0.9800    3.3017 H         1 ATP         0.3961
     39 H2'        -0.0017    0.0018    0.0005 H         1 ATP         0.0499
     40 HO2'        0.9369   -2.0558    0.0825 H         1 ATP         0.4045
     41 H1'        -0.1998   -1.6319    2.6178 H         1 ATP         0.0912
     42 H8         -1.5740   -3.5449    2.1457 H         1 ATP         0.1090
     43 HN62       -5.9117   -2.6433   -2.0256 H         1 ATP         0.3694
     44 H2         -3.6225    1.2454   -1.6553 H         1 ATP         0.0371
     45 H45        -5.0794   -0.4231   -2.2258 H         1 ATP         0.4283
@<TRIPOS>BOND
     1    1    2 2
     2    1    3 1
     3    1    4 1
     4    1    8 1
     5    4   32 1
     6    5    6 2
     7    5    7 1
     8    5    8 1
     9    5   12 1
    10    7   33 1
    11    9   10 2
    12    9   11 1
    13    9   12 1
    14    9   13 1
    15   13   14 1
    16   14   15 1
    17   14   34 1
    18   14   35 1
    19   15   16 1
    20   15   17 1
    21   15   36 1
    22   16   21 1
    23   17   18 1
    24   17   19 1
    25   17   37 1
    26   18   38 1
    27   19   20 1
    28   19   21 1
    29   19   39 1
    30   20   40 1
    31   21   22 1
    32   21   41 1
    33   22   23 ar
    34   22   31 ar
    35   23   24 ar
    36   23   42 1
    37   24   25 ar
    38   25   26 ar
    39   25   31 ar
    40   26   27 2
    41   26   28 ar
    42   27   43 1
    43   28   29 ar
    44   28   45 1
    45   29   30 ar
    46   29   44 1
    47   30   31 ar
@<TRIPOS>SUBSTRUCTURE
     1 ATP         1 GROUP 0 A     ****
@<TRIPOS>MOLECULE
[[[3,4-dihydroxy-5-(6-imino-1~{H}-purin-9-yl)tetrahydrofuran-2-yl]methoxy-oxido-phosphoryl]oxy-hydroxy-phosphoryl] hydrogen phosphate
   45    47     1     0     0
SMALL
USER_CHARGES

@<TRIPOS>ATOM
      1 PG         -0.7861    7.2459   -0.4165 P.3       1 ATP         1.5496
      2 O1G        -0.8208    8.5953   -1.0987 O.co2     1 ATP        -0.8494
      3 O2G        -0.8945    5.9674   -1.2173 O.co2     1 ATP        -0.8494
      4 O3G         0.5581    7.1665    0.5071 O.3       1 ATP        -0.7845
      5 PB         -2.2058    6.1185    1.9097 P.3       1 ATP         1.9068
      6 O1B        -1.0650    5.8291    2.8398 O.2       1 ATP        -0.8942
      7 O2B        -3.5514    6.6604    2.6233 O.3       1 ATP        -0.8166
      8 O3B        -1.9033    7.2257    0.7715 O.3       1 ATP        -0.8194
      9 PA         -3.3161    3.4232    1.4577 P.3       1 ATP         1.5903
     10 O1A        -3.5062    2.5741    0.2197 O.co2     1 ATP        -0.8519
     11 O2A        -4.4618    3.6582    2.4178 O.co2     1 ATP        -0.8519
     12 O3A        -2.7142    4.8745    1.0132 O.3       1 ATP        -0.8093
     13 O5'        -2.0402    2.8619    2.3130 O.3       1 ATP        -0.5649
     14 C5'        -0.8811    2.4285    1.6206 C.3       1 ATP         0.1979
     15 C4'        -0.1994    1.3333    2.4288 C.3       1 ATP         0.1179
     16 O4'        -1.1285    0.2356    2.5840 O.3       1 ATP        -0.3878
     17 C3'         1.0324    0.7610    1.7344 C.3       1 ATP         0.1185
     18 O3'         1.9175    0.2377    2.7247 O.3       1 ATP        -0.5544
     19 C2'         0.4468   -0.3802    0.9263 C.3       1 ATP         0.0542
     20 O2'         1.3993   -1.3703    0.5961 O.3       1 ATP        -0.5831
     21 C1'        -0.6159   -0.9100    1.8769 C.3       1 ATP         0.2222
     22 N9         -1.7127   -1.6108    1.2130 N.pl3     1 ATP        -0.1887
     23 C8         -1.5982   -2.7455    0.4481 C.ar      1 ATP         0.4447
     24 N7         -2.7593   -3.1533   -0.0249 N.2       1 ATP        -0.6159
     25 C5         -3.6547   -2.2420    0.4573 C.ar      1 ATP         0.2195
     26 C6         -5.0842   -2.1942    0.2543 C.ar      1 ATP         0.6144
     27 N6         -5.6648   -3.0919   -0.4618 N.2       1 ATP        -0.8160
     28 N1         -5.6087   -1.0978    0.9248 N.pl3     1 ATP        -0.8611
     29 C2         -4.8689   -0.1873    1.6760 C.ar      1 ATP         0.6141
     30 N3         -3.5787   -0.2081    1.8745 N.2       1 ATP        -0.5913
     31 C4         -3.0344   -1.2737    1.2284 C.ar      1 ATP         0.0067
     32 HOG3        0.7256    6.3461    1.0181 H         1 ATP         0.4313
     33 HOB2       -3.9937    6.0961    3.2928 H         1 ATP         0.4716
     34 H5'1       -1.1769    2.0503    0.6369 H         1 ATP         0.0452
     35 H5'2       -0.2081    3.2815    1.4877 H         1 ATP         0.0452
     36 H4'         0.0403    1.7078    3.4343 H         1 ATP         0.0998
     37 H3'         1.5906    1.4859    1.1353 H         1 ATP         0.0544
     38 HO3'        2.1521    0.9800    3.3017 H         1 ATP         0.3961
     39 H2'        -0.0017    0.0018    0.0005 H         1 ATP         0.0499
     40 HO2'        1.7495   -1.7243    1.4324 H         1 ATP         0.4045
     41 H1'        -0.1998   -1.6319    2.6178 H         1 ATP         0.0912
     42 H8         -0.6448   -3.2254    0.2735 H         1 ATP         0.1090
     43 HN62       -6.6723   -2.9015   -0.4966 H         1 ATP         0.3694
     44 H2         -5.4961    0.6026    2.1182 H         1 ATP         0.0371
     45 H45        -6.6130   -0.9504    0.8642 H         1 ATP         0.4283
@<TRIPOS>BOND
     1    1    2 2
     2    1    3 1
     3    1    4 1
     4    1    8 1
     5    4   32 1
     6    5    6 2
     7    5    7 1
     8    5    8 1
     9    5   12 1
    10    7   33 1
    11    9   10 2
    12    9   11 1
    13    9   12 1
    14    9   13 1
    15   13   14 1
    16   14   15 1
    17   14   34 1
    18   14   35 1
    19   15   16 1
    20   15   17 1
    21   15   36 1
    22   16   21 1
    23   17   18 1
    24   17   19 1
    25   17   37 1
    26   18   38 1
    27   19   20 1
    28   19   21 1
    29   19   39 1
    30   20   40 1
    31   21   22 1
    32   21   41 1
    33   22   23 ar
    34   22   31 ar
    35   23   24 ar
    36   23   42 1
    37   24   25 ar
    38   25   26 ar
    39   25   31 ar
    40   26   27 2
    41   26   28 ar
    42   27   43 1
    43   28   29 ar
    44   28   45 1
    45   29   30 ar
    46   29   44 1
    47   30   31 ar
@<TRIPOS>SUBSTRUCTURE
     1 ATP         1 GROUP 0 A     ****
@<TRIPOS>MOLECULE
[[[3,4-dihydroxy-5-(6-imino-1~{H}-purin-9-yl)tetrahydrofuran-2-yl]methoxy-oxido-phosphoryl]oxy-hydroxy-phosphoryl] hydrogen phosphate
   45    47     1     0     0
SMALL
USER_CHARGES

@<TRIPOS>ATOM
      1 PG          8.9542    0.5611   -0.9413 P.3       1 ATP         1.5496
      2 O1G         8.0158    0.4541    0.2401 O.co2     1 ATP        -0.8494
      3 O2G        10.3287    1.1735   -0.7887 O.co2     1 ATP        -0.8494
      4 O3G         9.1178   -0.9199   -1.6091 O.3       1 ATP        -0.7845
      5 PB          7.6398    2.8193   -2.3090 P.3       1 ATP         1.9068
      6 O1B         8.6935    3.8818   -2.2038 O.2       1 ATP        -0.8942
      7 O2B         6.8148    2.8076   -3.6993 O.3       1 ATP        -0.8166
      8 O3B         8.1757    1.3008   -2.1689 O.3       1 ATP        -0.8194
      9 PA          5.4149    4.0218   -0.7908 P.3       1 ATP         1.5903
     10 O1A         4.4608    4.2062   -1.9508 O.co2     1 ATP        -0.8519
     11 O2A         6.1750    5.1992   -0.2200 O.co2     1 ATP        -0.8519
     12 O3A         6.4905    2.8548   -1.1744 O.3       1 ATP        -0.8093
     13 O5'         4.6405    3.2701    0.4379 O.3       1 ATP        -0.5649
     14 C5'         4.0922    1.9801    0.2227 C.3       1 ATP         0.1979
     15 C4'         2.5944    2.0310    0.4653 C.3       1 ATP         0.1179
     16 O4'         1.9327    2.5740   -0.6889 O.3       1 ATP        -0.3878
     17 C3'         1.9685    0.6634    0.6767 C.3       1 ATP         0.1185
     18 O3'         2.1425    0.1975    1.9977 O.3       1 ATP        -0.5544
     19 C2'         0.5176    0.9128    0.3099 C.3       1 ATP         0.0542
     20 O2'        -0.2103    1.4454    1.4152 O.3       1 ATP        -0.5831
     21 C1'         0.6219    1.9765   -0.7844 C.3       1 ATP         0.2222
     22 N9          0.4237    1.4496   -2.1357 N.pl3     1 ATP        -0.1887
     23 C8          1.4069    0.9710   -2.9662 C.ar      1 ATP         0.4447
     24 N7          0.9316    0.5623   -4.1260 N.2       1 ATP        -0.6159
     25 C5         -0.4120    0.7884   -4.0344 C.ar      1 ATP         0.2195
     26 C6         -1.4353    0.5283   -5.0204 C.ar      1 ATP         0.6144
     27 N6         -1.1199    0.0176   -6.1586 N.2       1 ATP        -0.8160
     28 N1         -2.6704    0.9095   -4.5147 N.pl3     1 ATP        -0.8611
     29 C2         -2.8863    1.4571   -3.2520 C.ar      1 ATP         0.6141
     30 N3         -1.9805    1.7017   -2.3442 N.2       1 ATP        -0.5913
     31 C4         -0.7561    1.3381   -2.8112 C.ar      1 ATP         0.0067
     32 HOG3        9.7001   -1.0169   -2.3925 H         1 ATP         0.4313
     33 HOB2        6.3034    3.6050   -3.9543 H         1 ATP         0.4716
     34 H5'1        4.3029    1.6730   -0.8066 H         1 ATP         0.0452
     35 H5'2        4.5678    1.2739    0.9106 H         1 ATP         0.0452
     36 H4'         2.3751    2.7029    1.3156 H         1 ATP         0.0998
     37 H3'         2.4336   -0.1217   -0.0015 H         1 ATP         0.0544
     38 HO3'        1.7160   -0.6716    2.0397 H         1 ATP         0.3961
     39 H2'         0.0316    0.0155   -0.0339 H         1 ATP         0.0499
     40 HO2'       -0.1608    0.7921    2.1351 H         1 ATP         0.4045
     41 H1'        -0.1474    2.7798   -0.6651 H         1 ATP         0.0912
     42 H8          2.4466    0.9468   -2.6694 H         1 ATP         0.1090
     43 HN62       -1.9661   -0.0965   -6.7275 H         1 ATP         0.3694
     44 H2         -3.9481    1.6825   -3.0660 H         1 ATP         0.0371
     45 H45        -3.4814    0.7753   -5.1133 H         1 ATP         0.4283
@<TRIPOS>BOND
     1    1    2 2
     2    1    3 1
     3    1    4 1
     4    1    8 1
     5    4   32 1
     6    5    6 2
     7    5    7 1
     8    5    8 1
     9    5   12 1
    10    7   33 1
    11    9   10 2
    12    9   11 1
    13    9   12 1
    14    9   13 1
    15   13   14 1
    16   14   15 1
    17   14   34 1
    18   14   35 1
    19   15   16 1
    20   15   17 1
    21   15   36 1
    22   16   21 1
    23   17   18 1
    24   17   19 1
    25   17   37 1
    26   18   38 1
    27   19   20 1
    28   19   21 1
    29   19   39 1
    30   20   40 1
    31   21   22 1
    32   21   41 1
    33   22   23 ar
    34   22   31 ar
    35   23   24 ar
    36   23   42 1
    37   24   25 ar
    38   25   26 ar
    39   25   31 ar
    40   26   27 2
    41   26   28 ar
    42   27   43 1
    43   28   29 ar
    44   28   45 1
    45   29   30 ar
    46   29   44 1
    47   30   31 ar
@<TRIPOS>SUBSTRUCTURE
     1 ATP         1 GROUP 0 A     ****
@<TRIPOS>MOLECULE
[[[3,4-dihydroxy-5-(6-imino-1~{H}-purin-9-yl)tetrahydrofuran-2-yl]methoxy-oxido-phosphoryl]oxy-hydroxy-phosphoryl] hydrogen phosphate
   45    47     1     0     0
SMALL
USER_CHARGES

@<TRIPOS>ATOM
      1 PG          8.4305    4.4973   -1.1376 P.3       1 ATP         1.5496
      2 O1G         9.0427    5.6575   -0.3846 O.co2     1 ATP        -0.8494
      3 O2G         6.9821    4.5304   -1.5716 O.co2     1 ATP        -0.8494
      4 O3G         9.3564    4.1816   -2.4450 O.3       1 ATP        -0.7845
      5 PB          8.4162    1.5814   -0.6956 P.3       1 ATP         1.9068
      6 O1B         9.1186    1.0928   -1.9277 O.2       1 ATP        -0.8942
      7 O2B         8.7639    0.7701    0.6588 O.3       1 ATP        -0.8166
      8 O3B         8.7045    3.1228   -0.3034 O.3       1 ATP        -0.8194
      9 PA          5.7601    0.3297   -0.9771 P.3       1 ATP         1.5903
     10 O1A         5.8570   -0.6084    0.2063 O.co2     1 ATP        -0.8519
     11 O2A         5.9305   -0.1866   -2.3893 O.co2     1 ATP        -0.8519
     12 O3A         6.8020    1.5671   -0.7547 O.3       1 ATP        -0.8093
     13 O5'         4.3515    1.1574   -0.9027 O.3       1 ATP        -0.5649
     14 C5'         4.0922    1.9801    0.2227 C.3       1 ATP         0.1979
     15 C4'         2.5944    2.0310    0.4653 C.3       1 ATP         0.1179
     16 O4'         1.9327    2.5740   -0.6889 O.3       1 ATP        -0.3878
     17 C3'         1.9685    0.6634    0.6767 C.3       1 ATP         0.1185
     18 O3'         2.1425    0.1975    1.9977 O.3       1 ATP        -0.5544
     19 C2'         0.5176    0.9128    0.3099 C.3       1 ATP         0.0542
     20 O2'        -0.2103    1.4454    1.4152 O.3       1 ATP        -0.5831
     21 C1'         0.6219    1.9765   -0.7844 C.3       1 ATP         0.2222
     22 N9          0.4237    1.4496   -2.1357 N.pl3     1 ATP        -0.1887
     23 C8          1.4069    0.9710   -2.9662 C.ar      1 ATP         0.4447
     24 N7          0.9316    0.5623   -4.1260 N.2       1 ATP        -0.6159
     25 C5         -0.4120    0.7884   -4.0344 C.ar      1 ATP         0.2195
     26 C6         -1.4353    0.5283   -5.0204 C.ar      1 ATP         0.6144
     27 N6         -1.1199    0.0176   -6.1586 N.2       1 ATP        -0.8160
     28 N1         -2.6704    0.9095   -4.5147 N.pl3     1 ATP        -0.8611
     29 C2         -2.8863    1.4571   -3.2520 C.ar      1 ATP         0.6141
     30 N3         -1.9805    1.7017   -2.3442 N.2       1 ATP        -0.5913
     31 C4         -0.7561    1.3381   -2.8112 C.ar      1 ATP         0.0067
     32 HOG3        9.0891    3.4493   -3.0403 H         1 ATP         0.4313
     33 HOB2        8.5686   -0.1904    0.7000 H         1 ATP         0.4716
     34 H5'1        4.6070    1.5617    1.0934 H         1 ATP         0.0452
     35 H5'2        4.4825    2.9836    0.0252 H         1 ATP         0.0452
     36 H4'         2.3751    2.7029    1.3156 H         1 ATP         0.0998
     37 H3'         2.4336   -0.1217   -0.0015 H         1 ATP         0.0544
     38 HO3'        1.7160   -0.6716    2.0397 H         1 ATP         0.3961
     39 H2'         0.0316    0.0155   -0.0339 H         1 ATP         0.0499
     40 HO2'       -0.1608    0.7921    2.1351 H         1 ATP         0.4045
     41 H1'        -0.1474    2.7798   -0.6651 H         1 ATP         0.0912
     42 H8          2.4466    0.9468   -2.6694 H         1 ATP         0.1090
     43 HN62       -1.9661   -0.0965   -6.7275 H         1 ATP         0.3694
     44 H2         -3.9481    1.6825   -3.0660 H         1 ATP         0.0371
     45 H45        -3.4814    0.7753   -5.1133 H         1 ATP         0.4283
@<TRIPOS>BOND
     1    1    2 2
     2    1    3 1
     3    1    4 1
     4    1    8 1
     5    4   32 1
     6    5    6 2
     7    5    7 1
     8    5    8 1
     9    5   12 1
    10    7   33 1
    11    9   10 2
    12    9   11 1
    13    9   12 1
    14    9   13 1
    15   13   14 1
    16   14   15 1
    17   14   34 1
    18   14   35 1
    19   15   16 1
    20   15   17 1
    21   15   36 1
    22   16   21 1
    23   17   18 1
    24   17   19 1
    25   17   37 1
    26   18   38 1
    27   19   20 1
    28   19   21 1
    29   19   39 1
    30   20   40 1
    31   21   22 1
    32   21   41 1
    33   22   23 ar
    34   22   31 ar
    35   23   24 ar
    36   23   42 1
    37   24   25 ar
    38   25   26 ar
    39   25   31 ar
    40   26   27 2
    41   26   28 ar
    42   27   43 1
    43   28   29 ar
    44   28   45 1
    45   29   30 ar
    46   29   44 1
    47   30   31 ar
@<TRIPOS>SUBSTRUCTURE
     1 ATP         1 GROUP 0 A     ****
@<TRIPOS>MOLECULE
[[[3,4-dihydroxy-5-(6-imino-1~{H}-purin-9-yl)tetrahydrofuran-2-yl]methoxy-oxido-phosphoryl]oxy-hydroxy-phosphoryl] hydrogen phosphate
   45    47     1     0     0
SMALL
USER_CHARGES

@<TRIPOS>ATOM
      1 PG         10.4404    3.0056    3.1980 P.3       1 ATP         1.5496
      2 O1G        10.6850    4.4273    3.6527 O.co2     1 ATP        -0.8494
      3 O2G        11.3853    2.3250    2.2330 O.co2     1 ATP        -0.8494
      4 O3G        10.2785    2.0596    4.5191 O.3       1 ATP        -0.7845
      5 PB          8.2376    3.5483    1.3137 P.3       1 ATP         1.9068
      6 O1B         8.2454    5.0479    1.2746 O.2       1 ATP        -0.8942
      7 O2B         8.9975    2.8267    0.0826 O.3       1 ATP        -0.8166
      8 O3B         8.9185    2.8894    2.6233 O.3       1 ATP        -0.8194
      9 PA          6.3564    1.2770    1.3735 P.3       1 ATP         1.5903
     10 O1A         6.8004    0.6872    2.6945 O.co2     1 ATP        -0.8519
     11 O2A         6.7693    0.6402    0.0644 O.co2     1 ATP        -0.8519
     12 O3A         6.7793    2.8536    1.3323 O.3       1 ATP        -0.8093
     13 O5'         4.7294    1.4426    1.3698 O.3       1 ATP        -0.5649
     14 C5'         4.0922    1.9801    0.2227 C.3       1 ATP         0.1979
     15 C4'         2.5944    2.0310    0.4653 C.3       1 ATP         0.1179
     16 O4'         1.9327    2.5740   -0.6889 O.3       1 ATP        -0.3878
     17 C3'         1.9685    0.6634    0.6767 C.3       1 ATP         0.1185
     18 O3'         2.1425    0.1975    1.9977 O.3       1 ATP        -0.5544
     19 C2'         0.5176    0.9128    0.3099 C.3       1 ATP         0.0542
     20 O2'        -0.2103    1.4454    1.4152 O.3       1 ATP        -0.5831
     21 C1'         0.6219    1.9765   -0.7844 C.3       1 ATP         0.2222
     22 N9          0.4237    1.4496   -2.1357 N.pl3     1 ATP        -0.1887
     23 C8          1.4069    0.9710   -2.9662 C.ar      1 ATP         0.4447
     24 N7          0.9316    0.5623   -4.1260 N.2       1 ATP        -0.6159
     25 C5         -0.4120    0.7884   -4.0344 C.ar      1 ATP         0.2195
     26 C6         -1.4353    0.5283   -5.0204 C.ar      1 ATP         0.6144
     27 N6         -1.1199    0.0176   -6.1586 N.2       1 ATP        -0.8160
     28 N1         -2.6704    0.9095   -4.5147 N.pl3     1 ATP        -0.8611
     29 C2         -2.8863    1.4571   -3.2520 C.ar      1 ATP         0.6141
     30 N3         -1.9805    1.7017   -2.3442 N.2       1 ATP        -0.5913
     31 C4         -0.7561    1.3381   -2.8112 C.ar      1 ATP         0.0067
     32 HOG3       10.1136    1.1014    4.3896 H         1 ATP         0.4313
     33 HOB2        8.6830    2.9922   -0.8317 H         1 ATP         0.4716
     34 H5'1        4.4844    2.9853    0.0382 H         1 ATP         0.0452
     35 H5'2        4.3192    1.3445   -0.6391 H         1 ATP         0.0452
     36 H4'         2.3751    2.7029    1.3156 H         1 ATP         0.0998
     37 H3'         2.4336   -0.1217   -0.0015 H         1 ATP         0.0544
     38 HO3'        3.0987    0.1465    2.1461 H         1 ATP         0.3961
     39 H2'         0.0316    0.0155   -0.0339 H         1 ATP         0.0499
     40 HO2'       -0.1608    0.7921    2.1351 H         1 ATP         0.4045
     41 H1'        -0.1474    2.7798   -0.6651 H         1 ATP         0.0912
     42 H8          2.4466    0.9468   -2.6694 H         1 ATP         0.1090
     43 HN62       -1.9661   -0.0965   -6.7275 H         1 ATP         0.3694
     44 H2         -3.9481    1.6825   -3.0660 H         1 ATP         0.0371
     45 H45        -3.4814    0.7753   -5.1133 H         1 ATP         0.4283
@<TRIPOS>BOND
     1    1    2 2
     2    1    3 1
     3    1    4 1
     4    1    8 1
     5    4   32 1
     6    5    6 2
     7    5    7 1
     8    5    8 1
     9    5   12 1
    10    7   33 1
    11    9   10 2
    12    9   11 1
    13    9   12 1
    14    9   13 1
    15   13   14 1
    16   14   15 1
    17   14   34 1
    18   14   35 1
    19   15   16 1
    20   15   17 1
    21   15   36 1
    22   16   21 1
    23   17   18 1
    24   17   19 1
    25   17   37 1
    26   18   38 1
    27   19   20 1
    28   19   21 1
    29   19   39 1
    30   20   40 1
    31   21   22 1
    32   21   41 1
    33   22   23 ar
    34   22   31 ar
    35   23   24 ar
    36   23   42 1
    37   24   25 ar
    38   25   26 ar
    39   25   31 ar
    40   26   27 2
    41   26   28 ar
    42   27   43 1
    43   28   29 ar
    44   28   45 1
    45   29   30 ar
    46   29   44 1
    47   30   31 ar
@<TRIPOS>SUBSTRUCTURE
     1 ATP         1 GROUP 0 A     ****
@<TRIPOS>MOLECULE
[[[3,4-dihydroxy-5-(6-imino-1~{H}-purin-9-yl)tetrahydrofuran-2-yl]methoxy-oxido-phosphoryl]oxy-hydroxy-phosphoryl] hydrogen phosphate
   45    47     1     0     0
SMALL
USER_CHARGES

@<TRIPOS>ATOM
      1 PG         -0.5399    6.8215   -1.1991 P.3       1 ATP         1.5496
      2 O1G        -1.2839    5.6966   -1.8836 O.co2     1 ATP        -0.8494
      3 O2G         0.9479    6.7272   -0.9444 O.co2     1 ATP        -0.8494
      4 O3G        -0.8408    8.2086   -2.0065 O.3       1 ATP        -0.7845
      5 PB         -1.4683    6.3150    1.5540 P.3       1 ATP         1.9068
      6 O1B        -0.1872    5.9258    2.2305 O.2       1 ATP        -0.8942
      7 O2B        -2.4753    7.2045    2.4531 O.3       1 ATP        -0.8166
      8 O3B        -1.2972    7.1811    0.2000 O.3       1 ATP        -0.8194
      9 PA         -3.0798    3.8626    1.8537 P.3       1 ATP         1.5903
     10 O1A        -3.7209    2.9152    0.8630 O.co2     1 ATP        -0.8519
     11 O2A        -3.8821    4.4459    2.9964 O.co2     1 ATP        -0.8519
     12 O3A        -2.3874    5.0928    1.0333 O.3       1 ATP        -0.8093
     13 O5'        -1.7337    3.1724    2.4752 O.3       1 ATP        -0.5649
     14 C5'        -0.8811    2.4285    1.6206 C.3       1 ATP         0.1979
     15 C4'        -0.1994    1.3333    2.4288 C.3       1 ATP         0.1179
     16 O4'        -1.1285    0.2356    2.5840 O.3       1 ATP        -0.3878
     17 C3'         1.0324    0.7610    1.7344 C.3       1 ATP         0.1185
     18 O3'         1.9175    0.2377    2.7247 O.3       1 ATP        -0.5544
     19 C2'         0.4468   -0.3802    0.9263 C.3       1 ATP         0.0542
     20 O2'         1.3993   -1.3703    0.5961 O.3       1 ATP        -0.5831
     21 C1'        -0.6159   -0.9100    1.8769 C.3       1 ATP         0.2222
     22 N9         -1.7127   -1.6108    1.2130 N.pl3     1 ATP        -0.1887
     23 C8         -2.0868   -2.9137    1.4327 C.ar      1 ATP         0.4447
     24 N7         -3.1125   -3.2756    0.6878 N.2       1 ATP        -0.6159
     25 C5         -3.4079   -2.1580   -0.0391 C.ar      1 ATP         0.2195
     26 C6         -4.4483   -1.9775   -1.0249 C.ar      1 ATP         0.6144
     27 N6         -5.2418   -2.9492   -1.3113 N.2       1 ATP        -0.8160
     28 N1         -4.3937   -0.6823   -1.5211 N.pl3     1 ATP        -0.8611
     29 C2         -3.4770    0.2901   -1.1271 C.ar      1 ATP         0.6141
     30 N3         -2.5289    0.1525   -0.2403 N.2       1 ATP        -0.5913
     31 C4         -2.5564   -1.1096    0.2655 C.ar      1 ATP         0.0067
     32 HOG3       -0.4260    9.0364   -1.6827 H         1 ATP         0.4313
     33 HOB2       -2.8135    6.8327    3.2955 H         1 ATP         0.4716
     34 H5'1       -1.4801    1.9928    0.8147 H         1 ATP         0.0452
     35 H5'2       -0.1369    3.1041    1.1872 H         1 ATP         0.0452
     36 H4'         0.0403    1.7078    3.4343 H         1 ATP         0.0998
     37 H3'         1.5906    1.4859    1.1353 H         1 ATP         0.0544
     38 HO3'        2.6839   -0.1150    2.2479 H         1 ATP         0.3961
     39 H2'        -0.0017    0.0018    0.0005 H         1 ATP         0.0499
     40 HO2'        2.0953   -0.9375    0.0709 H         1 ATP         0.4045
     41 H1'        -0.1998   -1.6319    2.6178 H         1 ATP         0.0912
     42 H8         -1.5740   -3.5449    2.1457 H         1 ATP         0.1090
     43 HN62       -5.9117   -2.6433   -2.0256 H         1 ATP         0.3694
     44 H2         -3.6225    1.2454   -1.6553 H         1 ATP         0.0371
     45 H45        -5.0794   -0.4231   -2.2258 H         1 ATP         0.4283
@<TRIPOS>BOND
     1    1    2 2
     2    1    3 1
     3    1    4 1
     4    1    8 1
     5    4   32 1
     6    5    6 2
     7    5    7 1
     8    5    8 1
     9    5   12 1
    10    7   33 1
    11    9   10 2
    12    9   11 1
    13    9   12 1
    14    9   13 1
    15   13   14 1
    16   14   15 1
    17   14   34 1
    18   14   35 1
    19   15   16 1
    20   15   17 1
    21   15   36 1
    22   16   21 1
    23   17   18 1
    24   17   19 1
    25   17   37 1
    26   18   38 1
    27   19   20 1
    28   19   21 1
    29   19   39 1
    30   20   40 1
    31   21   22 1
    32   21   41 1
    33   22   23 ar
    34   22   31 ar
    35   23   24 ar
    36   23   42 1
    37   24   25 ar
    38   25   26 ar
    39   25   31 ar
    40   26   27 2
    41   26   28 ar
    42   27   43 1
    43   28   29 ar
    44   28   45 1
    45   29   30 ar
    46   29   44 1
    47   30   31 ar
@<TRIPOS>SUBSTRUCTURE
     1 ATP         1 GROUP 0 A     ****
@<TRIPOS>MOLECULE
[[[3,4-dihydroxy-5-(6-imino-1~{H}-purin-9-yl)tetrahydrofuran-2-yl]methoxy-oxido-phosphoryl]oxy-hydroxy-phosphoryl] hydrogen phosphate
   45    47     1     0     0
SMALL
USER_CHARGES

@<TRIPOS>ATOM
      1 PG          8.7868    6.4331    1.5862 P.3       1 ATP         1.5496
      2 O1G         9.6008    6.6137    0.3243 O.co2     1 ATP        -0.8494
      3 O2G         9.4544    6.3970    2.9429 O.co2     1 ATP        -0.8494
      4 O3G         7.6158    7.5706    1.6148 O.3       1 ATP        -0.7845
      5 PB          8.2376    3.5483    1.3137 P.3       1 ATP         1.9068
      6 O1B         9.1167    3.1889    0.1525 O.2       1 ATP        -0.8942
      7 O2B         8.8512    3.2058    2.7696 O.3       1 ATP        -0.8166
      8 O3B         7.8440    5.1124    1.4221 O.3       1 ATP        -0.8194
      9 PA          6.3564    1.2770    1.3735 P.3       1 ATP         1.5903
     10 O1A         6.8004    0.6872    2.6945 O.co2     1 ATP        -0.8519
     11 O2A         6.7693    0.6402    0.0644 O.co2     1 ATP        -0.8519
     12 O3A         6.7793    2.8536    1.3323 O.3       1 ATP        -0.8093
     13 O5'         4.7294    1.4426    1.3698 O.3       1 ATP        -0.5649
     14 C5'         4.0922    1.9801    0.2227 C.3       1 ATP         0.1979
     15 C4'         2.5944    2.0310    0.4653 C.3       1 ATP         0.1179
     16 O4'         1.9327    2.5740   -0.6889 O.3       1 ATP        -0.3878
     17 C3'         1.9685    0.6634    0.6767 C.3       1 ATP         0.1185
     18 O3'         2.1425    0.1975    1.9977 O.3       1 ATP        -0.5544
     19 C2'         0.5176    0.9128    0.3099 C.3       1 ATP         0.0542
     20 O2'        -0.2103    1.4454    1.4152 O.3       1 ATP        -0.5831
     21 C1'         0.6219    1.9765   -0.7844 C.3       1 ATP         0.2222
     22 N9          0.4237    1.4496   -2.1357 N.pl3     1 ATP        -0.1887
     23 C8          1.4069    0.9710   -2.9662 C.ar      1 ATP         0.4447
     24 N7          0.9316    0.5623   -4.1260 N.2       1 ATP        -0.6159
     25 C5         -0.4120    0.7884   -4.0344 C.ar      1 ATP         0.2195
     26 C6         -1.4353    0.5283   -5.0204 C.ar      1 ATP         0.6144
     27 N6         -1.1199    0.0176   -6.1586 N.2       1 ATP        -0.8160
     28 N1         -2.6704    0.9095   -4.5147 N.pl3     1 ATP        -0.8611
     29 C2         -2.8863    1.4571   -3.2520 C.ar      1 ATP         0.6141
     30 N3         -1.9805    1.7017   -2.3442 N.2       1 ATP        -0.5913
     31 C4         -0.7561    1.3381   -2.8112 C.ar      1 ATP         0.0067
     32 HOG3        6.9985    7.5860    2.3770 H         1 ATP         0.4313
     33 HOB2        9.6970    3.6236    3.0383 H         1 ATP         0.4716
     34 H5'1        4.4844    2.9853    0.0382 H         1 ATP         0.0452
     35 H5'2        4.3192    1.3445   -0.6391 H         1 ATP         0.0452
     36 H4'         2.3751    2.7029    1.3156 H         1 ATP         0.0998
     37 H3'         2.4336   -0.1217   -0.0015 H         1 ATP         0.0544
     38 HO3'        1.7160   -0.6716    2.0397 H         1 ATP         0.3961
     39 H2'         0.0316    0.0155   -0.0339 H         1 ATP         0.0499
     40 HO2'       -1.1270    1.5823    1.1180 H         1 ATP         0.4045
     41 H1'        -0.1474    2.7798   -0.6651 H         1 ATP         0.0912
     42 H8          2.4466    0.9468   -2.6694 H         1 ATP         0.1090
     43 HN62       -1.9661   -0.0965   -6.7275 H         1 ATP         0.3694
     44 H2         -3.9481    1.6825   -3.0660 H         1 ATP         0.0371
     45 H45        -3.4814    0.7753   -5.1133 H         1 ATP         0.4283
@<TRIPOS>BOND
     1    1    2 2
     2    1    3 1
     3    1    4 1
     4    1    8 1
     5    4   32 1
     6    5    6 2
     7    5    7 1
     8    5    8 1
     9    5   12 1
    10    7   33 1
    11    9   10 2
    12    9   11 1
    13    9   12 1
    14    9   13 1
    15   13   14 1
    16   14   15 1
    17   14   34 1
    18   14   35 1
    19   15   16 1
    20   15   17 1
    21   15   36 1
    22   16   21 1
    23   17   18 1
    24   17   19 1
    25   17   37 1
    26   18   38 1
    27   19   20 1
    28   19   21 1
    29   19   39 1
    30   20   40 1
    31   21   22 1
    32   21   41 1
    33   22   23 ar
    34   22   31 ar
    35   23   24 ar
    36   23   42 1
    37   24   25 ar
    38   25   26 ar
    39   25   31 ar
    40   26   27 2
    41   26   28 ar
    42   27   43 1
    43   28   29 ar
    44   28   45 1
    45   29   30 ar
    46   29   44 1
    47   30   31 ar
@<TRIPOS>SUBSTRUCTURE
     1 ATP         1 GROUP 0 A     ****
@<TRIPOS>MOLECULE
[[[3,4-dihydroxy-5-(6-imino-1~{H}-purin-9-yl)tetrahydrofuran-2-yl]methoxy-oxido-phosphoryl]oxy-hydroxy-phosphoryl] hydrogen phosphate
   45    47     1     0     0
SMALL
USER_CHARGES

@<TRIPOS>ATOM
      1 PG          9.5711   -2.4835    1.4984 P.3       1 ATP         1.5496
      2 O1G         9.3864   -3.6953    0.6123 O.co2     1 ATP        -0.8494
      3 O2G         9.7713   -2.6348    2.9899 O.co2     1 ATP        -0.8494
      4 O3G        10.7963   -1.5854    0.8994 O.3       1 ATP        -0.7845
      5 PB          7.7987   -0.7974   -0.1488 P.3       1 ATP         1.9068
      6 O1B         8.7967    0.0206   -0.9138 O.2       1 ATP        -0.8942
      7 O2B         7.1937   -2.0648   -0.9496 O.3       1 ATP        -0.8166
      8 O3B         8.3462   -1.4408    1.2292 O.3       1 ATP        -0.8194
      9 PA          6.3564    1.2770    1.3735 P.3       1 ATP         1.5903
     10 O1A         6.9876    2.4827    0.7119 O.co2     1 ATP        -0.8519
     11 O2A         6.7838    0.8427    2.7586 O.co2     1 ATP        -0.8519
     12 O3A         6.4907   -0.0043    0.3705 O.3       1 ATP        -0.8093
     13 O5'         4.7294    1.4426    1.3698 O.3       1 ATP        -0.5649
     14 C5'         4.0922    1.9801    0.2227 C.3       1 ATP         0.1979
     15 C4'         2.5944    2.0310    0.4653 C.3       1 ATP         0.1179
     16 O4'         1.9327    2.5740   -0.6889 O.3       1 ATP        -0.3878
     17 C3'         1.9685    0.6634    0.6767 C.3       1 ATP         0.1185
     18 O3'         2.1425    0.1975    1.9977 O.3       1 ATP        -0.5544
     19 C2'         0.5176    0.9128    0.3099 C.3       1 ATP         0.0542
     20 O2'        -0.2103    1.4454    1.4152 O.3       1 ATP        -0.5831
     21 C1'         0.6219    1.9765   -0.7844 C.3       1 ATP         0.2222
     22 N9          0.4237    1.4496   -2.1357 N.pl3     1 ATP        -0.1887
     23 C8          1.4069    0.9710   -2.9662 C.ar      1 ATP         0.4447
     24 N7          0.9316    0.5623   -4.1260 N.2       1 ATP        -0.6159
     25 C5         -0.4120    0.7884   -4.0344 C.ar      1 ATP         0.2195
     26 C6         -1.4353    0.5283   -5.0204 C.ar      1 ATP         0.6144
     27 N6         -1.1199    0.0176   -6.1586 N.2       1 ATP        -0.8160
     28 N1         -2.6704    0.9095   -4.5147 N.pl3     1 ATP        -0.8611
     29 C2         -2.8863    1.4571   -3.2520 C.ar      1 ATP         0.6141
     30 N3         -1.9805    1.7017   -2.3442 N.2       1 ATP        -0.5913
     31 C4         -0.7561    1.3381   -2.8112 C.ar      1 ATP         0.0067
     32 HOG3       11.0409   -0.7586    1.3672 H         1 ATP         0.4313
     33 HOB2        7.8062   -2.7631   -1.2651 H         1 ATP         0.4716
     34 H5'1        4.4844    2.9853    0.0382 H         1 ATP         0.0452
     35 H5'2        4.3192    1.3445   -0.6391 H         1 ATP         0.0452
     36 H4'         2.3751    2.7029    1.3156 H         1 ATP         0.0998
     37 H3'         2.4336   -0.1217   -0.0015 H         1 ATP         0.0544
     38 HO3'        3.0987    0.1465    2.1461 H         1 ATP         0.3961
     39 H2'         0.0316    0.0155   -0.0339 H         1 ATP         0.0499
     40 HO2'       -1.1270    1.5823    1.1180 H         1 ATP         0.4045
     41 H1'        -0.1474    2.7798   -0.6651 H         1 ATP         0.0912
     42 H8          2.4466    0.9468   -2.6694 H         1 ATP         0.1090
     43 HN62       -1.9661   -0.0965   -6.7275 H         1 ATP         0.3694
     44 H2         -3.9481    1.6825   -3.0660 H         1 ATP         0.0371
     45 H45        -3.4814    0.7753   -5.1133 H         1 ATP         0.4283
@<TRIPOS>BOND
     1    1    2 2
     2    1    3 1
     3    1    4 1
     4    1    8 1
     5    4   32 1
     6    5    6 2
     7    5    7 1
     8    5    8 1
     9    5   12 1
    10    7   33 1
    11    9   10 2
    12    9   11 1
    13    9   12 1
    14    9   13 1
    15   13   14 1
    16   14   15 1
    17   14   34 1
    18   14   35 1
    19   15   16 1
    20   15   17 1
    21   15   36 1
    22   16   21 1
    23   17   18 1
    24   17   19 1
    25   17   37 1
    26   18   38 1
    27   19   20 1
    28   19   21 1
    29   19   39 1
    30   20   40 1
    31   21   22 1
    32   21   41 1
    33   22   23 ar
    34   22   31 ar
    35   23   24 ar
    36   23   42 1
    37   24   25 ar
    38   25   26 ar
    39   25   31 ar
    40   26   27 2
    41   26   28 ar
    42   27   43 1
    43   28   29 ar
    44   28   45 1
    45   29   30 ar
    46   29   44 1
    47   30   31 ar
@<TRIPOS>SUBSTRUCTURE
     1 ATP         1 GROUP 0 A     ****
@<TRIPOS>MOLECULE
[[[3,4-dihydroxy-5-(6-imino-1~{H}-purin-9-yl)tetrahydrofuran-2-yl]methoxy-oxido-phosphoryl]oxy-hydroxy-phosphoryl] hydrogen phosphate
   45    47     1     0     0
SMALL
USER_CHARGES

@<TRIPOS>ATOM
      1 PG          3.6853    2.6352   -1.5736 P.3       1 ATP         1.5496
      2 O1G         3.3517    2.0750   -0.2089 O.co2     1 ATP        -0.8494
      3 O2G         4.8256    3.6121   -1.7549 O.co2     1 ATP        -0.8494
      4 O3G         3.9007    1.3893   -2.6068 O.3       1 ATP        -0.7845
      5 PB          1.4543    4.5520   -1.7893 P.3       1 ATP         1.9068
      6 O1B         2.1883    5.8603   -1.7896 O.2       1 ATP        -0.8942
      7 O2B         0.1672    4.4881   -2.7653 O.3       1 ATP        -0.8166
      8 O3B         2.3330    3.2686   -2.2294 O.3       1 ATP        -0.8194
      9 PA         -0.1843    4.7787    0.6530 P.3       1 ATP         1.5903
     10 O1A        -1.5383    4.8261   -0.0209 O.co2     1 ATP        -0.8519
     11 O2A         0.4499    6.0373    1.2038 O.co2     1 ATP        -0.8519
     12 O3A         0.8824    4.0677   -0.3582 O.3       1 ATP        -0.8093
     13 O5'        -0.2061    3.6558    1.8418 O.3       1 ATP        -0.5649
     14 C5'        -0.8811    2.4285    1.6206 C.3       1 ATP         0.1979
     15 C4'        -0.1994    1.3333    2.4288 C.3       1 ATP         0.1179
     16 O4'        -1.1285    0.2356    2.5840 O.3       1 ATP        -0.3878
     17 C3'         1.0324    0.7610    1.7344 C.3       1 ATP         0.1185
     18 O3'         1.9175    0.2377    2.7247 O.3       1 ATP        -0.5544
     19 C2'         0.4468   -0.3802    0.9263 C.3       1 ATP         0.0542
     20 O2'         1.3993   -1.3703    0.5961 O.3       1 ATP        -0.5831
     21 C1'        -0.6159   -0.9100    1.8769 C.3       1 ATP         0.2222
     22 N9         -1.7127   -1.6108    1.2130 N.pl3     1 ATP        -0.1887
     23 C8         -2.0868   -2.9137    1.4327 C.ar      1 ATP         0.4447
     24 N7         -3.1125   -3.2756    0.6878 N.2       1 ATP        -0.6159
     25 C5         -3.4079   -2.1580   -0.0391 C.ar      1 ATP         0.2195
     26 C6         -4.4483   -1.9775   -1.0249 C.ar      1 ATP         0.6144
     27 N6         -5.2418   -2.9492   -1.3113 N.2       1 ATP        -0.8160
     28 N1         -4.3937   -0.6823   -1.5211 N.pl3     1 ATP        -0.8611
     29 C2         -3.4770    0.2901   -1.1271 C.ar      1 ATP         0.6141
     30 N3         -2.5289    0.1525   -0.2403 N.2       1 ATP        -0.5913
     31 C4         -2.5564   -1.1096    0.2655 C.ar      1 ATP         0.0067
     32 HOG3        4.1249    1.5905   -3.5403 H         1 ATP         0.4313
     33 HOB2        0.2935    4.6321   -3.7274 H         1 ATP         0.4716
     34 H5'1       -1.9255    2.5382    1.9293 H         1 ATP         0.0452
     35 H5'2       -0.8473    2.1932    0.5521 H         1 ATP         0.0452
     36 H4'         0.0403    1.7078    3.4343 H         1 ATP         0.0998
     37 H3'         1.5906    1.4859    1.1353 H         1 ATP         0.0544
     38 HO3'        2.6839   -0.1150    2.2479 H         1 ATP         0.3961
     39 H2'        -0.0017    0.0018    0.0005 H         1 ATP         0.0499
     40 HO2'        0.9369   -2.0558    0.0825 H         1 ATP         0.4045
     41 H1'        -0.1998   -1.6319    2.6178 H         1 ATP         0.0912
     42 H8         -1.5740   -3.5449    2.1457 H         1 ATP         0.1090
     43 HN62       -5.9117   -2.6433   -2.0256 H         1 ATP         0.3694
     44 H2         -3.6225    1.2454   -1.6553 H         1 ATP         0.0371
     45 H45        -5.0794   -0.4231   -2.2258 H         1 ATP         0.4283
@<TRIPOS>BOND
     1    1    2 2
     2    1    3 1
     3    1    4 1
     4    1    8 1
     5    4   32 1
     6    5    6 2
     7    5    7 1
     8    5    8 1
     9    5   12 1
    10    7   33 1
    11    9   10 2
    12    9   11 1
    13    9   12 1
    14    9   13 1
    15   13   14 1
    16   14   15 1
    17   14   34 1
    18   14   35 1
    19   15   16 1
    20   15   17 1
    21   15   36 1
    22   16   21 1
    23   17   18 1
    24   17   19 1
    25   17   37 1
    26   18   38 1
    27   19   20 1
    28   19   21 1
    29   19   39 1
    30   20   40 1
    31   21   22 1
    32   21   41 1
    33   22   23 ar
    34   22   31 ar
    35   23   24 ar
    36   23   42 1
    37   24   25 ar
    38   25   26 ar
    39   25   31 ar
    40   26   27 2
    41   26   28 ar
    42   27   43 1
    43   28   29 ar
    44   28   45 1
    45   29   30 ar
    46   29   44 1
    47   30   31 ar
@<TRIPOS>SUBSTRUCTURE
     1 ATP         1 GROUP 0 A     ****
@<TRIPOS>MOLECULE
[[[3,4-dihydroxy-5-(6-imino-1~{H}-purin-9-yl)tetrahydrofuran-2-yl]methoxy-oxido-phosphoryl]oxy-hydroxy-phosphoryl] hydrogen phosphate
   45    47     1     0     0
SMALL
USER_CHARGES

@<TRIPOS>ATOM
      1 PG          5.8891    1.9049    4.1995 P.3       1 ATP         1.5496
      2 O1G         5.9739    3.1593    5.0403 O.co2     1 ATP        -0.8494
      3 O2G         6.6878    0.6723    4.5603 O.co2     1 ATP        -0.8494
      4 O3G         4.3185    1.4817    4.0571 O.3       1 ATP        -0.7845
      5 PB          7.5336    2.8186    1.9282 P.3       1 ATP         1.9068
      6 O1B         8.0733    4.1144    2.4571 O.2       1 ATP        -0.8942
      7 O2B         8.5418    1.5597    2.0398 O.3       1 ATP        -0.8166
      8 O3B         6.1826    2.2918    2.6425 O.3       1 ATP        -0.8194
      9 PA          5.9683    3.7220   -0.4031 P.3       1 ATP         1.5903
     10 O1A         5.8538    3.2295   -1.8294 O.co2     1 ATP        -0.8519
     11 O2A         6.2403    5.1810   -0.1082 O.co2     1 ATP        -0.8519
     12 O3A         7.0883    2.8244    0.3754 O.3       1 ATP        -0.8093
     13 O5'         4.6405    3.2701    0.4379 O.3       1 ATP        -0.5649
     14 C5'         4.0922    1.9801    0.2227 C.3       1 ATP         0.1979
     15 C4'         2.5944    2.0310    0.4653 C.3       1 ATP         0.1179
     16 O4'         1.9327    2.5740   -0.6889 O.3       1 ATP        -0.3878
     17 C3'         1.9685    0.6634    0.6767 C.3       1 ATP         0.1185
     18 O3'         2.1425    0.1975    1.9977 O.3       1 ATP        -0.5544
     19 C2'         0.5176    0.9128    0.3099 C.3       1 ATP         0.0542
     20 O2'        -0.2103    1.4454    1.4152 O.3       1 ATP        -0.5831
     21 C1'         0.6219    1.9765   -0.7844 C.3       1 ATP         0.2222
     22 N9          0.4237    1.4496   -2.1357 N.pl3     1 ATP        -0.1887
     23 C8          1.4069    0.9710   -2.9662 C.ar      1 ATP         0.4447
     24 N7          0.9316    0.5623   -4.1260 N.2       1 ATP        -0.6159
     25 C5         -0.4120    0.7884   -4.0344 C.ar      1 ATP         0.2195
     26 C6         -1.4353    0.5283   -5.0204 C.ar      1 ATP         0.6144
     27 N6         -1.1199    0.0176   -6.1586 N.2       1 ATP        -0.8160
     28 N1         -2.6704    0.9095   -4.5147 N.pl3     1 ATP        -0.8611
     29 C2         -2.8863    1.4571   -3.2520 C.ar      1 ATP         0.6141
     30 N3         -1.9805    1.7017   -2.3442 N.2       1 ATP        -0.5913
     31 C4         -0.7561    1.3381   -2.8112 C.ar      1 ATP         0.0067
     32 HOG3        4.0963    0.6810    3.5358 H         1 ATP         0.4313
     33 HOB2        8.8592    1.2831    2.9258 H         1 ATP         0.4716
     34 H5'1        4.3029    1.6730   -0.8066 H         1 ATP         0.0452
     35 H5'2        4.5678    1.2739    0.9106 H         1 ATP         0.0452
     36 H4'         2.3751    2.7029    1.3156 H         1 ATP         0.0998
     37 H3'         2.4336   -0.1217   -0.0015 H         1 ATP         0.0544
     38 HO3'        1.7160   -0.6716    2.0397 H         1 ATP         0.3961
     39 H2'         0.0316    0.0155   -0.0339 H         1 ATP         0.0499
     40 HO2'       -0.1608    0.7921    2.1351 H         1 ATP         0.4045
     41 H1'        -0.1474    2.7798   -0.6651 H         1 ATP         0.0912
     42 H8          2.4466    0.9468   -2.6694 H         1 ATP         0.1090
     43 HN62       -1.9661   -0.0965   -6.7275 H         1 ATP         0.3694
     44 H2         -3.9481    1.6825   -3.0660 H         1 ATP         0.0371
     45 H45        -3.4814    0.7753   -5.1133 H         1 ATP         0.4283
@<TRIPOS>BOND
     1    1    2 2
     2    1    3 1
     3    1    4 1
     4    1    8 1
     5    4   32 1
     6    5    6 2
     7    5    7 1
     8    5    8 1
     9    5   12 1
    10    7   33 1
    11    9   10 2
    12    9   11 1
    13    9   12 1
    14    9   13 1
    15   13   14 1
    16   14   15 1
    17   14   34 1
    18   14   35 1
    19   15   16 1
    20   15   17 1
    21   15   36 1
    22   16   21 1
    23   17   18 1
    24   17   19 1
    25   17   37 1
    26   18   38 1
    27   19   20 1
    28   19   21 1
    29   19   39 1
    30   20   40 1
    31   21   22 1
    32   21   41 1
    33   22   23 ar
    34   22   31 ar
    35   23   24 ar
    36   23   42 1
    37   24   25 ar
    38   25   26 ar
    39   25   31 ar
    40   26   27 2
    41   26   28 ar
    42   27   43 1
    43   28   29 ar
    44   28   45 1
    45   29   30 ar
    46   29   44 1
    47   30   31 ar
@<TRIPOS>SUBSTRUCTURE
     1 ATP         1 GROUP 0 A     ****
@<TRIPOS>MOLECULE
[[[3,4-dihydroxy-5-(6-imino-1~{H}-purin-9-yl)tetrahydrofuran-2-yl]methoxy-oxido-phosphoryl]oxy-hydroxy-phosphoryl] hydrogen phosphate
   45    47     1     0     0
SMALL
USER_CHARGES

@<TRIPOS>ATOM
      1 PG          8.2465    6.7163    3.6696 P.3       1 ATP         1.5496
      2 O1G         7.7620    6.7895    5.1006 O.co2     1 ATP        -0.8494
      3 O2G         8.3959    7.9686    2.8349 O.co2     1 ATP        -0.8494
      4 O3G         9.6624    5.9034    3.6428 O.3       1 ATP        -0.7845
      5 PB          6.9689    4.1015    3.1918 P.3       1 ATP         1.9068
      6 O1B         8.1454    3.1759    3.2895 O.2       1 ATP        -0.8942
      7 O2B         6.0636    4.2025    4.5274 O.3       1 ATP        -0.8166
      8 O3B         7.3291    5.6410    2.8558 O.3       1 ATP        -0.8194
      9 PA          6.0978    3.6800    0.4053 P.3       1 ATP         1.5903
     10 O1A         7.0182    2.5228    0.0832 O.co2     1 ATP        -0.8519
     11 O2A         6.3951    5.0713   -0.1103 O.co2     1 ATP        -0.8519
     12 O3A         5.9046    3.7640    2.0244 O.3       1 ATP        -0.8093
     13 O5'         4.5669    3.2939   -0.0211 O.3       1 ATP        -0.5649
     14 C5'         4.0922    1.9801    0.2227 C.3       1 ATP         0.1979
     15 C4'         2.5944    2.0310    0.4653 C.3       1 ATP         0.1179
     16 O4'         1.9327    2.5740   -0.6889 O.3       1 ATP        -0.3878
     17 C3'         1.9685    0.6634    0.6767 C.3       1 ATP         0.1185
     18 O3'         2.1425    0.1975    1.9977 O.3       1 ATP        -0.5544
     19 C2'         0.5176    0.9128    0.3099 C.3       1 ATP         0.0542
     20 O2'        -0.2103    1.4454    1.4152 O.3       1 ATP        -0.5831
     21 C1'         0.6219    1.9765   -0.7844 C.3       1 ATP         0.2222
     22 N9          0.4237    1.4496   -2.1357 N.pl3     1 ATP        -0.1887
     23 C8          1.4069    0.9710   -2.9662 C.ar      1 ATP         0.4447
     24 N7          0.9316    0.5623   -4.1260 N.2       1 ATP        -0.6159
     25 C5         -0.4120    0.7884   -4.0344 C.ar      1 ATP         0.2195
     26 C6         -1.4353    0.5283   -5.0204 C.ar      1 ATP         0.6144
     27 N6         -1.1199    0.0176   -6.1586 N.2       1 ATP        -0.8160
     28 N1         -2.6704    0.9095   -4.5147 N.pl3     1 ATP        -0.8611
     29 C2         -2.8863    1.4571   -3.2520 C.ar      1 ATP         0.6141
     30 N3         -1.9805    1.7017   -2.3442 N.2       1 ATP        -0.5913
     31 C4         -0.7561    1.3381   -2.8112 C.ar      1 ATP         0.0067
     32 HOG3       10.1081    5.7708    2.7791 H         1 ATP         0.4313
     33 HOB2        6.4789    4.5141    5.3597 H         1 ATP         0.4716
     34 H5'1        4.3180    1.3550   -0.6470 H         1 ATP         0.0452
     35 H5'2        4.6084    1.5739    1.0983 H         1 ATP         0.0452
     36 H4'         2.3751    2.7029    1.3156 H         1 ATP         0.0998
     37 H3'         2.4336   -0.1217   -0.0015 H         1 ATP         0.0544
     38 HO3'        3.0987    0.1465    2.1461 H         1 ATP         0.3961
     39 H2'         0.0316    0.0155   -0.0339 H         1 ATP         0.0499
     40 HO2'       -0.1608    0.7921    2.1351 H         1 ATP         0.4045
     41 H1'        -0.1474    2.7798   -0.6651 H         1 ATP         0.0912
     42 H8          2.4466    0.9468   -2.6694 H         1 ATP         0.1090
     43 HN62       -1.9661   -0.0965   -6.7275 H         1 ATP         0.3694
     44 H2         -3.9481    1.6825   -3.0660 H         1 ATP         0.0371
     45 H45        -3.4814    0.7753   -5.1133 H         1 ATP         0.4283
@<TRIPOS>BOND
     1    1    2 2
     2    1    3 1
     3    1    4 1
     4    1    8 1
     5    4   32 1
     6    5    6 2
     7    5    7 1
     8    5    8 1
     9    5   12 1
    10    7   33 1
    11    9   10 2
    12    9   11 1
    13    9   12 1
    14    9   13 1
    15   13   14 1
    16   14   15 1
    17   14   34 1
    18   14   35 1
    19   15   16 1
    20   15   17 1
    21   15   36 1
    22   16   21 1
    23   17   18 1
    24   17   19 1
    25   17   37 1
    26   18   38 1
    27   19   20 1
    28   19   21 1
    29   19   39 1
    30   20   40 1
    31   21   22 1
    32   21   41 1
    33   22   23 ar
    34   22   31 ar
    35   23   24 ar
    36   23   42 1
    37   24   25 ar
    38   25   26 ar
    39   25   31 ar
    40   26   27 2
    41   26   28 ar
    42   27   43 1
    43   28   29 ar
    44   28   45 1
    45   29   30 ar
    46   29   44 1
    47   30   31 ar
@<TRIPOS>SUBSTRUCTURE
     1 ATP         1 GROUP 0 A     ****
@<TRIPOS>MOLECULE
[[[3,4-dihydroxy-5-(6-imino-1~{H}-purin-9-yl)tetrahydrofuran-2-yl]methoxy-oxido-phosphoryl]oxy-hydroxy-phosphoryl] hydrogen phosphate
   45    47     1     0     0
SMALL
USER_CHARGES

@<TRIPOS>ATOM
      1 PG         -1.4187    9.4319    0.1261 P.3       1 ATP         1.5496
      2 O1G        -2.3397    9.5734   -1.0652 O.co2     1 ATP        -0.8494
      3 O2G        -0.0436   10.0617    0.1243 O.co2     1 ATP        -0.8494
      4 O3G        -2.2163    9.9323    1.4602 O.3       1 ATP        -0.7845
      5 PB         -2.4131    6.7358    0.7898 P.3       1 ATP         1.9068
      6 O1B        -3.3220    7.0328    1.9456 O.2       1 ATP        -0.8942
      7 O2B        -3.1530    6.5632   -0.6372 O.3       1 ATP        -0.8166
      8 O3B        -1.2788    7.8507    0.5008 O.3       1 ATP        -0.8194
      9 PA         -0.3961    4.9845    2.0411 P.3       1 ATP         1.5903
     10 O1A        -1.0788    4.8231    3.3819 O.co2     1 ATP        -0.8519
     11 O2A         0.7940    5.9060    1.8851 O.co2     1 ATP        -0.8519
     12 O3A        -1.5153    5.3999    0.9272 O.3       1 ATP        -0.8093
     13 O5'         0.0180    3.5131    1.4595 O.3       1 ATP        -0.5649
     14 C5'        -0.8811    2.4285    1.6206 C.3       1 ATP         0.1979
     15 C4'        -0.1994    1.3333    2.4288 C.3       1 ATP         0.1179
     16 O4'        -1.1285    0.2356    2.5840 O.3       1 ATP        -0.3878
     17 C3'         1.0324    0.7610    1.7344 C.3       1 ATP         0.1185
     18 O3'         1.9175    0.2377    2.7247 O.3       1 ATP        -0.5544
     19 C2'         0.4468   -0.3802    0.9263 C.3       1 ATP         0.0542
     20 O2'         1.3993   -1.3703    0.5961 O.3       1 ATP        -0.5831
     21 C1'        -0.6159   -0.9100    1.8769 C.3       1 ATP         0.2222
     22 N9         -1.7127   -1.6108    1.2130 N.pl3     1 ATP        -0.1887
     23 C8         -1.7690   -2.9583    0.9549 C.ar      1 ATP         0.4447
     24 N7         -2.8827   -3.3076    0.3418 N.2       1 ATP        -0.6159
     25 C5         -3.5683   -2.1351    0.2017 C.ar      1 ATP         0.2195
     26 C6         -4.8617   -1.9185   -0.4044 C.ar      1 ATP         0.6144
     27 N6         -5.5166   -2.9094   -0.8994 N.2       1 ATP        -0.8160
     28 N1         -5.1836   -0.5701   -0.3344 N.pl3     1 ATP        -0.8611
     29 C2         -4.3821    0.4180    0.2330 C.ar      1 ATP         0.6141
     30 N3         -3.2117    0.2488    0.7860 N.2       1 ATP        -0.5913
     31 C4         -2.8672   -1.0657    0.7327 C.ar      1 ATP         0.0067
     32 HOG3       -1.7492    9.9017    2.3222 H         1 ATP         0.4313
     33 HOB2       -3.6734    7.3135   -0.9957 H         1 ATP         0.4716
     34 H5'1       -1.7770    2.7851    2.1387 H         1 ATP         0.0452
     35 H5'2       -1.1653    2.0543    0.6320 H         1 ATP         0.0452
     36 H4'         0.0403    1.7078    3.4343 H         1 ATP         0.0998
     37 H3'         1.5906    1.4859    1.1353 H         1 ATP         0.0544
     38 HO3'        2.1521    0.9800    3.3017 H         1 ATP         0.3961
     39 H2'        -0.0017    0.0018    0.0005 H         1 ATP         0.0499
     40 HO2'        2.0953   -0.9375    0.0709 H         1 ATP         0.4045
     41 H1'        -0.1998   -1.6319    2.6178 H         1 ATP         0.0912
     42 H8         -0.9697   -3.6300    1.2371 H         1 ATP         0.1090
     43 HN62       -6.4060   -2.5723   -1.2840 H         1 ATP         0.3694
     44 H2         -4.8409    1.4176    0.1757 H         1 ATP         0.0371
     45 H45        -6.0768   -0.2826   -0.7263 H         1 ATP         0.4283
@<TRIPOS>BOND
     1    1    2 2
     2    1    3 1
     3    1    4 1
     4    1    8 1
     5    4   32 1
     6    5    6 2
     7    5    7 1
     8    5    8 1
     9    5   12 1
    10    7   33 1
    11    9   10 2
    12    9   11 1
    13    9   12 1
    14    9   13 1
    15   13   14 1
    16   14   15 1
    17   14   34 1
    18   14   35 1
    19   15   16 1
    20   15   17 1
    21   15   36 1
    22   16   21 1
    23   17   18 1
    24   17   19 1
    25   17   37 1
    26   18   38 1
    27   19   20 1
    28   19   21 1
    29   19   39 1
    30   20   40 1
    31   21   22 1
    32   21   41 1
    33   22   23 ar
    34   22   31 ar
    35   23   24 ar
    36   23   42 1
    37   24   25 ar
    38   25   26 ar
    39   25   31 ar
    40   26   27 2
    41   26   28 ar
    42   27   43 1
    43   28   29 ar
    44   28   45 1
    45   29   30 ar
    46   29   44 1
    47   30   31 ar
@<TRIPOS>SUBSTRUCTURE
     1 ATP         1 GROUP 0 A     ****
@<TRIPOS>MOLECULE
[[[3,4-dihydroxy-5-(6-imino-1~{H}-purin-9-yl)tetrahydrofuran-2-yl]methoxy-oxido-phosphoryl]oxy-hydroxy-phosphoryl] hydrogen phosphate
   45    47     1     0     0
SMALL
USER_CHARGES

@<TRIPOS>ATOM
      1 PG          9.9264    5.7914    1.9567 P.3       1 ATP         1.5496
      2 O1G        11.1207    5.2844    1.1793 O.co2     1 ATP        -0.8494
      3 O2G         9.9703    5.9003    3.4645 O.co2     1 ATP        -0.8494
      4 O3G         9.4868    7.2400    1.3448 O.3       1 ATP        -0.7845
      5 PB          8.2497    3.3731    1.7608 P.3       1 ATP         1.9068
      6 O1B         9.2128    2.3944    1.1566 O.2       1 ATP        -0.8942
      7 O2B         8.0734    3.2604    3.3638 O.3       1 ATP        -0.8166
      8 O3B         8.6104    4.9308    1.5237 O.3       1 ATP        -0.8194
      9 PA          6.1592    3.5242   -0.3148 P.3       1 ATP         1.5903
     10 O1A         6.6758    2.4088   -1.1974 O.co2     1 ATP        -0.8519
     11 O2A         6.3637    4.9731   -0.7001 O.co2     1 ATP        -0.8519
     12 O3A         6.7372    3.3096    1.1971 O.3       1 ATP        -0.8093
     13 O5'         4.5669    3.2939   -0.0211 O.3       1 ATP        -0.5649
     14 C5'         4.0922    1.9801    0.2227 C.3       1 ATP         0.1979
     15 C4'         2.5944    2.0310    0.4653 C.3       1 ATP         0.1179
     16 O4'         1.9327    2.5740   -0.6889 O.3       1 ATP        -0.3878
     17 C3'         1.9685    0.6634    0.6767 C.3       1 ATP         0.1185
     18 O3'         2.1425    0.1975    1.9977 O.3       1 ATP        -0.5544
     19 C2'         0.5176    0.9128    0.3099 C.3       1 ATP         0.0542
     20 O2'        -0.2103    1.4454    1.4152 O.3       1 ATP        -0.5831
     21 C1'         0.6219    1.9765   -0.7844 C.3       1 ATP         0.2222
     22 N9          0.4237    1.4496   -2.1357 N.pl3     1 ATP        -0.1887
     23 C8         -0.7779    1.3483   -2.7928 C.ar      1 ATP         0.4447
     24 N7         -0.6499    0.8341   -4.0000 N.2       1 ATP        -0.6159
     25 C5          0.6893    0.5965   -4.1212 C.ar      1 ATP         0.2195
     26 C6          1.4031    0.0342   -5.2443 C.ar      1 ATP         0.6144
     27 N6          0.7649   -0.3130   -6.3063 N.2       1 ATP        -0.8160
     28 N1          2.7566   -0.0326   -4.9437 N.pl3     1 ATP        -0.8611
     29 C2          3.3337    0.3796   -3.7446 C.ar      1 ATP         0.6141
     30 N3          2.7120    0.8899   -2.7163 N.2       1 ATP        -0.5913
     31 C4          1.3803    0.9684   -2.9805 C.ar      1 ATP         0.0067
     32 HOG3        8.7205    7.7028    1.7458 H         1 ATP         0.4313
     33 HOB2        8.8581    3.3906    3.9379 H         1 ATP         0.4716
     34 H5'1        4.3180    1.3550   -0.6470 H         1 ATP         0.0452
     35 H5'2        4.6084    1.5739    1.0983 H         1 ATP         0.0452
     36 H4'         2.3751    2.7029    1.3156 H         1 ATP         0.0998
     37 H3'         2.4336   -0.1217   -0.0015 H         1 ATP         0.0544
     38 HO3'        1.7160   -0.6716    2.0397 H         1 ATP         0.3961
     39 H2'         0.0316    0.0155   -0.0339 H         1 ATP         0.0499
     40 HO2'       -0.1608    0.7921    2.1351 H         1 ATP         0.4045
     41 H1'        -0.1474    2.7798   -0.6651 H         1 ATP         0.0912
     42 H8         -1.7076    1.6648   -2.3398 H         1 ATP         0.1090
     43 HN62        1.4266   -0.6890   -6.9943 H         1 ATP         0.3694
     44 H2          4.4251    0.2326   -3.7294 H         1 ATP         0.0371
     45 H45         3.3750   -0.4100   -5.6572 H         1 ATP         0.4283
@<TRIPOS>BOND
     1    1    2 2
     2    1    3 1
     3    1    4 1
     4    1    8 1
     5    4   32 1
     6    5    6 2
     7    5    7 1
     8    5    8 1
     9    5   12 1
    10    7   33 1
    11    9   10 2
    12    9   11 1
    13    9   12 1
    14    9   13 1
    15   13   14 1
    16   14   15 1
    17   14   34 1
    18   14   35 1
    19   15   16 1
    20   15   17 1
    21   15   36 1
    22   16   21 1
    23   17   18 1
    24   17   19 1
    25   17   37 1
    26   18   38 1
    27   19   20 1
    28   19   21 1
    29   19   39 1
    30   20   40 1
    31   21   22 1
    32   21   41 1
    33   22   23 ar
    34   22   31 ar
    35   23   24 ar
    36   23   42 1
    37   24   25 ar
    38   25   26 ar
    39   25   31 ar
    40   26   27 2
    41   26   28 ar
    42   27   43 1
    43   28   29 ar
    44   28   45 1
    45   29   30 ar
    46   29   44 1
    47   30   31 ar
@<TRIPOS>SUBSTRUCTURE
     1 ATP         1 GROUP 0 A     ****
@<TRIPOS>MOLECULE
[[[3,4-dihydroxy-5-(6-imino-1~{H}-purin-9-yl)tetrahydrofuran-2-yl]methoxy-oxido-phosphoryl]oxy-hydroxy-phosphoryl] hydrogen phosphate
   45    47     1     0     0
SMALL
USER_CHARGES

@<TRIPOS>ATOM
      1 PG         -4.1573    5.6273    4.3921 P.3       1 ATP         1.5496
      2 O1G        -3.8292    6.9618    5.0239 O.co2     1 ATP        -0.8494
      3 O2G        -3.2627    4.4264    4.6042 O.co2     1 ATP        -0.8494
      4 O3G        -5.6822    5.2178    4.8081 O.3       1 ATP        -0.7845
      5 PB         -3.3481    6.2687    1.6295 P.3       1 ATP         1.9068
      6 O1B        -3.9341    6.3677    0.2522 O.2       1 ATP        -0.8942
      7 O2B        -2.6827    7.6309    2.1907 O.3       1 ATP        -0.8166
      8 O3B        -4.3875    5.8429    2.7919 O.3       1 ATP        -0.8194
      9 PA         -0.7384    5.0053    1.0868 P.3       1 ATP         1.5903
     10 O1A         0.1343    6.1786    1.4762 O.co2     1 ATP        -0.8519
     11 O2A        -0.9775    4.6689   -0.3691 O.co2     1 ATP        -0.8519
     12 O3A        -2.1882    5.1608    1.8215 O.3       1 ATP        -0.8093
     13 O5'        -0.2061    3.6558    1.8418 O.3       1 ATP        -0.5649
     14 C5'        -0.8811    2.4285    1.6206 C.3       1 ATP         0.1979
     15 C4'        -0.1994    1.3333    2.4288 C.3       1 ATP         0.1179
     16 O4'        -1.1285    0.2356    2.5840 O.3       1 ATP        -0.3878
     17 C3'         1.0324    0.7610    1.7344 C.3       1 ATP         0.1185
     18 O3'         1.9175    0.2377    2.7247 O.3       1 ATP        -0.5544
     19 C2'         0.4468   -0.3802    0.9263 C.3       1 ATP         0.0542
     20 O2'         1.3993   -1.3703    0.5961 O.3       1 ATP        -0.5831
     21 C1'        -0.6159   -0.9100    1.8769 C.3       1 ATP         0.2222
     22 N9         -1.7127   -1.6108    1.2130 N.pl3     1 ATP        -0.1887
     23 C8         -2.5485   -1.0808    0.2609 C.ar      1 ATP         0.4447
     24 N7         -3.4476   -1.9486   -0.1593 N.2       1 ATP        -0.6159
     25 C5         -3.1762   -3.0816    0.5530 C.ar      1 ATP         0.2195
     26 C6         -3.8510   -4.3579    0.5006 C.ar      1 ATP         0.6144
     27 N6         -4.8468   -4.5293   -0.2961 N.2       1 ATP        -0.8160
     28 N1         -3.2499   -5.2342    1.3937 N.pl3     1 ATP        -0.8611
     29 C2         -2.1646   -4.9275    2.2116 C.ar      1 ATP         0.6141
     30 N3         -1.5382   -3.7840    2.2778 N.2       1 ATP        -0.5913
     31 C4         -2.1054   -2.9018    1.4120 C.ar      1 ATP         0.0067
     32 HOG3       -6.0457    4.3704    4.4734 H         1 ATP         0.4313
     33 HOB2       -2.2824    7.6296    3.0863 H         1 ATP         0.4716
     34 H5'1       -1.9255    2.5382    1.9293 H         1 ATP         0.0452
     35 H5'2       -0.8473    2.1932    0.5521 H         1 ATP         0.0452
     36 H4'         0.0403    1.7078    3.4343 H         1 ATP         0.0998
     37 H3'         1.5906    1.4859    1.1353 H         1 ATP         0.0544
     38 HO3'        2.6839   -0.1150    2.2479 H         1 ATP         0.3961
     39 H2'        -0.0017    0.0018    0.0005 H         1 ATP         0.0499
     40 HO2'        0.9369   -2.0558    0.0825 H         1 ATP         0.4045
     41 H1'        -0.1998   -1.6319    2.6178 H         1 ATP         0.0912
     42 H8         -2.4515   -0.0599   -0.0829 H         1 ATP         0.1090
     43 HN62       -5.1990   -5.4882   -0.2004 H         1 ATP         0.3694
     44 H2         -1.8555   -5.7783    2.8388 H         1 ATP         0.0371
     45 H45        -3.6312   -6.1750    1.4526 H         1 ATP         0.4283
@<TRIPOS>BOND
     1    1    2 2
     2    1    3 1
     3    1    4 1
     4    1    8 1
     5    4   32 1
     6    5    6 2
     7    5    7 1
     8    5    8 1
     9    5   12 1
    10    7   33 1
    11    9   10 2
    12    9   11 1
    13    9   12 1
    14    9   13 1
    15   13   14 1
    16   14   15 1
    17   14   34 1
    18   14   35 1
    19   15   16 1
    20   15   17 1
    21   15   36 1
    22   16   21 1
    23   17   18 1
    24   17   19 1
    25   17   37 1
    26   18   38 1
    27   19   20 1
    28   19   21 1
    29   19   39 1
    30   20   40 1
    31   21   22 1
    32   21   41 1
    33   22   23 ar
    34   22   31 ar
    35   23   24 ar
    36   23   42 1
    37   24   25 ar
    38   25   26 ar
    39   25   31 ar
    40   26   27 2
    41   26   28 ar
    42   27   43 1
    43   28   29 ar
    44   28   45 1
    45   29   30 ar
    46   29   44 1
    47   30   31 ar
@<TRIPOS>SUBSTRUCTURE
     1 ATP         1 GROUP 0 A     ****
@<TRIPOS>MOLECULE
[[[3,4-dihydroxy-5-(6-imino-1~{H}-purin-9-yl)tetrahydrofuran-2-yl]methoxy-oxido-phosphoryl]oxy-hydroxy-phosphoryl] hydrogen phosphate
   45    47     1     0     0
SMALL
USER_CHARGES

@<TRIPOS>ATOM
      1 PG         -4.3756    8.5863    1.8906 P.3       1 ATP         1.5496
      2 O1G        -4.9273    9.0403    0.5574 O.co2     1 ATP        -0.8494
      3 O2G        -3.4467    9.4729    2.6896 O.co2     1 ATP        -0.8494
      4 O3G        -5.6250    8.1492    2.8467 O.3       1 ATP        -0.7845
      5 PB         -2.3658    6.6802    0.8779 P.3       1 ATP         1.9068
      6 O1B        -2.4127    6.9571   -0.5957 O.2       1 ATP        -0.8942
      7 O2B        -1.1560    7.4003    1.6724 O.3       1 ATP        -0.8166
      8 O3B        -3.6831    7.1214    1.7043 O.3       1 ATP        -0.8194
      9 PA         -2.1560    4.4277    2.7709 P.3       1 ATP         1.5903
     10 O1A        -3.4707    4.6479    3.4869 O.co2     1 ATP        -0.8519
     11 O2A        -0.8473    4.8292    3.4158 O.co2     1 ATP        -0.8519
     12 O3A        -2.2360    5.1255    1.2968 O.3       1 ATP        -0.8093
     13 O5'        -2.0402    2.8619    2.3130 O.3       1 ATP        -0.5649
     14 C5'        -0.8811    2.4285    1.6206 C.3       1 ATP         0.1979
     15 C4'        -0.1994    1.3333    2.4288 C.3       1 ATP         0.1179
     16 O4'        -1.1285    0.2356    2.5840 O.3       1 ATP        -0.3878
     17 C3'         1.0324    0.7610    1.7344 C.3       1 ATP         0.1185
     18 O3'         1.9175    0.2377    2.7247 O.3       1 ATP        -0.5544
     19 C2'         0.4468   -0.3802    0.9263 C.3       1 ATP         0.0542
     20 O2'         1.3993   -1.3703    0.5961 O.3       1 ATP        -0.5831
     21 C1'        -0.6159   -0.9100    1.8769 C.3       1 ATP         0.2222
     22 N9         -1.7127   -1.6108    1.2130 N.pl3     1 ATP        -0.1887
     23 C8         -2.0868   -2.9137    1.4327 C.ar      1 ATP         0.4447
     24 N7         -3.1125   -3.2756    0.6878 N.2       1 ATP        -0.6159
     25 C5         -3.4079   -2.1580   -0.0391 C.ar      1 ATP         0.2195
     26 C6         -4.4483   -1.9775   -1.0249 C.ar      1 ATP         0.6144
     27 N6         -5.2418   -2.9492   -1.3113 N.2       1 ATP        -0.8160
     28 N1         -4.3937   -0.6823   -1.5211 N.pl3     1 ATP        -0.8611
     29 C2         -3.4770    0.2901   -1.1271 C.ar      1 ATP         0.6141
     30 N3         -2.5289    0.1525   -0.2403 N.2       1 ATP        -0.5913
     31 C4         -2.5564   -1.1096    0.2655 C.ar      1 ATP         0.0067
     32 HOG3       -5.4293    7.8285    3.7528 H         1 ATP         0.4313
     33 HOB2       -1.0990    8.3796    1.6636 H         1 ATP         0.4716
     34 H5'1       -1.1769    2.0503    0.6369 H         1 ATP         0.0452
     35 H5'2       -0.2081    3.2815    1.4877 H         1 ATP         0.0452
     36 H4'         0.0403    1.7078    3.4343 H         1 ATP         0.0998
     37 H3'         1.5906    1.4859    1.1353 H         1 ATP         0.0544
     38 HO3'        2.1521    0.9800    3.3017 H         1 ATP         0.3961
     39 H2'        -0.0017    0.0018    0.0005 H         1 ATP         0.0499
     40 HO2'        0.9369   -2.0558    0.0825 H         1 ATP         0.4045
     41 H1'        -0.1998   -1.6319    2.6178 H         1 ATP         0.0912
     42 H8         -1.5740   -3.5449    2.1457 H         1 ATP         0.1090
     43 HN62       -5.9117   -2.6433   -2.0256 H         1 ATP         0.3694
     44 H2         -3.6225    1.2454   -1.6553 H         1 ATP         0.0371
     45 H45        -5.0794   -0.4231   -2.2258 H         1 ATP         0.4283
@<TRIPOS>BOND
     1    1    2 2
     2    1    3 1
     3    1    4 1
     4    1    8 1
     5    4   32 1
     6    5    6 2
     7    5    7 1
     8    5    8 1
     9    5   12 1
    10    7   33 1
    11    9   10 2
    12    9   11 1
    13    9   12 1
    14    9   13 1
    15   13   14 1
    16   14   15 1
    17   14   34 1
    18   14   35 1
    19   15   16 1
    20   15   17 1
    21   15   36 1
    22   16   21 1
    23   17   18 1
    24   17   19 1
    25   17   37 1
    26   18   38 1
    27   19   20 1
    28   19   21 1
    29   19   39 1
    30   20   40 1
    31   21   22 1
    32   21   41 1
    33   22   23 ar
    34   22   31 ar
    35   23   24 ar
    36   23   42 1
    37   24   25 ar
    38   25   26 ar
    39   25   31 ar
    40   26   27 2
    41   26   28 ar
    42   27   43 1
    43   28   29 ar
    44   28   45 1
    45   29   30 ar
    46   29   44 1
    47   30   31 ar
@<TRIPOS>SUBSTRUCTURE
     1 ATP         1 GROUP 0 A     ****
@<TRIPOS>MOLECULE
[[[3,4-dihydroxy-5-(6-imino-1~{H}-purin-9-yl)tetrahydrofuran-2-yl]methoxy-oxido-phosphoryl]oxy-hydroxy-phosphoryl] hydrogen phosphate
   45    47     1     0     0
SMALL
USER_CHARGES

@<TRIPOS>ATOM
      1 PG          8.5355    4.4307   -1.0494 P.3       1 ATP         1.5496
      2 O1G         9.8769    5.0659   -1.3407 O.co2     1 ATP        -0.8494
      3 O2G         8.2736    3.7385    0.2696 O.co2     1 ATP        -0.8494
      4 O3G         7.3697    5.5487   -1.2887 O.3       1 ATP        -0.7845
      5 PB          6.7982    2.5899   -2.5631 P.3       1 ATP         1.9068
      6 O1B         5.5678    3.4283   -2.7455 O.2       1 ATP        -0.8942
      7 O2B         7.1840    1.6554   -3.8246 O.3       1 ATP        -0.8166
      8 O3B         8.1567    3.4145   -2.2677 O.3       1 ATP        -0.8194
      9 PA          5.7601    0.3297   -0.9771 P.3       1 ATP         1.5903
     10 O1A         6.0968   -0.2171    0.3931 O.co2     1 ATP        -0.8519
     11 O2A         5.7084   -0.5832   -2.1828 O.co2     1 ATP        -0.8519
     12 O3A         6.7720    1.5662   -1.3137 O.3       1 ATP        -0.8093
     13 O5'         4.3515    1.1574   -0.9027 O.3       1 ATP        -0.5649
     14 C5'         4.0922    1.9801    0.2227 C.3       1 ATP         0.1979
     15 C4'         2.5944    2.0310    0.4653 C.3       1 ATP         0.1179
     16 O4'         1.9327    2.5740   -0.6889 O.3       1 ATP        -0.3878
     17 C3'         1.9685    0.6634    0.6767 C.3       1 ATP         0.1185
     18 O3'         2.1425    0.1975    1.9977 O.3       1 ATP        -0.5544
     19 C2'         0.5176    0.9128    0.3099 C.3       1 ATP         0.0542
     20 O2'        -0.2103    1.4454    1.4152 O.3       1 ATP        -0.5831
     21 C1'         0.6219    1.9765   -0.7844 C.3       1 ATP         0.2222
     22 N9          0.4237    1.4496   -2.1357 N.pl3     1 ATP        -0.1887
     23 C8          1.4069    0.9710   -2.9662 C.ar      1 ATP         0.4447
     24 N7          0.9316    0.5623   -4.1260 N.2       1 ATP        -0.6159
     25 C5         -0.4120    0.7884   -4.0344 C.ar      1 ATP         0.2195
     26 C6         -1.4353    0.5283   -5.0204 C.ar      1 ATP         0.6144
     27 N6         -1.1199    0.0176   -6.1586 N.2       1 ATP        -0.8160
     28 N1         -2.6704    0.9095   -4.5147 N.pl3     1 ATP        -0.8611
     29 C2         -2.8863    1.4571   -3.2520 C.ar      1 ATP         0.6141
     30 N3         -1.9805    1.7017   -2.3442 N.2       1 ATP        -0.5913
     31 C4         -0.7561    1.3381   -2.8112 C.ar      1 ATP         0.0067
     32 HOG3        6.4358    5.2884   -1.1395 H         1 ATP         0.4313
     33 HOB2        6.5406    0.9806   -4.1296 H         1 ATP         0.4716
     34 H5'1        4.6070    1.5617    1.0934 H         1 ATP         0.0452
     35 H5'2        4.4825    2.9836    0.0252 H         1 ATP         0.0452
     36 H4'         2.3751    2.7029    1.3156 H         1 ATP         0.0998
     37 H3'         2.4336   -0.1217   -0.0015 H         1 ATP         0.0544
     38 HO3'        1.7160   -0.6716    2.0397 H         1 ATP         0.3961
     39 H2'         0.0316    0.0155   -0.0339 H         1 ATP         0.0499
     40 HO2'       -0.1608    0.7921    2.1351 H         1 ATP         0.4045
     41 H1'        -0.1474    2.7798   -0.6651 H         1 ATP         0.0912
     42 H8          2.4466    0.9468   -2.6694 H         1 ATP         0.1090
     43 HN62       -1.9661   -0.0965   -6.7275 H         1 ATP         0.3694
     44 H2         -3.9481    1.6825   -3.0660 H         1 ATP         0.0371
     45 H45        -3.4814    0.7753   -5.1133 H         1 ATP         0.4283
@<TRIPOS>BOND
     1    1    2 2
     2    1    3 1
     3    1    4 1
     4    1    8 1
     5    4   32 1
     6    5    6 2
     7    5    7 1
     8    5    8 1
     9    5   12 1
    10    7   33 1
    11    9   10 2
    12    9   11 1
    13    9   12 1
    14    9   13 1
    15   13   14 1
    16   14   15 1
    17   14   34 1
    18   14   35 1
    19   15   16 1
    20   15   17 1
    21   15   36 1
    22   16   21 1
    23   17   18 1
    24   17   19 1
    25   17   37 1
    26   18   38 1
    27   19   20 1
    28   19   21 1
    29   19   39 1
    30   20   40 1
    31   21   22 1
    32   21   41 1
    33   22   23 ar
    34   22   31 ar
    35   23   24 ar
    36   23   42 1
    37   24   25 ar
    38   25   26 ar
    39   25   31 ar
    40   26   27 2
    41   26   28 ar
    42   27   43 1
    43   28   29 ar
    44   28   45 1
    45   29   30 ar
    46   29   44 1
    47   30   31 ar
@<TRIPOS>SUBSTRUCTURE
     1 ATP         1 GROUP 0 A     ****
@<TRIPOS>MOLECULE
[[[3,4-dihydroxy-5-(6-imino-1~{H}-purin-9-yl)tetrahydrofuran-2-yl]methoxy-oxido-phosphoryl]oxy-hydroxy-phosphoryl] hydrogen phosphate
   45    47     1     0     0
SMALL
USER_CHARGES

@<TRIPOS>ATOM
      1 PG         -4.2830    7.6293   -0.2606 P.3       1 ATP         1.5496
      2 O1G        -5.1893    7.2791   -1.4198 O.co2     1 ATP        -0.8494
      3 O2G        -3.6167    8.9845   -0.1772 O.co2     1 ATP        -0.8494
      4 O3G        -5.0955    7.3647    1.1308 O.3       1 ATP        -0.7845
      5 PB         -1.9293    6.0562   -1.0871 P.3       1 ATP         1.9068
      6 O1B        -2.3344    5.6203   -2.4642 O.2       1 ATP        -0.8942
      7 O2B        -0.9462    7.3385   -1.0357 O.3       1 ATP        -0.8166
      8 O3B        -3.1478    6.4682   -0.1082 O.3       1 ATP        -0.8194
      9 PA         -0.5789    5.0299    1.3262 P.3       1 ATP         1.5903
     10 O1A        -1.7340    5.2037    2.2883 O.co2     1 ATP        -0.8519
     11 O2A         0.5845    5.9975    1.3317 O.co2     1 ATP        -0.8519
     12 O3A        -1.1683    4.9458   -0.1942 O.3       1 ATP        -0.8093
     13 O5'         0.0180    3.5131    1.4595 O.3       1 ATP        -0.5649
     14 C5'        -0.8811    2.4285    1.6206 C.3       1 ATP         0.1979
     15 C4'        -0.1994    1.3333    2.4288 C.3       1 ATP         0.1179
     16 O4'        -1.1285    0.2356    2.5840 O.3       1 ATP        -0.3878
     17 C3'         1.0324    0.7610    1.7344 C.3       1 ATP         0.1185
     18 O3'         1.9175    0.2377    2.7247 O.3       1 ATP        -0.5544
     19 C2'         0.4468   -0.3802    0.9263 C.3       1 ATP         0.0542
     20 O2'         1.3993   -1.3703    0.5961 O.3       1 ATP        -0.5831
     21 C1'        -0.6159   -0.9100    1.8769 C.3       1 ATP         0.2222
     22 N9         -1.7127   -1.6108    1.2130 N.pl3     1 ATP        -0.1887
     23 C8         -2.8662   -1.0361    0.7388 C.ar      1 ATP         0.4447
     24 N7         -3.6774   -1.9166    0.1867 N.2       1 ATP        -0.6159
     25 C5         -3.0159   -3.1045    0.3123 C.ar      1 ATP         0.2195
     26 C6         -3.4377   -4.4169   -0.1199 C.ar      1 ATP         0.6144
     27 N6         -4.5720   -4.5691   -0.7080 N.2       1 ATP        -0.8160
     28 N1         -2.4600   -5.3463    0.2071 N.pl3     1 ATP        -0.8611
     29 C2         -1.2595   -5.0554    0.8515 C.ar      1 ATP         0.6141
     30 N3         -0.8555   -3.8803    1.2516 N.2       1 ATP        -0.5913
     31 C4         -1.7946   -2.9457    0.9448 C.ar      1 ATP         0.0067
     32 HOG3       -5.4189    6.4575    1.3171 H         1 ATP         0.4313
     33 HOB2       -1.2536    8.1877   -1.4185 H         1 ATP         0.4716
     34 H5'1       -1.7770    2.7851    2.1387 H         1 ATP         0.0452
     35 H5'2       -1.1653    2.0543    0.6320 H         1 ATP         0.0452
     36 H4'         0.0403    1.7078    3.4343 H         1 ATP         0.0998
     37 H3'         1.5906    1.4859    1.1353 H         1 ATP         0.0544
     38 HO3'        2.1521    0.9800    3.3017 H         1 ATP         0.3961
     39 H2'        -0.0017    0.0018    0.0005 H         1 ATP         0.0499
     40 HO2'        0.9369   -2.0558    0.0825 H         1 ATP         0.4045
     41 H1'        -0.1998   -1.6319    2.6178 H         1 ATP         0.0912
     42 H8         -3.0558    0.0252    0.8256 H         1 ATP         0.1090
     43 HN62       -4.7047   -5.5592   -0.9421 H         1 ATP         0.3694
     44 H2         -0.6372   -5.9505    1.0077 H         1 ATP         0.0371
     45 H45        -2.6338   -6.3155   -0.0469 H         1 ATP         0.4283
@<TRIPOS>BOND
     1    1    2 2
     2    1    3 1
     3    1    4 1
     4    1    8 1
     5    4   32 1
     6    5    6 2
     7    5    7 1
     8    5    8 1
     9    5   12 1
    10    7   33 1
    11    9   10 2
    12    9   11 1
    13    9   12 1
    14    9   13 1
    15   13   14 1
    16   14   15 1
    17   14   34 1
    18   14   35 1
    19   15   16 1
    20   15   17 1
    21   15   36 1
    22   16   21 1
    23   17   18 1
    24   17   19 1
    25   17   37 1
    26   18   38 1
    27   19   20 1
    28   19   21 1
    29   19   39 1
    30   20   40 1
    31   21   22 1
    32   21   41 1
    33   22   23 ar
    34   22   31 ar
    35   23   24 ar
    36   23   42 1
    37   24   25 ar
    38   25   26 ar
    39   25   31 ar
    40   26   27 2
    41   26   28 ar
    42   27   43 1
    43   28   29 ar
    44   28   45 1
    45   29   30 ar
    46   29   44 1
    47   30   31 ar
@<TRIPOS>SUBSTRUCTURE
     1 ATP         1 GROUP 0 A     ****
@<TRIPOS>MOLECULE
[[[3,4-dihydroxy-5-(6-imino-1~{H}-purin-9-yl)tetrahydrofuran-2-yl]methoxy-oxido-phosphoryl]oxy-hydroxy-phosphoryl] hydrogen phosphate
   45    47     1     0     0
SMALL
USER_CHARGES

@<TRIPOS>ATOM
      1 PG         -0.0648    7.3759   -3.3853 P.3       1 ATP         1.5496
      2 O1G        -1.2715    8.2685   -3.5717 O.co2     1 ATP        -0.8494
      3 O2G         0.5122    6.5971   -4.5463 O.co2     1 ATP        -0.8494
      4 O3G         1.1311    8.2563   -2.7063 O.3       1 ATP        -0.7845
      5 PB         -1.4126    5.1413   -2.0113 P.3       1 ATP         1.9068
      6 O1B        -2.8534    5.5349   -2.1512 O.2       1 ATP        -0.8942
      7 O2B        -0.8921    4.0523   -3.0869 O.3       1 ATP        -0.8166
      8 O3B        -0.3508    6.3525   -2.1481 O.3       1 ATP        -0.8194
      9 PA          0.4529    3.9703   -0.0492 P.3       1 ATP         1.5903
     10 O1A         1.4112    5.1385    0.0342 O.co2     1 ATP        -0.8519
     11 O2A         0.8147    2.7278   -0.8334 O.co2     1 ATP        -0.8519
     12 O3A        -0.9915    4.5116   -0.5846 O.3       1 ATP        -0.8093
     13 O5'         0.0180    3.5131    1.4595 O.3       1 ATP        -0.5649
     14 C5'        -0.8811    2.4285    1.6206 C.3       1 ATP         0.1979
     15 C4'        -0.1994    1.3333    2.4288 C.3       1 ATP         0.1179
     16 O4'        -1.1285    0.2356    2.5840 O.3       1 ATP        -0.3878
     17 C3'         1.0324    0.7610    1.7344 C.3       1 ATP         0.1185
     18 O3'         1.9175    0.2377    2.7247 O.3       1 ATP        -0.5544
     19 C2'         0.4468   -0.3802    0.9263 C.3       1 ATP         0.0542
     20 O2'         1.3993   -1.3703    0.5961 O.3       1 ATP        -0.5831
     21 C1'        -0.6159   -0.9100    1.8769 C.3       1 ATP         0.2222
     22 N9         -1.7127   -1.6108    1.2130 N.pl3     1 ATP        -0.1887
     23 C8         -1.7690   -2.9583    0.9549 C.ar      1 ATP         0.4447
     24 N7         -2.8827   -3.3076    0.3418 N.2       1 ATP        -0.6159
     25 C5         -3.5683   -2.1351    0.2017 C.ar      1 ATP         0.2195
     26 C6         -4.8617   -1.9185   -0.4044 C.ar      1 ATP         0.6144
     27 N6         -5.5166   -2.9094   -0.8994 N.2       1 ATP        -0.8160
     28 N1         -5.1836   -0.5701   -0.3344 N.pl3     1 ATP        -0.8611
     29 C2         -4.3821    0.4180    0.2330 C.ar      1 ATP         0.6141
     30 N3         -3.2117    0.2488    0.7860 N.2       1 ATP        -0.5913
     31 C4         -2.8672   -1.0657    0.7327 C.ar      1 ATP         0.0067
     32 HOG3        1.9873    7.8153   -2.5202 H         1 ATP         0.4313
     33 HOB2       -0.9350    4.2709   -4.0422 H         1 ATP         0.4716
     34 H5'1       -1.7770    2.7851    2.1387 H         1 ATP         0.0452
     35 H5'2       -1.1653    2.0543    0.6320 H         1 ATP         0.0452
     36 H4'         0.0403    1.7078    3.4343 H         1 ATP         0.0998
     37 H3'         1.5906    1.4859    1.1353 H         1 ATP         0.0544
     38 HO3'        2.6839   -0.1150    2.2479 H         1 ATP         0.3961
     39 H2'        -0.0017    0.0018    0.0005 H         1 ATP         0.0499
     40 HO2'        2.0953   -0.9375    0.0709 H         1 ATP         0.4045
     41 H1'        -0.1998   -1.6319    2.6178 H         1 ATP         0.0912
     42 H8         -0.9697   -3.6300    1.2371 H         1 ATP         0.1090
     43 HN62       -6.4060   -2.5723   -1.2840 H         1 ATP         0.3694
     44 H2         -4.8409    1.4176    0.1757 H         1 ATP         0.0371
     45 H45        -6.0768   -0.2826   -0.7263 H         1 ATP         0.4283
@<TRIPOS>BOND
     1    1    2 2
     2    1    3 1
     3    1    4 1
     4    1    8 1
     5    4   32 1
     6    5    6 2
     7    5    7 1
     8    5    8 1
     9    5   12 1
    10    7   33 1
    11    9   10 2
    12    9   11 1
    13    9   12 1
    14    9   13 1
    15   13   14 1
    16   14   15 1
    17   14   34 1
    18   14   35 1
    19   15   16 1
    20   15   17 1
    21   15   36 1
    22   16   21 1
    23   17   18 1
    24   17   19 1
    25   17   37 1
    26   18   38 1
    27   19   20 1
    28   19   21 1
    29   19   39 1
    30   20   40 1
    31   21   22 1
    32   21   41 1
    33   22   23 ar
    34   22   31 ar
    35   23   24 ar
    36   23   42 1
    37   24   25 ar
    38   25   26 ar
    39   25   31 ar
    40   26   27 2
    41   26   28 ar
    42   27   43 1
    43   28   29 ar
    44   28   45 1
    45   29   30 ar
    46   29   44 1
    47   30   31 ar
@<TRIPOS>SUBSTRUCTURE
     1 ATP         1 GROUP 0 A     ****
@<TRIPOS>MOLECULE
[[[3,4-dihydroxy-5-(6-imino-1~{H}-purin-9-yl)tetrahydrofuran-2-yl]methoxy-oxido-phosphoryl]oxy-hydroxy-phosphoryl] hydrogen phosphate
   45    47     1     0     0
SMALL
USER_CHARGES

@<TRIPOS>ATOM
      1 PG         -2.4217    4.6431    8.2758 P.3       1 ATP         1.5496
      2 O1G        -1.8475    6.0237    8.5034 O.co2     1 ATP        -0.8494
      3 O2G        -2.1069    3.5051    9.2211 O.co2     1 ATP        -0.8494
      4 O3G        -4.0440    4.7721    8.1420 O.3       1 ATP        -0.7845
      5 PB         -0.6713    3.8305    6.0456 P.3       1 ATP         1.9068
      6 O1B         0.3261    4.9509    6.0301 O.2       1 ATP        -0.8942
      7 O2B        -0.1831    2.4887    6.8037 O.3       1 ATP        -0.8166
      8 O3B        -2.0847    4.1757    6.7500 O.3       1 ATP        -0.8194
      9 PA         -1.9154    4.0917    3.3839 P.3       1 ATP         1.5903
     10 O1A        -0.9828    5.1481    2.8324 O.co2     1 ATP        -0.8519
     11 O2A        -3.3086    4.4564    3.8487 O.co2     1 ATP        -0.8519
     12 O3A        -1.1597    3.3045    4.5985 O.3       1 ATP        -0.8093
     13 O5'        -2.0402    2.8619    2.3130 O.3       1 ATP        -0.5649
     14 C5'        -0.8811    2.4285    1.6206 C.3       1 ATP         0.1979
     15 C4'        -0.1994    1.3333    2.4288 C.3       1 ATP         0.1179
     16 O4'        -1.1285    0.2356    2.5840 O.3       1 ATP        -0.3878
     17 C3'         1.0324    0.7610    1.7344 C.3       1 ATP         0.1185
     18 O3'         1.9175    0.2377    2.7247 O.3       1 ATP        -0.5544
     19 C2'         0.4468   -0.3802    0.9263 C.3       1 ATP         0.0542
     20 O2'         1.3993   -1.3703    0.5961 O.3       1 ATP        -0.5831
     21 C1'        -0.6159   -0.9100    1.8769 C.3       1 ATP         0.2222
     22 N9         -1.7127   -1.6108    1.2130 N.pl3     1 ATP        -0.1887
     23 C8         -2.5485   -1.0808    0.2609 C.ar      1 ATP         0.4447
     24 N7         -3.4476   -1.9486   -0.1593 N.2       1 ATP        -0.6159
     25 C5         -3.1762   -3.0816    0.5530 C.ar      1 ATP         0.2195
     26 C6         -3.8510   -4.3579    0.5006 C.ar      1 ATP         0.6144
     27 N6         -4.8468   -4.5293   -0.2961 N.2       1 ATP        -0.8160
     28 N1         -3.2499   -5.2342    1.3937 N.pl3     1 ATP        -0.8611
     29 C2         -2.1646   -4.9275    2.2116 C.ar      1 ATP         0.6141
     30 N3         -1.5382   -3.7840    2.2778 N.2       1 ATP        -0.5913
     31 C4         -2.1054   -2.9018    1.4120 C.ar      1 ATP         0.0067
     32 HOG3       -4.5662    3.9557    7.9906 H         1 ATP         0.4313
     33 HOB2        0.6165    2.0235    6.4773 H         1 ATP         0.4716
     34 H5'1       -1.1769    2.0503    0.6369 H         1 ATP         0.0452
     35 H5'2       -0.2081    3.2815    1.4877 H         1 ATP         0.0452
     36 H4'         0.0403    1.7078    3.4343 H         1 ATP         0.0998
     37 H3'         1.5906    1.4859    1.1353 H         1 ATP         0.0544
     38 HO3'        2.6839   -0.1150    2.2479 H         1 ATP         0.3961
     39 H2'        -0.0017    0.0018    0.0005 H         1 ATP         0.0499
     40 HO2'        2.0953   -0.9375    0.0709 H         1 ATP         0.4045
     41 H1'        -0.1998   -1.6319    2.6178 H         1 ATP         0.0912
     42 H8         -2.4515   -0.0599   -0.0829 H         1 ATP         0.1090
     43 HN62       -5.1990   -5.4882   -0.2004 H         1 ATP         0.3694
     44 H2         -1.8555   -5.7783    2.8388 H         1 ATP         0.0371
     45 H45        -3.6312   -6.1750    1.4526 H         1 ATP         0.4283
@<TRIPOS>BOND
     1    1    2 2
     2    1    3 1
     3    1    4 1
     4    1    8 1
     5    4   32 1
     6    5    6 2
     7    5    7 1
     8    5    8 1
     9    5   12 1
    10    7   33 1
    11    9   10 2
    12    9   11 1
    13    9   12 1
    14    9   13 1
    15   13   14 1
    16   14   15 1
    17   14   34 1
    18   14   35 1
    19   15   16 1
    20   15   17 1
    21   15   36 1
    22   16   21 1
    23   17   18 1
    24   17   19 1
    25   17   37 1
    26   18   38 1
    27   19   20 1
    28   19   21 1
    29   19   39 1
    30   20   40 1
    31   21   22 1
    32   21   41 1
    33   22   23 ar
    34   22   31 ar
    35   23   24 ar
    36   23   42 1
    37   24   25 ar
    38   25   26 ar
    39   25   31 ar
    40   26   27 2
    41   26   28 ar
    42   27   43 1
    43   28   29 ar
    44   28   45 1
    45   29   30 ar
    46   29   44 1
    47   30   31 ar
@<TRIPOS>SUBSTRUCTURE
     1 ATP         1 GROUP 0 A     ****
@<TRIPOS>MOLECULE
[[[3,4-dihydroxy-5-(6-imino-1~{H}-purin-9-yl)tetrahydrofuran-2-yl]methoxy-oxido-phosphoryl]oxy-hydroxy-phosphoryl] hydrogen phosphate
   45    47     1     0     0
SMALL
USER_CHARGES

@<TRIPOS>ATOM
      1 PG          8.8166    0.1866    1.5753 P.3       1 ATP         1.5496
      2 O1G        10.2103   -0.3330    1.8495 O.co2     1 ATP        -0.8494
      3 O2G         8.1406   -0.0664    0.2462 O.co2     1 ATP        -0.8494
      4 O3G         7.8271   -0.3303    2.7669 O.3       1 ATP        -0.7845
      5 PB          7.5336    2.8186    1.9282 P.3       1 ATP         1.9068
      6 O1B         6.4530    2.4901    2.9155 O.2       1 ATP        -0.8942
      7 O2B         8.2382    4.2585    2.1371 O.3       1 ATP        -0.8166
      8 O3B         8.7760    1.7850    1.8969 O.3       1 ATP        -0.8194
      9 PA          5.9683    3.7220   -0.4031 P.3       1 ATP         1.5903
     10 O1A         5.8538    3.2295   -1.8294 O.co2     1 ATP        -0.8519
     11 O2A         6.2403    5.1810   -0.1082 O.co2     1 ATP        -0.8519
     12 O3A         7.0883    2.8244    0.3754 O.3       1 ATP        -0.8093
     13 O5'         4.6405    3.2701    0.4379 O.3       1 ATP        -0.5649
     14 C5'         4.0922    1.9801    0.2227 C.3       1 ATP         0.1979
     15 C4'         2.5944    2.0310    0.4653 C.3       1 ATP         0.1179
     16 O4'         1.9327    2.5740   -0.6889 O.3       1 ATP        -0.3878
     17 C3'         1.9685    0.6634    0.6767 C.3       1 ATP         0.1185
     18 O3'         2.1425    0.1975    1.9977 O.3       1 ATP        -0.5544
     19 C2'         0.5176    0.9128    0.3099 C.3       1 ATP         0.0542
     20 O2'        -0.2103    1.4454    1.4152 O.3       1 ATP        -0.5831
     21 C1'         0.6219    1.9765   -0.7844 C.3       1 ATP         0.2222
     22 N9          0.4237    1.4496   -2.1357 N.pl3     1 ATP        -0.1887
     23 C8          1.4069    0.9710   -2.9662 C.ar      1 ATP         0.4447
     24 N7          0.9316    0.5623   -4.1260 N.2       1 ATP        -0.6159
     25 C5         -0.4120    0.7884   -4.0344 C.ar      1 ATP         0.2195
     26 C6         -1.4353    0.5283   -5.0204 C.ar      1 ATP         0.6144
     27 N6         -1.1199    0.0176   -6.1586 N.2       1 ATP        -0.8160
     28 N1         -2.6704    0.9095   -4.5147 N.pl3     1 ATP        -0.8611
     29 C2         -2.8863    1.4571   -3.2520 C.ar      1 ATP         0.6141
     30 N3         -1.9805    1.7017   -2.3442 N.2       1 ATP        -0.5913
     31 C4         -0.7561    1.3381   -2.8112 C.ar      1 ATP         0.0067
     32 HOG3        6.8808   -0.0742    2.7318 H         1 ATP         0.4313
     33 HOB2        7.6867    5.0683    2.0880 H         1 ATP         0.4716
     34 H5'1        4.3029    1.6730   -0.8066 H         1 ATP         0.0452
     35 H5'2        4.5678    1.2739    0.9106 H         1 ATP         0.0452
     36 H4'         2.3751    2.7029    1.3156 H         1 ATP         0.0998
     37 H3'         2.4336   -0.1217   -0.0015 H         1 ATP         0.0544
     38 HO3'        1.7160   -0.6716    2.0397 H         1 ATP         0.3961
     39 H2'         0.0316    0.0155   -0.0339 H         1 ATP         0.0499
     40 HO2'       -0.1608    0.7921    2.1351 H         1 ATP         0.4045
     41 H1'        -0.1474    2.7798   -0.6651 H         1 ATP         0.0912
     42 H8          2.4466    0.9468   -2.6694 H         1 ATP         0.1090
     43 HN62       -1.9661   -0.0965   -6.7275 H         1 ATP         0.3694
     44 H2         -3.9481    1.6825   -3.0660 H         1 ATP         0.0371
     45 H45        -3.4814    0.7753   -5.1133 H         1 ATP         0.4283
@<TRIPOS>BOND
     1    1    2 2
     2    1    3 1
     3    1    4 1
     4    1    8 1
     5    4   32 1
     6    5    6 2
     7    5    7 1
     8    5    8 1
     9    5   12 1
    10    7   33 1
    11    9   10 2
    12    9   11 1
    13    9   12 1
    14    9   13 1
    15   13   14 1
    16   14   15 1
    17   14   34 1
    18   14   35 1
    19   15   16 1
    20   15   17 1
    21   15   36 1
    22   16   21 1
    23   17   18 1
    24   17   19 1
    25   17   37 1
    26   18   38 1
    27   19   20 1
    28   19   21 1
    29   19   39 1
    30   20   40 1
    31   21   22 1
    32   21   41 1
    33   22   23 ar
    34   22   31 ar
    35   23   24 ar
    36   23   42 1
    37   24   25 ar
    38   25   26 ar
    39   25   31 ar
    40   26   27 2
    41   26   28 ar
    42   27   43 1
    43   28   29 ar
    44   28   45 1
    45   29   30 ar
    46   29   44 1
    47   30   31 ar
@<TRIPOS>SUBSTRUCTURE
     1 ATP         1 GROUP 0 A     ****
@<TRIPOS>MOLECULE
[[[3,4-dihydroxy-5-(6-imino-1~{H}-purin-9-yl)tetrahydrofuran-2-yl]methoxy-oxido-phosphoryl]oxy-hydroxy-phosphoryl] hydrogen phosphate
   45    47     1     0     0
SMALL
USER_CHARGES

@<TRIPOS>ATOM
      1 PG         -2.7951    6.2662   -1.9439 P.3       1 ATP         1.5496
      2 O1G        -3.8082    6.0395   -3.0439 O.co2     1 ATP        -0.8494
      3 O2G        -1.5279    5.4437   -1.8732 O.co2     1 ATP        -0.8494
      4 O3G        -2.3882    7.8475   -1.9320 O.3       1 ATP        -0.7845
      5 PB         -3.0125    6.5085    0.9873 P.3       1 ATP         1.9068
      6 O1B        -2.5116    7.9055    1.2059 O.2       1 ATP        -0.8942
      7 O2B        -4.2378    6.0624    1.9430 O.3       1 ATP        -0.8166
      8 O3B        -3.5557    6.1963   -0.5028 O.3       1 ATP        -0.8194
      9 PA         -1.0307    4.9147    2.4817 P.3       1 ATP         1.5903
     10 O1A        -1.9587    4.4110    3.5657 O.co2     1 ATP        -0.8519
     11 O2A        -0.0472    6.0299    2.7624 O.co2     1 ATP        -0.8519
     12 O3A        -1.9214    5.3328    1.1787 O.3       1 ATP        -0.8093
     13 O5'        -0.2061    3.6558    1.8418 O.3       1 ATP        -0.5649
     14 C5'        -0.8811    2.4285    1.6206 C.3       1 ATP         0.1979
     15 C4'        -0.1994    1.3333    2.4288 C.3       1 ATP         0.1179
     16 O4'        -1.1285    0.2356    2.5840 O.3       1 ATP        -0.3878
     17 C3'         1.0324    0.7610    1.7344 C.3       1 ATP         0.1185
     18 O3'         1.9175    0.2377    2.7247 O.3       1 ATP        -0.5544
     19 C2'         0.4468   -0.3802    0.9263 C.3       1 ATP         0.0542
     20 O2'         1.3993   -1.3703    0.5961 O.3       1 ATP        -0.5831
     21 C1'        -0.6159   -0.9100    1.8769 C.3       1 ATP         0.2222
     22 N9         -1.7127   -1.6108    1.2130 N.pl3     1 ATP        -0.1887
     23 C8         -2.5485   -1.0808    0.2609 C.ar      1 ATP         0.4447
     24 N7         -3.4476   -1.9486   -0.1593 N.2       1 ATP        -0.6159
     25 C5         -3.1762   -3.0816    0.5530 C.ar      1 ATP         0.2195
     26 C6         -3.8510   -4.3579    0.5006 C.ar      1 ATP         0.6144
     27 N6         -4.8468   -4.5293   -0.2961 N.2       1 ATP        -0.8160
     28 N1         -3.2499   -5.2342    1.3937 N.pl3     1 ATP        -0.8611
     29 C2         -2.1646   -4.9275    2.2116 C.ar      1 ATP         0.6141
     30 N3         -1.5382   -3.7840    2.2778 N.2       1 ATP        -0.5913
     31 C4         -2.1054   -2.9018    1.4120 C.ar      1 ATP         0.0067
     32 HOG3       -1.7344    8.1562   -1.2691 H         1 ATP         0.4313
     33 HOB2       -4.1066    6.0647    2.9151 H         1 ATP         0.4716
     34 H5'1       -1.9255    2.5382    1.9293 H         1 ATP         0.0452
     35 H5'2       -0.8473    2.1932    0.5521 H         1 ATP         0.0452
     36 H4'         0.0403    1.7078    3.4343 H         1 ATP         0.0998
     37 H3'         1.5906    1.4859    1.1353 H         1 ATP         0.0544
     38 HO3'        2.6839   -0.1150    2.2479 H         1 ATP         0.3961
     39 H2'        -0.0017    0.0018    0.0005 H         1 ATP         0.0499
     40 HO2'        2.0953   -0.9375    0.0709 H         1 ATP         0.4045
     41 H1'        -0.1998   -1.6319    2.6178 H         1 ATP         0.0912
     42 H8         -2.4515   -0.0599   -0.0829 H         1 ATP         0.1090
     43 HN62       -5.1990   -5.4882   -0.2004 H         1 ATP         0.3694
     44 H2         -1.8555   -5.7783    2.8388 H         1 ATP         0.0371
     45 H45        -3.6312   -6.1750    1.4526 H         1 ATP         0.4283
@<TRIPOS>BOND
     1    1    2 2
     2    1    3 1
     3    1    4 1
     4    1    8 1
     5    4   32 1
     6    5    6 2
     7    5    7 1
     8    5    8 1
     9    5   12 1
    10    7   33 1
    11    9   10 2
    12    9   11 1
    13    9   12 1
    14    9   13 1
    15   13   14 1
    16   14   15 1
    17   14   34 1
    18   14   35 1
    19   15   16 1
    20   15   17 1
    21   15   36 1
    22   16   21 1
    23   17   18 1
    24   17   19 1
    25   17   37 1
    26   18   38 1
    27   19   20 1
    28   19   21 1
    29   19   39 1
    30   20   40 1
    31   21   22 1
    32   21   41 1
    33   22   23 ar
    34   22   31 ar
    35   23   24 ar
    36   23   42 1
    37   24   25 ar
    38   25   26 ar
    39   25   31 ar
    40   26   27 2
    41   26   28 ar
    42   27   43 1
    43   28   29 ar
    44   28   45 1
    45   29   30 ar
    46   29   44 1
    47   30   31 ar
@<TRIPOS>SUBSTRUCTURE
     1 ATP         1 GROUP 0 A     ****
@<TRIPOS>MOLECULE
[[[3,4-dihydroxy-5-(6-imino-1~{H}-purin-9-yl)tetrahydrofuran-2-yl]methoxy-oxido-phosphoryl]oxy-hydroxy-phosphoryl] hydrogen phosphate
   45    47     1     0     0
SMALL
USER_CHARGES

@<TRIPOS>ATOM
      1 PG          0.9921    3.7401    6.4598 P.3       1 ATP         1.5496
      2 O1G         2.1089    4.7060    6.7876 O.co2     1 ATP        -0.8494
      3 O2G         1.1716    2.6752    5.4010 O.co2     1 ATP        -0.8494
      4 O3G         0.5074    3.0197    7.8427 O.3       1 ATP        -0.7845
      5 PB         -0.7090    5.5862    4.9118 P.3       1 ATP         1.9068
      6 O1B        -2.0796    6.1947    4.9509 O.2       1 ATP        -0.8942
      7 O2B         0.5118    6.6460    4.9235 O.3       1 ATP        -0.8166
      8 O3B        -0.3624    4.5891    6.1359 O.3       1 ATP        -0.8194
      9 PA         -0.3961    4.9845    2.0411 P.3       1 ATP         1.5903
     10 O1A         0.7136    5.9718    1.7518 O.co2     1 ATP        -0.8519
     11 O2A        -1.8198    5.2756    1.6189 O.co2     1 ATP        -0.8519
     12 O3A        -0.3946    4.6439    3.6380 O.3       1 ATP        -0.8093
     13 O5'         0.0180    3.5131    1.4595 O.3       1 ATP        -0.5649
     14 C5'        -0.8811    2.4285    1.6206 C.3       1 ATP         0.1979
     15 C4'        -0.1994    1.3333    2.4288 C.3       1 ATP         0.1179
     16 O4'        -1.1285    0.2356    2.5840 O.3       1 ATP        -0.3878
     17 C3'         1.0324    0.7610    1.7344 C.3       1 ATP         0.1185
     18 O3'         1.9175    0.2377    2.7247 O.3       1 ATP        -0.5544
     19 C2'         0.4468   -0.3802    0.9263 C.3       1 ATP         0.0542
     20 O2'         1.3993   -1.3703    0.5961 O.3       1 ATP        -0.5831
     21 C1'        -0.6159   -0.9100    1.8769 C.3       1 ATP         0.2222
     22 N9         -1.7127   -1.6108    1.2130 N.pl3     1 ATP        -0.1887
     23 C8         -2.8662   -1.0361    0.7388 C.ar      1 ATP         0.4447
     24 N7         -3.6774   -1.9166    0.1867 N.2       1 ATP        -0.6159
     25 C5         -3.0159   -3.1045    0.3123 C.ar      1 ATP         0.2195
     26 C6         -3.4377   -4.4169   -0.1199 C.ar      1 ATP         0.6144
     27 N6         -4.5720   -4.5691   -0.7080 N.2       1 ATP        -0.8160
     28 N1         -2.4600   -5.3463    0.2071 N.pl3     1 ATP        -0.8611
     29 C2         -1.2595   -5.0554    0.8515 C.ar      1 ATP         0.6141
     30 N3         -0.8555   -3.8803    1.2516 N.2       1 ATP        -0.5913
     31 C4         -1.7946   -2.9457    0.9448 C.ar      1 ATP         0.0067
     32 HOG3       -0.2172    2.3602    7.7962 H         1 ATP         0.4313
     33 HOB2        1.4328    6.3091    4.8993 H         1 ATP         0.4716
     34 H5'1       -1.7770    2.7851    2.1387 H         1 ATP         0.0452
     35 H5'2       -1.1653    2.0543    0.6320 H         1 ATP         0.0452
     36 H4'         0.0403    1.7078    3.4343 H         1 ATP         0.0998
     37 H3'         1.5906    1.4859    1.1353 H         1 ATP         0.0544
     38 HO3'        2.1521    0.9800    3.3017 H         1 ATP         0.3961
     39 H2'        -0.0017    0.0018    0.0005 H         1 ATP         0.0499
     40 HO2'        0.9369   -2.0558    0.0825 H         1 ATP         0.4045
     41 H1'        -0.1998   -1.6319    2.6178 H         1 ATP         0.0912
     42 H8         -3.0558    0.0252    0.8256 H         1 ATP         0.1090
     43 HN62       -4.7047   -5.5592   -0.9421 H         1 ATP         0.3694
     44 H2         -0.6372   -5.9505    1.0077 H         1 ATP         0.0371
     45 H45        -2.6338   -6.3155   -0.0469 H         1 ATP         0.4283
@<TRIPOS>BOND
     1    1    2 2
     2    1    3 1
     3    1    4 1
     4    1    8 1
     5    4   32 1
     6    5    6 2
     7    5    7 1
     8    5    8 1
     9    5   12 1
    10    7   33 1
    11    9   10 2
    12    9   11 1
    13    9   12 1
    14    9   13 1
    15   13   14 1
    16   14   15 1
    17   14   34 1
    18   14   35 1
    19   15   16 1
    20   15   17 1
    21   15   36 1
    22   16   21 1
    23   17   18 1
    24   17   19 1
    25   17   37 1
    26   18   38 1
    27   19   20 1
    28   19   21 1
    29   19   39 1
    30   20   40 1
    31   21   22 1
    32   21   41 1
    33   22   23 ar
    34   22   31 ar
    35   23   24 ar
    36   23   42 1
    37   24   25 ar
    38   25   26 ar
    39   25   31 ar
    40   26   27 2
    41   26   28 ar
    42   27   43 1
    43   28   29 ar
    44   28   45 1
    45   29   30 ar
    46   29   44 1
    47   30   31 ar
@<TRIPOS>SUBSTRUCTURE
     1 ATP         1 GROUP 0 A     ****
@<TRIPOS>MOLECULE
[[[3,4-dihydroxy-5-(6-imino-1~{H}-purin-9-yl)tetrahydrofuran-2-yl]methoxy-oxido-phosphoryl]oxy-hydroxy-phosphoryl] hydrogen phosphate
   45    47     1     0     0
SMALL
USER_CHARGES

@<TRIPOS>ATOM
      1 PG         -4.3161    3.5637   -2.1103 P.3       1 ATP         1.5496
      2 O1G        -2.9611    4.0593   -1.6562 O.co2     1 ATP        -0.8494
      3 O2G        -5.4821    4.5155   -2.2577 O.co2     1 ATP        -0.8494
      4 O3G        -4.1273    2.7535   -3.5154 O.3       1 ATP        -0.7845
      5 PB         -5.1473    2.2708    0.4067 P.3       1 ATP         1.9068
      6 O1B        -6.3150    3.1241    0.8051 O.2       1 ATP        -0.8942
      7 O2B        -5.3140    0.6930    0.7170 O.3       1 ATP        -0.8166
      8 O3B        -4.7659    2.3142   -1.1635 O.3       1 ATP        -0.8194
      9 PA         -3.2889    2.7003    2.6568 P.3       1 ATP         1.5903
     10 O1A        -3.3273    1.2948    3.2162 O.co2     1 ATP        -0.8519
     11 O2A        -4.0474    3.8223    3.3318 O.co2     1 ATP        -0.8519
     12 O3A        -3.7328    2.6541    1.0862 O.3       1 ATP        -0.8093
     13 O5'        -1.7337    3.1724    2.4752 O.3       1 ATP        -0.5649
     14 C5'        -0.8811    2.4285    1.6206 C.3       1 ATP         0.1979
     15 C4'        -0.1994    1.3333    2.4288 C.3       1 ATP         0.1179
     16 O4'        -1.1285    0.2356    2.5840 O.3       1 ATP        -0.3878
     17 C3'         1.0324    0.7610    1.7344 C.3       1 ATP         0.1185
     18 O3'         1.9175    0.2377    2.7247 O.3       1 ATP        -0.5544
     19 C2'         0.4468   -0.3802    0.9263 C.3       1 ATP         0.0542
     20 O2'         1.3993   -1.3703    0.5961 O.3       1 ATP        -0.5831
     21 C1'        -0.6159   -0.9100    1.8769 C.3       1 ATP         0.2222
     22 N9         -1.7127   -1.6108    1.2130 N.pl3     1 ATP        -0.1887
     23 C8         -2.5485   -1.0808    0.2609 C.ar      1 ATP         0.4447
     24 N7         -3.4476   -1.9486   -0.1593 N.2       1 ATP        -0.6159
     25 C5         -3.1762   -3.0816    0.5530 C.ar      1 ATP         0.2195
     26 C6         -3.8510   -4.3579    0.5006 C.ar      1 ATP         0.6144
     27 N6         -4.8468   -4.5293   -0.2961 N.2       1 ATP        -0.8160
     28 N1         -3.2499   -5.2342    1.3937 N.pl3     1 ATP        -0.8611
     29 C2         -2.1646   -4.9275    2.2116 C.ar      1 ATP         0.6141
     30 N3         -1.5382   -3.7840    2.2778 N.2       1 ATP        -0.5913
     31 C4         -2.1054   -2.9018    1.4120 C.ar      1 ATP         0.0067
     32 HOG3       -4.9218    2.3671   -3.9416 H         1 ATP         0.4313
     33 HOB2       -5.4501    0.4035    1.6444 H         1 ATP         0.4716
     34 H5'1       -1.4801    1.9928    0.8147 H         1 ATP         0.0452
     35 H5'2       -0.1369    3.1041    1.1872 H         1 ATP         0.0452
     36 H4'         0.0403    1.7078    3.4343 H         1 ATP         0.0998
     37 H3'         1.5906    1.4859    1.1353 H         1 ATP         0.0544
     38 HO3'        2.6839   -0.1150    2.2479 H         1 ATP         0.3961
     39 H2'        -0.0017    0.0018    0.0005 H         1 ATP         0.0499
     40 HO2'        2.0953   -0.9375    0.0709 H         1 ATP         0.4045
     41 H1'        -0.1998   -1.6319    2.6178 H         1 ATP         0.0912
     42 H8         -2.4515   -0.0599   -0.0829 H         1 ATP         0.1090
     43 HN62       -5.1990   -5.4882   -0.2004 H         1 ATP         0.3694
     44 H2         -1.8555   -5.7783    2.8388 H         1 ATP         0.0371
     45 H45        -3.6312   -6.1750    1.4526 H         1 ATP         0.4283
@<TRIPOS>BOND
     1    1    2 2
     2    1    3 1
     3    1    4 1
     4    1    8 1
     5    4   32 1
     6    5    6 2
     7    5    7 1
     8    5    8 1
     9    5   12 1
    10    7   33 1
    11    9   10 2
    12    9   11 1
    13    9   12 1
    14    9   13 1
    15   13   14 1
    16   14   15 1
    17   14   34 1
    18   14   35 1
    19   15   16 1
    20   15   17 1
    21   15   36 1
    22   16   21 1
    23   17   18 1
    24   17   19 1
    25   17   37 1
    26   18   38 1
    27   19   20 1
    28   19   21 1
    29   19   39 1
    30   20   40 1
    31   21   22 1
    32   21   41 1
    33   22   23 ar
    34   22   31 ar
    35   23   24 ar
    36   23   42 1
    37   24   25 ar
    38   25   26 ar
    39   25   31 ar
    40   26   27 2
    41   26   28 ar
    42   27   43 1
    43   28   29 ar
    44   28   45 1
    45   29   30 ar
    46   29   44 1
    47   30   31 ar
@<TRIPOS>SUBSTRUCTURE
     1 ATP         1 GROUP 0 A     ****
@<TRIPOS>MOLECULE
[[[3,4-dihydroxy-5-(6-imino-1~{H}-purin-9-yl)tetrahydrofuran-2-yl]methoxy-oxido-phosphoryl]oxy-hydroxy-phosphoryl] hydrogen phosphate
   45    47     1     0     0
SMALL
USER_CHARGES

@<TRIPOS>ATOM
      1 PG         -0.1514    8.9989    1.8824 P.3       1 ATP         1.5496
      2 O1G        -0.9509    9.9462    2.7490 O.co2     1 ATP        -0.8494
      3 O2G         0.0694    9.2878    0.4143 O.co2     1 ATP        -0.8494
      4 O3G         1.3011    8.7530    2.5866 O.3       1 ATP        -0.7845
      5 PB         -2.1893    6.8870    1.5910 P.3       1 ATP         1.9068
      6 O1B        -3.3883    7.5471    2.2050 O.2       1 ATP        -0.8942
      7 O2B        -2.1326    6.9347   -0.0239 O.3       1 ATP        -0.8166
      8 O3B        -0.7611    7.4946    2.0426 O.3       1 ATP        -0.8194
      9 PA         -2.9646    4.0417    1.6588 P.3       1 ATP         1.5903
     10 O1A        -3.0698    3.8297    0.1641 O.co2     1 ATP        -0.8519
     11 O2A        -4.2080    4.1930    2.5078 O.co2     1 ATP        -0.8519
     12 O3A        -1.9921    5.3225    1.9416 O.3       1 ATP        -0.8093
     13 O5'        -2.0402    2.8619    2.3130 O.3       1 ATP        -0.5649
     14 C5'        -0.8811    2.4285    1.6206 C.3       1 ATP         0.1979
     15 C4'        -0.1994    1.3333    2.4288 C.3       1 ATP         0.1179
     16 O4'        -1.1285    0.2356    2.5840 O.3       1 ATP        -0.3878
     17 C3'         1.0324    0.7610    1.7344 C.3       1 ATP         0.1185
     18 O3'         1.9175    0.2377    2.7247 O.3       1 ATP        -0.5544
     19 C2'         0.4468   -0.3802    0.9263 C.3       1 ATP         0.0542
     20 O2'         1.3993   -1.3703    0.5961 O.3       1 ATP        -0.5831
     21 C1'        -0.6159   -0.9100    1.8769 C.3       1 ATP         0.2222
     22 N9         -1.7127   -1.6108    1.2130 N.pl3     1 ATP        -0.1887
     23 C8         -1.6202   -2.3321    0.0482 C.ar      1 ATP         0.4447
     24 N7         -2.7754   -2.8539   -0.3142 N.2       1 ATP        -0.6159
     25 C5         -3.6439   -2.4502    0.6592 C.ar      1 ATP         0.2195
     26 C6         -5.0563   -2.7308    0.7745 C.ar      1 ATP         0.6144
     27 N6         -5.6468   -3.4480   -0.1158 N.2       1 ATP        -0.8160
     28 N1         -5.5549   -2.1241    1.9191 N.pl3     1 ATP        -0.8611
     29 C2         -4.8068   -1.3637    2.8153 C.ar      1 ATP         0.6141
     30 N3         -3.5318   -1.0957    2.7338 N.2       1 ATP        -0.5913
     31 C4         -3.0130   -1.6778    1.6196 C.ar      1 ATP         0.0067
     32 HOG3        1.9403    8.1564    2.1420 H         1 ATP         0.4313
     33 HOB2       -2.8586    6.5196   -0.5367 H         1 ATP         0.4716
     34 H5'1       -1.1769    2.0503    0.6369 H         1 ATP         0.0452
     35 H5'2       -0.2081    3.2815    1.4877 H         1 ATP         0.0452
     36 H4'         0.0403    1.7078    3.4343 H         1 ATP         0.0998
     37 H3'         1.5906    1.4859    1.1353 H         1 ATP         0.0544
     38 HO3'        2.1521    0.9800    3.3017 H         1 ATP         0.3961
     39 H2'        -0.0017    0.0018    0.0005 H         1 ATP         0.0499
     40 HO2'        2.0953   -0.9375    0.0709 H         1 ATP         0.4045
     41 H1'        -0.1998   -1.6319    2.6178 H         1 ATP         0.0912
     42 H8         -0.6865   -2.4395   -0.4871 H         1 ATP         0.1090
     43 HN62       -6.6394   -3.5426    0.1257 H         1 ATP         0.3694
     44 H2         -5.4125   -0.9811    3.6517 H         1 ATP         0.0371
     45 H45        -6.5442   -2.2475    2.1195 H         1 ATP         0.4283
@<TRIPOS>BOND
     1    1    2 2
     2    1    3 1
     3    1    4 1
     4    1    8 1
     5    4   32 1
     6    5    6 2
     7    5    7 1
     8    5    8 1
     9    5   12 1
    10    7   33 1
    11    9   10 2
    12    9   11 1
    13    9   12 1
    14    9   13 1
    15   13   14 1
    16   14   15 1
    17   14   34 1
    18   14   35 1
    19   15   16 1
    20   15   17 1
    21   15   36 1
    22   16   21 1
    23   17   18 1
    24   17   19 1
    25   17   37 1
    26   18   38 1
    27   19   20 1
    28   19   21 1
    29   19   39 1
    30   20   40 1
    31   21   22 1
    32   21   41 1
    33   22   23 ar
    34   22   31 ar
    35   23   24 ar
    36   23   42 1
    37   24   25 ar
    38   25   26 ar
    39   25   31 ar
    40   26   27 2
    41   26   28 ar
    42   27   43 1
    43   28   29 ar
    44   28   45 1
    45   29   30 ar
    46   29   44 1
    47   30   31 ar
@<TRIPOS>SUBSTRUCTURE
     1 ATP         1 GROUP 0 A     ****
@<TRIPOS>MOLECULE
[[[3,4-dihydroxy-5-(6-imino-1~{H}-purin-9-yl)tetrahydrofuran-2-yl]methoxy-oxido-phosphoryl]oxy-hydroxy-phosphoryl] hydrogen phosphate
   45    47     1     0     0
SMALL
USER_CHARGES

@<TRIPOS>ATOM
      1 PG          4.0362    3.2809    6.3923 P.3       1 ATP         1.5496
      2 O1G         3.8716    4.6586    6.9944 O.co2     1 ATP        -0.8494
      3 O2G         5.0830    2.3237    6.9171 O.co2     1 ATP        -0.8494
      4 O3G         2.5872    2.5285    6.4161 O.3       1 ATP        -0.7845
      5 PB          5.4074    4.0783    3.9061 P.3       1 ATP         1.9068
      6 O1B         5.6727    5.5313    4.1683 O.2       1 ATP        -0.8942
      7 O2B         6.6598    3.0929    4.1785 O.3       1 ATP        -0.8166
      8 O3B         4.2115    3.4278    4.7775 O.3       1 ATP        -0.8194
      9 PA          5.6978    3.9302    0.9743 P.3       1 ATP         1.5903
     10 O1A         6.9409    3.0679    0.9420 O.co2     1 ATP        -0.8519
     11 O2A         5.7807    5.4170    0.7058 O.co2     1 ATP        -0.8519
     12 O3A         4.9409    3.7092    2.4042 O.3       1 ATP        -0.8093
     13 O5'         4.5669    3.2939   -0.0211 O.3       1 ATP        -0.5649
     14 C5'         4.0922    1.9801    0.2227 C.3       1 ATP         0.1979
     15 C4'         2.5944    2.0310    0.4653 C.3       1 ATP         0.1179
     16 O4'         1.9327    2.5740   -0.6889 O.3       1 ATP        -0.3878
     17 C3'         1.9685    0.6634    0.6767 C.3       1 ATP         0.1185
     18 O3'         2.1425    0.1975    1.9977 O.3       1 ATP        -0.5544
     19 C2'         0.5176    0.9128    0.3099 C.3       1 ATP         0.0542
     20 O2'        -0.2103    1.4454    1.4152 O.3       1 ATP        -0.5831
     21 C1'         0.6219    1.9765   -0.7844 C.3       1 ATP         0.2222
     22 N9          0.4237    1.4496   -2.1357 N.pl3     1 ATP        -0.1887
     23 C8          1.4069    0.9710   -2.9662 C.ar      1 ATP         0.4447
     24 N7          0.9316    0.5623   -4.1260 N.2       1 ATP        -0.6159
     25 C5         -0.4120    0.7884   -4.0344 C.ar      1 ATP         0.2195
     26 C6         -1.4353    0.5283   -5.0204 C.ar      1 ATP         0.6144
     27 N6         -1.1199    0.0176   -6.1586 N.2       1 ATP        -0.8160
     28 N1         -2.6704    0.9095   -4.5147 N.pl3     1 ATP        -0.8611
     29 C2         -2.8863    1.4571   -3.2520 C.ar      1 ATP         0.6141
     30 N3         -1.9805    1.7017   -2.3442 N.2       1 ATP        -0.5913
     31 C4         -0.7561    1.3381   -2.8112 C.ar      1 ATP         0.0067
     32 HOG3        2.5283    1.6177    6.0566 H         1 ATP         0.4313
     33 HOB2        7.4883    3.2270    3.6707 H         1 ATP         0.4716
     34 H5'1        4.3180    1.3550   -0.6470 H         1 ATP         0.0452
     35 H5'2        4.6084    1.5739    1.0983 H         1 ATP         0.0452
     36 H4'         2.3751    2.7029    1.3156 H         1 ATP         0.0998
     37 H3'         2.4336   -0.1217   -0.0015 H         1 ATP         0.0544
     38 HO3'        1.7160   -0.6716    2.0397 H         1 ATP         0.3961
     39 H2'         0.0316    0.0155   -0.0339 H         1 ATP         0.0499
     40 HO2'       -0.1608    0.7921    2.1351 H         1 ATP         0.4045
     41 H1'        -0.1474    2.7798   -0.6651 H         1 ATP         0.0912
     42 H8          2.4466    0.9468   -2.6694 H         1 ATP         0.1090
     43 HN62       -1.9661   -0.0965   -6.7275 H         1 ATP         0.3694
     44 H2         -3.9481    1.6825   -3.0660 H         1 ATP         0.0371
     45 H45        -3.4814    0.7753   -5.1133 H         1 ATP         0.4283
@<TRIPOS>BOND
     1    1    2 2
     2    1    3 1
     3    1    4 1
     4    1    8 1
     5    4   32 1
     6    5    6 2
     7    5    7 1
     8    5    8 1
     9    5   12 1
    10    7   33 1
    11    9   10 2
    12    9   11 1
    13    9   12 1
    14    9   13 1
    15   13   14 1
    16   14   15 1
    17   14   34 1
    18   14   35 1
    19   15   16 1
    20   15   17 1
    21   15   36 1
    22   16   21 1
    23   17   18 1
    24   17   19 1
    25   17   37 1
    26   18   38 1
    27   19   20 1
    28   19   21 1
    29   19   39 1
    30   20   40 1
    31   21   22 1
    32   21   41 1
    33   22   23 ar
    34   22   31 ar
    35   23   24 ar
    36   23   42 1
    37   24   25 ar
    38   25   26 ar
    39   25   31 ar
    40   26   27 2
    41   26   28 ar
    42   27   43 1
    43   28   29 ar
    44   28   45 1
    45   29   30 ar
    46   29   44 1
    47   30   31 ar
@<TRIPOS>SUBSTRUCTURE
     1 ATP         1 GROUP 0 A     ****
@<TRIPOS>MOLECULE
[[[3,4-dihydroxy-5-(6-imino-1~{H}-purin-9-yl)tetrahydrofuran-2-yl]methoxy-oxido-phosphoryl]oxy-hydroxy-phosphoryl] hydrogen phosphate
   45    47     1     0     0
SMALL
USER_CHARGES

@<TRIPOS>ATOM
      1 PG         -1.4621    7.8447   -2.1282 P.3       1 ATP         1.5496
      2 O1G        -2.4294    8.7672   -1.4203 O.co2     1 ATP        -0.8494
      3 O2G        -1.4950    7.6906   -3.6324 O.co2     1 ATP        -0.8494
      4 O3G         0.0567    8.2445   -1.6811 O.3       1 ATP        -0.7845
      5 PB         -2.7395    5.2833   -1.4174 P.3       1 ATP         1.9068
      6 O1B        -4.0174    5.7552   -0.7893 O.2       1 ATP        -0.8942
      7 O2B        -2.8651    4.8185   -2.9606 O.3       1 ATP        -0.8166
      8 O3B        -1.5412    6.3680   -1.4404 O.3       1 ATP        -0.8194
      9 PA         -2.5569    2.5164   -0.4114 P.3       1 ATP         1.5903
     10 O1A        -2.7401    1.8112   -1.7377 O.co2     1 ATP        -0.8519
     11 O2A        -3.6908    2.5912    0.5879 O.co2     1 ATP        -0.8519
     12 O3A        -2.0197    4.0327   -0.6912 O.3       1 ATP        -0.8093
     13 O5'        -1.2434    1.9102    0.3514 O.3       1 ATP        -0.5649
     14 C5'        -0.8811    2.4285    1.6206 C.3       1 ATP         0.1979
     15 C4'        -0.1994    1.3333    2.4288 C.3       1 ATP         0.1179
     16 O4'        -1.1285    0.2356    2.5840 O.3       1 ATP        -0.3878
     17 C3'         1.0324    0.7610    1.7344 C.3       1 ATP         0.1185
     18 O3'         1.9175    0.2377    2.7247 O.3       1 ATP        -0.5544
     19 C2'         0.4468   -0.3802    0.9263 C.3       1 ATP         0.0542
     20 O2'         1.3993   -1.3703    0.5961 O.3       1 ATP        -0.5831
     21 C1'        -0.6159   -0.9100    1.8769 C.3       1 ATP         0.2222
     22 N9         -1.7127   -1.6108    1.2130 N.pl3     1 ATP        -0.1887
     23 C8         -2.8662   -1.0361    0.7388 C.ar      1 ATP         0.4447
     24 N7         -3.6774   -1.9166    0.1867 N.2       1 ATP        -0.6159
     25 C5         -3.0159   -3.1045    0.3123 C.ar      1 ATP         0.2195
     26 C6         -3.4377   -4.4169   -0.1199 C.ar      1 ATP         0.6144
     27 N6         -4.5720   -4.5691   -0.7080 N.2       1 ATP        -0.8160
     28 N1         -2.4600   -5.3463    0.2071 N.pl3     1 ATP        -0.8611
     29 C2         -1.2595   -5.0554    0.8515 C.ar      1 ATP         0.6141
     30 N3         -0.8555   -3.8803    1.2516 N.2       1 ATP        -0.5913
     31 C4         -1.7946   -2.9457    0.9448 C.ar      1 ATP         0.0067
     32 HOG3        0.8040    7.7331   -2.0582 H         1 ATP         0.4313
     33 HOB2       -3.4691    4.0790   -3.1858 H         1 ATP         0.4716
     34 H5'1       -0.2034    3.2760    1.4767 H         1 ATP         0.0452
     35 H5'2       -1.7842    2.7761    2.1322 H         1 ATP         0.0452
     36 H4'         0.0403    1.7078    3.4343 H         1 ATP         0.0998
     37 H3'         1.5906    1.4859    1.1353 H         1 ATP         0.0544
     38 HO3'        2.6839   -0.1150    2.2479 H         1 ATP         0.3961
     39 H2'        -0.0017    0.0018    0.0005 H         1 ATP         0.0499
     40 HO2'        2.0953   -0.9375    0.0709 H         1 ATP         0.4045
     41 H1'        -0.1998   -1.6319    2.6178 H         1 ATP         0.0912
     42 H8         -3.0558    0.0252    0.8256 H         1 ATP         0.1090
     43 HN62       -4.7047   -5.5592   -0.9421 H         1 ATP         0.3694
     44 H2         -0.6372   -5.9505    1.0077 H         1 ATP         0.0371
     45 H45        -2.6338   -6.3155   -0.0469 H         1 ATP         0.4283
@<TRIPOS>BOND
     1    1    2 2
     2    1    3 1
     3    1    4 1
     4    1    8 1
     5    4   32 1
     6    5    6 2
     7    5    7 1
     8    5    8 1
     9    5   12 1
    10    7   33 1
    11    9   10 2
    12    9   11 1
    13    9   12 1
    14    9   13 1
    15   13   14 1
    16   14   15 1
    17   14   34 1
    18   14   35 1
    19   15   16 1
    20   15   17 1
    21   15   36 1
    22   16   21 1
    23   17   18 1
    24   17   19 1
    25   17   37 1
    26   18   38 1
    27   19   20 1
    28   19   21 1
    29   19   39 1
    30   20   40 1
    31   21   22 1
    32   21   41 1
    33   22   23 ar
    34   22   31 ar
    35   23   24 ar
    36   23   42 1
    37   24   25 ar
    38   25   26 ar
    39   25   31 ar
    40   26   27 2
    41   26   28 ar
    42   27   43 1
    43   28   29 ar
    44   28   45 1
    45   29   30 ar
    46   29   44 1
    47   30   31 ar
@<TRIPOS>SUBSTRUCTURE
     1 ATP         1 GROUP 0 A     ****
@<TRIPOS>MOLECULE
[[[3,4-dihydroxy-5-(6-imino-1~{H}-purin-9-yl)tetrahydrofuran-2-yl]methoxy-oxido-phosphoryl]oxy-hydroxy-phosphoryl] hydrogen phosphate
   45    47     1     0     0
SMALL
USER_CHARGES

@<TRIPOS>ATOM
      1 PG          9.0624    5.8975    0.8676 P.3       1 ATP         1.5496
      2 O1G         8.5147    7.2938    1.0622 O.co2     1 ATP        -0.8494
      3 O2G         9.7280    5.4978   -0.4303 O.co2     1 ATP        -0.8494
      4 O3G        10.0838    5.5654    2.0976 O.3       1 ATP        -0.7845
      5 PB          6.9706    4.6606    2.5386 P.3       1 ATP         1.9068
      6 O1B         7.7181    4.4193    3.8166 O.2       1 ATP        -0.8942
      7 O2B         6.0507    5.9899    2.5232 O.3       1 ATP        -0.8166
      8 O3B         7.8924    4.8173    1.2200 O.3       1 ATP        -0.8194
      9 PA          6.2526    1.9160    1.7306 P.3       1 ATP         1.5903
     10 O1A         6.7151    1.2122    2.9879 O.co2     1 ATP        -0.8519
     11 O2A         7.0779    1.8577    0.4636 O.co2     1 ATP        -0.8519
     12 O3A         5.9625    3.4840    2.0814 O.3       1 ATP        -0.8093
     13 O5'         4.7294    1.4426    1.3698 O.3       1 ATP        -0.5649
     14 C5'         4.0922    1.9801    0.2227 C.3       1 ATP         0.1979
     15 C4'         2.5944    2.0310    0.4653 C.3       1 ATP         0.1179
     16 O4'         1.9327    2.5740   -0.6889 O.3       1 ATP        -0.3878
     17 C3'         1.9685    0.6634    0.6767 C.3       1 ATP         0.1185
     18 O3'         2.1425    0.1975    1.9977 O.3       1 ATP        -0.5544
     19 C2'         0.5176    0.9128    0.3099 C.3       1 ATP         0.0542
     20 O2'        -0.2103    1.4454    1.4152 O.3       1 ATP        -0.5831
     21 C1'         0.6219    1.9765   -0.7844 C.3       1 ATP         0.2222
     22 N9          0.4237    1.4496   -2.1357 N.pl3     1 ATP        -0.1887
     23 C8          1.4069    0.9710   -2.9662 C.ar      1 ATP         0.4447
     24 N7          0.9316    0.5623   -4.1260 N.2       1 ATP        -0.6159
     25 C5         -0.4120    0.7884   -4.0344 C.ar      1 ATP         0.2195
     26 C6         -1.4353    0.5283   -5.0204 C.ar      1 ATP         0.6144
     27 N6         -1.1199    0.0176   -6.1586 N.2       1 ATP        -0.8160
     28 N1         -2.6704    0.9095   -4.5147 N.pl3     1 ATP        -0.8611
     29 C2         -2.8863    1.4571   -3.2520 C.ar      1 ATP         0.6141
     30 N3         -1.9805    1.7017   -2.3442 N.2       1 ATP        -0.5913
     31 C4         -0.7561    1.3381   -2.8112 C.ar      1 ATP         0.0067
     32 HOG3       10.5246    4.6893    2.1146 H         1 ATP         0.4313
     33 HOB2        6.4764    6.8631    2.6593 H         1 ATP         0.4716
     34 H5'1        4.4844    2.9853    0.0382 H         1 ATP         0.0452
     35 H5'2        4.3192    1.3445   -0.6391 H         1 ATP         0.0452
     36 H4'         2.3751    2.7029    1.3156 H         1 ATP         0.0998
     37 H3'         2.4336   -0.1217   -0.0015 H         1 ATP         0.0544
     38 HO3'        3.0987    0.1465    2.1461 H         1 ATP         0.3961
     39 H2'         0.0316    0.0155   -0.0339 H         1 ATP         0.0499
     40 HO2'       -0.1608    0.7921    2.1351 H         1 ATP         0.4045
     41 H1'        -0.1474    2.7798   -0.6651 H         1 ATP         0.0912
     42 H8          2.4466    0.9468   -2.6694 H         1 ATP         0.1090
     43 HN62       -1.9661   -0.0965   -6.7275 H         1 ATP         0.3694
     44 H2         -3.9481    1.6825   -3.0660 H         1 ATP         0.0371
     45 H45        -3.4814    0.7753   -5.1133 H         1 ATP         0.4283
@<TRIPOS>BOND
     1    1    2 2
     2    1    3 1
     3    1    4 1
     4    1    8 1
     5    4   32 1
     6    5    6 2
     7    5    7 1
     8    5    8 1
     9    5   12 1
    10    7   33 1
    11    9   10 2
    12    9   11 1
    13    9   12 1
    14    9   13 1
    15   13   14 1
    16   14   15 1
    17   14   34 1
    18   14   35 1
    19   15   16 1
    20   15   17 1
    21   15   36 1
    22   16   21 1
    23   17   18 1
    24   17   19 1
    25   17   37 1
    26   18   38 1
    27   19   20 1
    28   19   21 1
    29   19   39 1
    30   20   40 1
    31   21   22 1
    32   21   41 1
    33   22   23 ar
    34   22   31 ar
    35   23   24 ar
    36   23   42 1
    37   24   25 ar
    38   25   26 ar
    39   25   31 ar
    40   26   27 2
    41   26   28 ar
    42   27   43 1
    43   28   29 ar
    44   28   45 1
    45   29   30 ar
    46   29   44 1
    47   30   31 ar
@<TRIPOS>SUBSTRUCTURE
     1 ATP         1 GROUP 0 A     ****
@<TRIPOS>MOLECULE
[[[3,4-dihydroxy-5-(6-imino-1~{H}-purin-9-yl)tetrahydrofuran-2-yl]methoxy-oxido-phosphoryl]oxy-hydroxy-phosphoryl] hydrogen phosphate
   45    47     1     0     0
SMALL
USER_CHARGES

@<TRIPOS>ATOM
      1 PG         -4.6373    6.0693    1.6480 P.3       1 ATP         1.5496
      2 O1G        -4.4342    5.3719    2.9747 O.co2     1 ATP        -0.8494
      3 O2G        -5.2004    5.3257    0.4575 O.co2     1 ATP        -0.8494
      4 O3G        -5.5402    7.4066    1.8984 O.3       1 ATP        -0.7845
      5 PB         -1.8166    6.1556    0.7912 P.3       1 ATP         1.9068
      6 O1B        -1.8463    5.2605   -0.4122 O.2       1 ATP        -0.8942
      7 O2B        -0.8450    7.4415    0.6651 O.3       1 ATP        -0.8166
      8 O3B        -3.2416    6.7920    1.2122 O.3       1 ATP        -0.8194
      9 PA          0.0330    4.7082    2.5759 P.3       1 ATP         1.5903
     10 O1A        -0.1147    4.1095    3.9578 O.co2     1 ATP        -0.8519
     11 O2A         1.1818    5.6395    2.2553 O.co2     1 ATP        -0.8519
     12 O3A        -1.3612    5.4575    2.1750 O.3       1 ATP        -0.8093
     13 O5'         0.0180    3.5131    1.4595 O.3       1 ATP        -0.5649
     14 C5'        -0.8811    2.4285    1.6206 C.3       1 ATP         0.1979
     15 C4'        -0.1994    1.3333    2.4288 C.3       1 ATP         0.1179
     16 O4'        -1.1285    0.2356    2.5840 O.3       1 ATP        -0.3878
     17 C3'         1.0324    0.7610    1.7344 C.3       1 ATP         0.1185
     18 O3'         1.9175    0.2377    2.7247 O.3       1 ATP        -0.5544
     19 C2'         0.4468   -0.3802    0.9263 C.3       1 ATP         0.0542
     20 O2'         1.3993   -1.3703    0.5961 O.3       1 ATP        -0.5831
     21 C1'        -0.6159   -0.9100    1.8769 C.3       1 ATP         0.2222
     22 N9         -1.7127   -1.6108    1.2130 N.pl3     1 ATP        -0.1887
     23 C8         -2.0868   -2.9137    1.4327 C.ar      1 ATP         0.4447
     24 N7         -3.1125   -3.2756    0.6878 N.2       1 ATP        -0.6159
     25 C5         -3.4079   -2.1580   -0.0391 C.ar      1 ATP         0.2195
     26 C6         -4.4483   -1.9775   -1.0249 C.ar      1 ATP         0.6144
     27 N6         -5.2418   -2.9492   -1.3113 N.2       1 ATP        -0.8160
     28 N1         -4.3937   -0.6823   -1.5211 N.pl3     1 ATP        -0.8611
     29 C2         -3.4770    0.2901   -1.1271 C.ar      1 ATP         0.6141
     30 N3         -2.5289    0.1525   -0.2403 N.2       1 ATP        -0.5913
     31 C4         -2.5564   -1.1096    0.2655 C.ar      1 ATP         0.0067
     32 HOG3       -5.7608    7.9719    1.1277 H         1 ATP         0.4313
     33 HOB2       -1.0105    8.0931   -0.0492 H         1 ATP         0.4716
     34 H5'1       -1.7770    2.7851    2.1387 H         1 ATP         0.0452
     35 H5'2       -1.1653    2.0543    0.6320 H         1 ATP         0.0452
     36 H4'         0.0403    1.7078    3.4343 H         1 ATP         0.0998
     37 H3'         1.5906    1.4859    1.1353 H         1 ATP         0.0544
     38 HO3'        2.1521    0.9800    3.3017 H         1 ATP         0.3961
     39 H2'        -0.0017    0.0018    0.0005 H         1 ATP         0.0499
     40 HO2'        0.9369   -2.0558    0.0825 H         1 ATP         0.4045
     41 H1'        -0.1998   -1.6319    2.6178 H         1 ATP         0.0912
     42 H8         -1.5740   -3.5449    2.1457 H         1 ATP         0.1090
     43 HN62       -5.9117   -2.6433   -2.0256 H         1 ATP         0.3694
     44 H2         -3.6225    1.2454   -1.6553 H         1 ATP         0.0371
     45 H45        -5.0794   -0.4231   -2.2258 H         1 ATP         0.4283
@<TRIPOS>BOND
     1    1    2 2
     2    1    3 1
     3    1    4 1
     4    1    8 1
     5    4   32 1
     6    5    6 2
     7    5    7 1
     8    5    8 1
     9    5   12 1
    10    7   33 1
    11    9   10 2
    12    9   11 1
    13    9   12 1
    14    9   13 1
    15   13   14 1
    16   14   15 1
    17   14   34 1
    18   14   35 1
    19   15   16 1
    20   15   17 1
    21   15   36 1
    22   16   21 1
    23   17   18 1
    24   17   19 1
    25   17   37 1
    26   18   38 1
    27   19   20 1
    28   19   21 1
    29   19   39 1
    30   20   40 1
    31   21   22 1
    32   21   41 1
    33   22   23 ar
    34   22   31 ar
    35   23   24 ar
    36   23   42 1
    37   24   25 ar
    38   25   26 ar
    39   25   31 ar
    40   26   27 2
    41   26   28 ar
    42   27   43 1
    43   28   29 ar
    44   28   45 1
    45   29   30 ar
    46   29   44 1
    47   30   31 ar
@<TRIPOS>SUBSTRUCTURE
     1 ATP         1 GROUP 0 A     ****
@<TRIPOS>MOLECULE
[[[3,4-dihydroxy-5-(6-imino-1~{H}-purin-9-yl)tetrahydrofuran-2-yl]methoxy-oxido-phosphoryl]oxy-hydroxy-phosphoryl] hydrogen phosphate
   45    47     1     0     0
SMALL
USER_CHARGES

@<TRIPOS>ATOM
      1 PG         -2.6813    5.5162   -2.1992 P.3       1 ATP         1.5496
      2 O1G        -3.2847    6.3249   -3.3260 O.co2     1 ATP        -0.8494
      3 O2G        -2.8115    4.0098   -2.1677 O.co2     1 ATP        -0.8494
      4 O3G        -1.0999    5.9027   -2.0729 O.3       1 ATP        -0.7845
      5 PB         -2.7678    5.7626    0.7385 P.3       1 ATP         1.9068
      6 O1B        -1.3179    5.9752    1.0595 O.2       1 ATP        -0.8942
      7 O2B        -3.8021    6.6132    1.6441 O.3       1 ATP        -0.8166
      8 O3B        -3.1984    6.1246   -0.7769 O.3       1 ATP        -0.8194
      9 PA         -3.3346    3.2336    2.1469 P.3       1 ATP         1.5903
     10 O1A        -3.8072    1.8724    1.6847 O.co2     1 ATP        -0.8519
     11 O2A        -4.0245    3.9444    3.2909 O.co2     1 ATP        -0.8519
     12 O3A        -3.2996    4.2424    0.8635 O.3       1 ATP        -0.8093
     13 O5'        -1.7337    3.1724    2.4752 O.3       1 ATP        -0.5649
     14 C5'        -0.8811    2.4285    1.6206 C.3       1 ATP         0.1979
     15 C4'        -0.1994    1.3333    2.4288 C.3       1 ATP         0.1179
     16 O4'        -1.1285    0.2356    2.5840 O.3       1 ATP        -0.3878
     17 C3'         1.0324    0.7610    1.7344 C.3       1 ATP         0.1185
     18 O3'         1.9175    0.2377    2.7247 O.3       1 ATP        -0.5544
     19 C2'         0.4468   -0.3802    0.9263 C.3       1 ATP         0.0542
     20 O2'         1.3993   -1.3703    0.5961 O.3       1 ATP        -0.5831
     21 C1'        -0.6159   -0.9100    1.8769 C.3       1 ATP         0.2222
     22 N9         -1.7127   -1.6108    1.2130 N.pl3     1 ATP        -0.1887
     23 C8         -2.0868   -2.9137    1.4327 C.ar      1 ATP         0.4447
     24 N7         -3.1125   -3.2756    0.6878 N.2       1 ATP        -0.6159
     25 C5         -3.4079   -2.1580   -0.0391 C.ar      1 ATP         0.2195
     26 C6         -4.4483   -1.9775   -1.0249 C.ar      1 ATP         0.6144
     27 N6         -5.2418   -2.9492   -1.3113 N.2       1 ATP        -0.8160
     28 N1         -4.3937   -0.6823   -1.5211 N.pl3     1 ATP        -0.8611
     29 C2         -3.4770    0.2901   -1.1271 C.ar      1 ATP         0.6141
     30 N3         -2.5289    0.1525   -0.2403 N.2       1 ATP        -0.5913
     31 C4         -2.5564   -1.1096    0.2655 C.ar      1 ATP         0.0067
     32 HOG3       -0.5647    5.4584   -1.3813 H         1 ATP         0.4313
     33 HOB2       -3.8034    6.4788    2.6158 H         1 ATP         0.4716
     34 H5'1       -1.4801    1.9928    0.8147 H         1 ATP         0.0452
     35 H5'2       -0.1369    3.1041    1.1872 H         1 ATP         0.0452
     36 H4'         0.0403    1.7078    3.4343 H         1 ATP         0.0998
     37 H3'         1.5906    1.4859    1.1353 H         1 ATP         0.0544
     38 HO3'        2.6839   -0.1150    2.2479 H         1 ATP         0.3961
     39 H2'        -0.0017    0.0018    0.0005 H         1 ATP         0.0499
     40 HO2'        2.0953   -0.9375    0.0709 H         1 ATP         0.4045
     41 H1'        -0.1998   -1.6319    2.6178 H         1 ATP         0.0912
     42 H8         -1.5740   -3.5449    2.1457 H         1 ATP         0.1090
     43 HN62       -5.9117   -2.6433   -2.0256 H         1 ATP         0.3694
     44 H2         -3.6225    1.2454   -1.6553 H         1 ATP         0.0371
     45 H45        -5.0794   -0.4231   -2.2258 H         1 ATP         0.4283
@<TRIPOS>BOND
     1    1    2 2
     2    1    3 1
     3    1    4 1
     4    1    8 1
     5    4   32 1
     6    5    6 2
     7    5    7 1
     8    5    8 1
     9    5   12 1
    10    7   33 1
    11    9   10 2
    12    9   11 1
    13    9   12 1
    14    9   13 1
    15   13   14 1
    16   14   15 1
    17   14   34 1
    18   14   35 1
    19   15   16 1
    20   15   17 1
    21   15   36 1
    22   16   21 1
    23   17   18 1
    24   17   19 1
    25   17   37 1
    26   18   38 1
    27   19   20 1
    28   19   21 1
    29   19   39 1
    30   20   40 1
    31   21   22 1
    32   21   41 1
    33   22   23 ar
    34   22   31 ar
    35   23   24 ar
    36   23   42 1
    37   24   25 ar
    38   25   26 ar
    39   25   31 ar
    40   26   27 2
    41   26   28 ar
    42   27   43 1
    43   28   29 ar
    44   28   45 1
    45   29   30 ar
    46   29   44 1
    47   30   31 ar
@<TRIPOS>SUBSTRUCTURE
     1 ATP         1 GROUP 0 A     ****
@<TRIPOS>MOLECULE
[[[3,4-dihydroxy-5-(6-imino-1~{H}-purin-9-yl)tetrahydrofuran-2-yl]methoxy-oxido-phosphoryl]oxy-hydroxy-phosphoryl] hydrogen phosphate
   45    47     1     0     0
SMALL
USER_CHARGES

@<TRIPOS>ATOM
      1 PG         -4.1898    6.3595   -2.5472 P.3       1 ATP         1.5496
      2 O1G        -5.0291    7.5566   -2.1597 O.co2     1 ATP        -0.8494
      3 O2G        -4.7173    5.3199   -3.5108 O.co2     1 ATP        -0.8494
      4 O3G        -2.7487    6.8935   -3.0985 O.3       1 ATP        -0.7845
      5 PB         -4.4996    4.8142   -0.0544 P.3       1 ATP         1.9068
      6 O1B        -5.5438    5.6175    0.6629 O.2       1 ATP        -0.8942
      7 O2B        -5.0527    3.5084   -0.8306 O.3       1 ATP        -0.8166
      8 O3B        -3.6745    5.6145   -1.1909 O.3       1 ATP        -0.8194
      9 PA         -3.3346    3.2336    2.1469 P.3       1 ATP         1.5903
     10 O1A        -3.8072    1.8724    1.6847 O.co2     1 ATP        -0.8519
     11 O2A        -4.0245    3.9444    3.2909 O.co2     1 ATP        -0.8519
     12 O3A        -3.2996    4.2424    0.8635 O.3       1 ATP        -0.8093
     13 O5'        -1.7337    3.1724    2.4752 O.3       1 ATP        -0.5649
     14 C5'        -0.8811    2.4285    1.6206 C.3       1 ATP         0.1979
     15 C4'        -0.1994    1.3333    2.4288 C.3       1 ATP         0.1179
     16 O4'        -1.1285    0.2356    2.5840 O.3       1 ATP        -0.3878
     17 C3'         1.0324    0.7610    1.7344 C.3       1 ATP         0.1185
     18 O3'         1.9175    0.2377    2.7247 O.3       1 ATP        -0.5544
     19 C2'         0.4468   -0.3802    0.9263 C.3       1 ATP         0.0542
     20 O2'         1.3993   -1.3703    0.5961 O.3       1 ATP        -0.5831
     21 C1'        -0.6159   -0.9100    1.8769 C.3       1 ATP         0.2222
     22 N9         -1.7127   -1.6108    1.2130 N.pl3     1 ATP        -0.1887
     23 C8         -2.0868   -2.9137    1.4327 C.ar      1 ATP         0.4447
     24 N7         -3.1125   -3.2756    0.6878 N.2       1 ATP        -0.6159
     25 C5         -3.4079   -2.1580   -0.0391 C.ar      1 ATP         0.2195
     26 C6         -4.4483   -1.9775   -1.0249 C.ar      1 ATP         0.6144
     27 N6         -5.2418   -2.9492   -1.3113 N.2       1 ATP        -0.8160
     28 N1         -4.3937   -0.6823   -1.5211 N.pl3     1 ATP        -0.8611
     29 C2         -3.4770    0.2901   -1.1271 C.ar      1 ATP         0.6141
     30 N3         -2.5289    0.1525   -0.2403 N.2       1 ATP        -0.5913
     31 C4         -2.5564   -1.1096    0.2655 C.ar      1 ATP         0.0067
     32 HOG3       -2.0867    6.2316   -3.3917 H         1 ATP         0.4313
     33 HOB2       -5.5078    2.8079   -0.3163 H         1 ATP         0.4716
     34 H5'1       -1.4801    1.9928    0.8147 H         1 ATP         0.0452
     35 H5'2       -0.1369    3.1041    1.1872 H         1 ATP         0.0452
     36 H4'         0.0403    1.7078    3.4343 H         1 ATP         0.0998
     37 H3'         1.5906    1.4859    1.1353 H         1 ATP         0.0544
     38 HO3'        2.6839   -0.1150    2.2479 H         1 ATP         0.3961
     39 H2'        -0.0017    0.0018    0.0005 H         1 ATP         0.0499
     40 HO2'        2.0953   -0.9375    0.0709 H         1 ATP         0.4045
     41 H1'        -0.1998   -1.6319    2.6178 H         1 ATP         0.0912
     42 H8         -1.5740   -3.5449    2.1457 H         1 ATP         0.1090
     43 HN62       -5.9117   -2.6433   -2.0256 H         1 ATP         0.3694
     44 H2         -3.6225    1.2454   -1.6553 H         1 ATP         0.0371
     45 H45        -5.0794   -0.4231   -2.2258 H         1 ATP         0.4283
@<TRIPOS>BOND
     1    1    2 2
     2    1    3 1
     3    1    4 1
     4    1    8 1
     5    4   32 1
     6    5    6 2
     7    5    7 1
     8    5    8 1
     9    5   12 1
    10    7   33 1
    11    9   10 2
    12    9   11 1
    13    9   12 1
    14    9   13 1
    15   13   14 1
    16   14   15 1
    17   14   34 1
    18   14   35 1
    19   15   16 1
    20   15   17 1
    21   15   36 1
    22   16   21 1
    23   17   18 1
    24   17   19 1
    25   17   37 1
    26   18   38 1
    27   19   20 1
    28   19   21 1
    29   19   39 1
    30   20   40 1
    31   21   22 1
    32   21   41 1
    33   22   23 ar
    34   22   31 ar
    35   23   24 ar
    36   23   42 1
    37   24   25 ar
    38   25   26 ar
    39   25   31 ar
    40   26   27 2
    41   26   28 ar
    42   27   43 1
    43   28   29 ar
    44   28   45 1
    45   29   30 ar
    46   29   44 1
    47   30   31 ar
@<TRIPOS>SUBSTRUCTURE
     1 ATP         1 GROUP 0 A     ****
@<TRIPOS>MOLECULE
[[[3,4-dihydroxy-5-(6-imino-1~{H}-purin-9-yl)tetrahydrofuran-2-yl]methoxy-oxido-phosphoryl]oxy-hydroxy-phosphoryl] hydrogen phosphate
   45    47     1     0     0
SMALL
USER_CHARGES

@<TRIPOS>ATOM
      1 PG         -4.6131    6.0430    1.4999 P.3       1 ATP         1.5496
      2 O1G        -6.0933    5.7795    1.6641 O.co2     1 ATP        -0.8494
      3 O2G        -3.8007    5.2952    0.4663 O.co2     1 ATP        -0.8494
      4 O3G        -4.3941    7.6449    1.2715 O.3       1 ATP        -0.7845
      5 PB         -2.3658    6.2127    3.4023 P.3       1 ATP         1.9068
      6 O1B        -1.9209    7.6320    3.2076 O.2       1 ATP        -0.8942
      7 O2B        -2.2981    5.6761    4.9258 O.3       1 ATP        -0.8166
      8 O3B        -3.8867    5.8993    2.9531 O.3       1 ATP        -0.8194
      9 PA          0.0330    4.7082    2.5759 P.3       1 ATP         1.5903
     10 O1A         0.3796    4.1290    3.9302 O.co2     1 ATP        -0.8519
     11 O2A         0.8153    5.8734    2.0099 O.co2     1 ATP        -0.8519
     12 O3A        -1.5521    5.0996    2.5607 O.3       1 ATP        -0.8093
     13 O5'         0.0180    3.5131    1.4595 O.3       1 ATP        -0.5649
     14 C5'        -0.8811    2.4285    1.6206 C.3       1 ATP         0.1979
     15 C4'        -0.1994    1.3333    2.4288 C.3       1 ATP         0.1179
     16 O4'        -1.1285    0.2356    2.5840 O.3       1 ATP        -0.3878
     17 C3'         1.0324    0.7610    1.7344 C.3       1 ATP         0.1185
     18 O3'         1.9175    0.2377    2.7247 O.3       1 ATP        -0.5544
     19 C2'         0.4468   -0.3802    0.9263 C.3       1 ATP         0.0542
     20 O2'         1.3993   -1.3703    0.5961 O.3       1 ATP        -0.5831
     21 C1'        -0.6159   -0.9100    1.8769 C.3       1 ATP         0.2222
     22 N9         -1.7127   -1.6108    1.2130 N.pl3     1 ATP        -0.1887
     23 C8         -2.5485   -1.0808    0.2609 C.ar      1 ATP         0.4447
     24 N7         -3.4476   -1.9486   -0.1593 N.2       1 ATP        -0.6159
     25 C5         -3.1762   -3.0816    0.5530 C.ar      1 ATP         0.2195
     26 C6         -3.8510   -4.3579    0.5006 C.ar      1 ATP         0.6144
     27 N6         -4.8468   -4.5293   -0.2961 N.2       1 ATP        -0.8160
     28 N1         -3.2499   -5.2342    1.3937 N.pl3     1 ATP        -0.8611
     29 C2         -2.1646   -4.9275    2.2116 C.ar      1 ATP         0.6141
     30 N3         -1.5382   -3.7840    2.2778 N.2       1 ATP        -0.5913
     31 C4         -2.1054   -2.9018    1.4120 C.ar      1 ATP         0.0067
     32 HOG3       -3.4798    7.9781    1.1479 H         1 ATP         0.4313
     33 HOB2       -1.4326    5.6664    5.3874 H         1 ATP         0.4716
     34 H5'1       -1.7770    2.7851    2.1387 H         1 ATP         0.0452
     35 H5'2       -1.1653    2.0543    0.6320 H         1 ATP         0.0452
     36 H4'         0.0403    1.7078    3.4343 H         1 ATP         0.0998
     37 H3'         1.5906    1.4859    1.1353 H         1 ATP         0.0544
     38 HO3'        2.6839   -0.1150    2.2479 H         1 ATP         0.3961
     39 H2'        -0.0017    0.0018    0.0005 H         1 ATP         0.0499
     40 HO2'        0.9369   -2.0558    0.0825 H         1 ATP         0.4045
     41 H1'        -0.1998   -1.6319    2.6178 H         1 ATP         0.0912
     42 H8         -2.4515   -0.0599   -0.0829 H         1 ATP         0.1090
     43 HN62       -5.1990   -5.4882   -0.2004 H         1 ATP         0.3694
     44 H2         -1.8555   -5.7783    2.8388 H         1 ATP         0.0371
     45 H45        -3.6312   -6.1750    1.4526 H         1 ATP         0.4283
@<TRIPOS>BOND
     1    1    2 2
     2    1    3 1
     3    1    4 1
     4    1    8 1
     5    4   32 1
     6    5    6 2
     7    5    7 1
     8    5    8 1
     9    5   12 1
    10    7   33 1
    11    9   10 2
    12    9   11 1
    13    9   12 1
    14    9   13 1
    15   13   14 1
    16   14   15 1
    17   14   34 1
    18   14   35 1
    19   15   16 1
    20   15   17 1
    21   15   36 1
    22   16   21 1
    23   17   18 1
    24   17   19 1
    25   17   37 1
    26   18   38 1
    27   19   20 1
    28   19   21 1
    29   19   39 1
    30   20   40 1
    31   21   22 1
    32   21   41 1
    33   22   23 ar
    34   22   31 ar
    35   23   24 ar
    36   23   42 1
    37   24   25 ar
    38   25   26 ar
    39   25   31 ar
    40   26   27 2
    41   26   28 ar
    42   27   43 1
    43   28   29 ar
    44   28   45 1
    45   29   30 ar
    46   29   44 1
    47   30   31 ar
@<TRIPOS>SUBSTRUCTURE
     1 ATP         1 GROUP 0 A     ****
@<TRIPOS>MOLECULE
[[[3,4-dihydroxy-5-(6-imino-1~{H}-purin-9-yl)tetrahydrofuran-2-yl]methoxy-oxido-phosphoryl]oxy-hydroxy-phosphoryl] hydrogen phosphate
   45    47     1     0     0
SMALL
USER_CHARGES

@<TRIPOS>ATOM
      1 PG          5.7099    6.7970    5.0083 P.3       1 ATP         1.5496
      2 O1G         7.1406    6.6747    5.4835 O.co2     1 ATP        -0.8494
      3 O2G         4.5595    6.7598    5.9894 O.co2     1 ATP        -0.8494
      4 O3G         5.5777    8.1511    4.1054 O.3       1 ATP        -0.7845
      5 PB          5.4074    4.0783    3.9061 P.3       1 ATP         1.9068
      6 O1B         6.6754    3.4274    4.3739 O.2       1 ATP        -0.8942
      7 O2B         4.1028    3.7644    4.8077 O.3       1 ATP        -0.8166
      8 O3B         5.4461    5.6928    3.8373 O.3       1 ATP        -0.8194
      9 PA          5.6978    3.9302    0.9743 P.3       1 ATP         1.5903
     10 O1A         6.9409    3.0679    0.9420 O.co2     1 ATP        -0.8519
     11 O2A         5.7807    5.4170    0.7058 O.co2     1 ATP        -0.8519
     12 O3A         4.9409    3.7092    2.4042 O.3       1 ATP        -0.8093
     13 O5'         4.5669    3.2939   -0.0211 O.3       1 ATP        -0.5649
     14 C5'         4.0922    1.9801    0.2227 C.3       1 ATP         0.1979
     15 C4'         2.5944    2.0310    0.4653 C.3       1 ATP         0.1179
     16 O4'         1.9327    2.5740   -0.6889 O.3       1 ATP        -0.3878
     17 C3'         1.9685    0.6634    0.6767 C.3       1 ATP         0.1185
     18 O3'         2.1425    0.1975    1.9977 O.3       1 ATP        -0.5544
     19 C2'         0.5176    0.9128    0.3099 C.3       1 ATP         0.0542
     20 O2'        -0.2103    1.4454    1.4152 O.3       1 ATP        -0.5831
     21 C1'         0.6219    1.9765   -0.7844 C.3       1 ATP         0.2222
     22 N9          0.4237    1.4496   -2.1357 N.pl3     1 ATP        -0.1887
     23 C8          1.4069    0.9710   -2.9662 C.ar      1 ATP         0.4447
     24 N7          0.9316    0.5623   -4.1260 N.2       1 ATP        -0.6159
     25 C5         -0.4120    0.7884   -4.0344 C.ar      1 ATP         0.2195
     26 C6         -1.4353    0.5283   -5.0204 C.ar      1 ATP         0.6144
     27 N6         -1.1199    0.0176   -6.1586 N.2       1 ATP        -0.8160
     28 N1         -2.6704    0.9095   -4.5147 N.pl3     1 ATP        -0.8611
     29 C2         -2.8863    1.4571   -3.2520 C.ar      1 ATP         0.6141
     30 N3         -1.9805    1.7017   -2.3442 N.2       1 ATP        -0.5913
     31 C4         -0.7561    1.3381   -2.8112 C.ar      1 ATP         0.0067
     32 HOG3        4.7027    8.3722    3.7212 H         1 ATP         0.4313
     33 HOB2        3.8094    2.8340    4.9101 H         1 ATP         0.4716
     34 H5'1        4.3180    1.3550   -0.6470 H         1 ATP         0.0452
     35 H5'2        4.6084    1.5739    1.0983 H         1 ATP         0.0452
     36 H4'         2.3751    2.7029    1.3156 H         1 ATP         0.0998
     37 H3'         2.4336   -0.1217   -0.0015 H         1 ATP         0.0544
     38 HO3'        1.7160   -0.6716    2.0397 H         1 ATP         0.3961
     39 H2'         0.0316    0.0155   -0.0339 H         1 ATP         0.0499
     40 HO2'       -0.1608    0.7921    2.1351 H         1 ATP         0.4045
     41 H1'        -0.1474    2.7798   -0.6651 H         1 ATP         0.0912
     42 H8          2.4466    0.9468   -2.6694 H         1 ATP         0.1090
     43 HN62       -1.9661   -0.0965   -6.7275 H         1 ATP         0.3694
     44 H2         -3.9481    1.6825   -3.0660 H         1 ATP         0.0371
     45 H45        -3.4814    0.7753   -5.1133 H         1 ATP         0.4283
@<TRIPOS>BOND
     1    1    2 2
     2    1    3 1
     3    1    4 1
     4    1    8 1
     5    4   32 1
     6    5    6 2
     7    5    7 1
     8    5    8 1
     9    5   12 1
    10    7   33 1
    11    9   10 2
    12    9   11 1
    13    9   12 1
    14    9   13 1
    15   13   14 1
    16   14   15 1
    17   14   34 1
    18   14   35 1
    19   15   16 1
    20   15   17 1
    21   15   36 1
    22   16   21 1
    23   17   18 1
    24   17   19 1
    25   17   37 1
    26   18   38 1
    27   19   20 1
    28   19   21 1
    29   19   39 1
    30   20   40 1
    31   21   22 1
    32   21   41 1
    33   22   23 ar
    34   22   31 ar
    35   23   24 ar
    36   23   42 1
    37   24   25 ar
    38   25   26 ar
    39   25   31 ar
    40   26   27 2
    41   26   28 ar
    42   27   43 1
    43   28   29 ar
    44   28   45 1
    45   29   30 ar
    46   29   44 1
    47   30   31 ar
@<TRIPOS>SUBSTRUCTURE
     1 ATP         1 GROUP 0 A     ****
@<TRIPOS>MOLECULE
[[[3,4-dihydroxy-5-(6-imino-1~{H}-purin-9-yl)tetrahydrofuran-2-yl]methoxy-oxido-phosphoryl]oxy-hydroxy-phosphoryl] hydrogen phosphate
   45    47     1     0     0
SMALL
USER_CHARGES

@<TRIPOS>ATOM
      1 PG         10.5699    1.9183    0.6662 P.3       1 ATP         1.5496
      2 O1G        11.0076    1.2293    1.9395 O.co2     1 ATP        -0.8494
      3 O2G        11.3322    3.1070    0.1245 O.co2     1 ATP        -0.8494
      4 O3G        10.4502    0.7972   -0.5149 O.3       1 ATP        -0.7845
      5 PB          8.2497    3.3731    1.7608 P.3       1 ATP         1.9068
      6 O1B         8.4094    3.1199    3.2307 O.2       1 ATP        -0.8942
      7 O2B         8.7967    4.8056    1.2487 O.3       1 ATP        -0.8166
      8 O3B         8.9922    2.3116    0.7939 O.3       1 ATP        -0.8194
      9 PA          6.1592    3.5242   -0.3148 P.3       1 ATP         1.5903
     10 O1A         6.6758    2.4088   -1.1974 O.co2     1 ATP        -0.8519
     11 O2A         6.3637    4.9731   -0.7001 O.co2     1 ATP        -0.8519
     12 O3A         6.7372    3.3096    1.1971 O.3       1 ATP        -0.8093
     13 O5'         4.5669    3.2939   -0.0211 O.3       1 ATP        -0.5649
     14 C5'         4.0922    1.9801    0.2227 C.3       1 ATP         0.1979
     15 C4'         2.5944    2.0310    0.4653 C.3       1 ATP         0.1179
     16 O4'         1.9327    2.5740   -0.6889 O.3       1 ATP        -0.3878
     17 C3'         1.9685    0.6634    0.6767 C.3       1 ATP         0.1185
     18 O3'         2.1425    0.1975    1.9977 O.3       1 ATP        -0.5544
     19 C2'         0.5176    0.9128    0.3099 C.3       1 ATP         0.0542
     20 O2'        -0.2103    1.4454    1.4152 O.3       1 ATP        -0.5831
     21 C1'         0.6219    1.9765   -0.7844 C.3       1 ATP         0.2222
     22 N9          0.4237    1.4496   -2.1357 N.pl3     1 ATP        -0.1887
     23 C8         -0.7779    1.3483   -2.7928 C.ar      1 ATP         0.4447
     24 N7         -0.6499    0.8341   -4.0000 N.2       1 ATP        -0.6159
     25 C5          0.6893    0.5965   -4.1212 C.ar      1 ATP         0.2195
     26 C6          1.4031    0.0342   -5.2443 C.ar      1 ATP         0.6144
     27 N6          0.7649   -0.3130   -6.3063 N.2       1 ATP        -0.8160
     28 N1          2.7566   -0.0326   -4.9437 N.pl3     1 ATP        -0.8611
     29 C2          3.3337    0.3796   -3.7446 C.ar      1 ATP         0.6141
     30 N3          2.7120    0.8899   -2.7163 N.2       1 ATP        -0.5913
     31 C4          1.3803    0.9684   -2.9805 C.ar      1 ATP         0.0067
     32 HOG3       10.1739    1.0895   -1.4096 H         1 ATP         0.4313
     33 HOB2        9.7447    5.0242    1.3749 H         1 ATP         0.4716
     34 H5'1        4.3180    1.3550   -0.6470 H         1 ATP         0.0452
     35 H5'2        4.6084    1.5739    1.0983 H         1 ATP         0.0452
     36 H4'         2.3751    2.7029    1.3156 H         1 ATP         0.0998
     37 H3'         2.4336   -0.1217   -0.0015 H         1 ATP         0.0544
     38 HO3'        1.7160   -0.6716    2.0397 H         1 ATP         0.3961
     39 H2'         0.0316    0.0155   -0.0339 H         1 ATP         0.0499
     40 HO2'       -0.1608    0.7921    2.1351 H         1 ATP         0.4045
     41 H1'        -0.1474    2.7798   -0.6651 H         1 ATP         0.0912
     42 H8         -1.7076    1.6648   -2.3398 H         1 ATP         0.1090
     43 HN62        1.4266   -0.6890   -6.9943 H         1 ATP         0.3694
     44 H2          4.4251    0.2326   -3.7294 H         1 ATP         0.0371
     45 H45         3.3750   -0.4100   -5.6572 H         1 ATP         0.4283
@<TRIPOS>BOND
     1    1    2 2
     2    1    3 1
     3    1    4 1
     4    1    8 1
     5    4   32 1
     6    5    6 2
     7    5    7 1
     8    5    8 1
     9    5   12 1
    10    7   33 1
    11    9   10 2
    12    9   11 1
    13    9   12 1
    14    9   13 1
    15   13   14 1
    16   14   15 1
    17   14   34 1
    18   14   35 1
    19   15   16 1
    20   15   17 1
    21   15   36 1
    22   16   21 1
    23   17   18 1
    24   17   19 1
    25   17   37 1
    26   18   38 1
    27   19   20 1
    28   19   21 1
    29   19   39 1
    30   20   40 1
    31   21   22 1
    32   21   41 1
    33   22   23 ar
    34   22   31 ar
    35   23   24 ar
    36   23   42 1
    37   24   25 ar
    38   25   26 ar
    39   25   31 ar
    40   26   27 2
    41   26   28 ar
    42   27   43 1
    43   28   29 ar
    44   28   45 1
    45   29   30 ar
    46   29   44 1
    47   30   31 ar
@<TRIPOS>SUBSTRUCTURE
     1 ATP         1 GROUP 0 A     ****
@<TRIPOS>MOLECULE
[[[3,4-dihydroxy-5-(6-imino-1~{H}-purin-9-yl)tetrahydrofuran-2-yl]methoxy-oxido-phosphoryl]oxy-hydroxy-phosphoryl] hydrogen phosphate
   45    47     1     0     0
SMALL
USER_CHARGES

@<TRIPOS>ATOM
      1 PG         -2.7337    6.9421   -1.0798 P.3       1 ATP         1.5496
      2 O1G        -2.3353    7.3781   -2.4722 O.co2     1 ATP        -0.8494
      3 O2G        -1.6908    6.7192   -0.0073 O.co2     1 ATP        -0.8494
      4 O3G        -3.8494    7.9885   -0.5085 O.3       1 ATP        -0.7845
      5 PB         -4.4996    4.8142   -0.0544 P.3       1 ATP         1.9068
      6 O1B        -5.5438    5.6175    0.6629 O.2       1 ATP        -0.8942
      7 O2B        -5.0527    3.5084   -0.8306 O.3       1 ATP        -0.8166
      8 O3B        -3.6745    5.6145   -1.1909 O.3       1 ATP        -0.8194
      9 PA         -3.3346    3.2336    2.1469 P.3       1 ATP         1.5903
     10 O1A        -3.8072    1.8724    1.6847 O.co2     1 ATP        -0.8519
     11 O2A        -4.0245    3.9444    3.2909 O.co2     1 ATP        -0.8519
     12 O3A        -3.2996    4.2424    0.8635 O.3       1 ATP        -0.8093
     13 O5'        -1.7337    3.1724    2.4752 O.3       1 ATP        -0.5649
     14 C5'        -0.8811    2.4285    1.6206 C.3       1 ATP         0.1979
     15 C4'        -0.1994    1.3333    2.4288 C.3       1 ATP         0.1179
     16 O4'        -1.1285    0.2356    2.5840 O.3       1 ATP        -0.3878
     17 C3'         1.0324    0.7610    1.7344 C.3       1 ATP         0.1185
     18 O3'         1.9175    0.2377    2.7247 O.3       1 ATP        -0.5544
     19 C2'         0.4468   -0.3802    0.9263 C.3       1 ATP         0.0542
     20 O2'         1.3993   -1.3703    0.5961 O.3       1 ATP        -0.5831
     21 C1'        -0.6159   -0.9100    1.8769 C.3       1 ATP         0.2222
     22 N9         -1.7127   -1.6108    1.2130 N.pl3     1 ATP        -0.1887
     23 C8         -2.0868   -2.9137    1.4327 C.ar      1 ATP         0.4447
     24 N7         -3.1125   -3.2756    0.6878 N.2       1 ATP        -0.6159
     25 C5         -3.4079   -2.1580   -0.0391 C.ar      1 ATP         0.2195
     26 C6         -4.4483   -1.9775   -1.0249 C.ar      1 ATP         0.6144
     27 N6         -5.2418   -2.9492   -1.3113 N.2       1 ATP        -0.8160
     28 N1         -4.3937   -0.6823   -1.5211 N.pl3     1 ATP        -0.8611
     29 C2         -3.4770    0.2901   -1.1271 C.ar      1 ATP         0.6141
     30 N3         -2.5289    0.1525   -0.2403 N.2       1 ATP        -0.5913
     31 C4         -2.5564   -1.1096    0.2655 C.ar      1 ATP         0.0067
     32 HOG3       -4.2106    7.8403    0.3914 H         1 ATP         0.4313
     33 HOB2       -5.5078    2.8079   -0.3163 H         1 ATP         0.4716
     34 H5'1       -1.4801    1.9928    0.8147 H         1 ATP         0.0452
     35 H5'2       -0.1369    3.1041    1.1872 H         1 ATP         0.0452
     36 H4'         0.0403    1.7078    3.4343 H         1 ATP         0.0998
     37 H3'         1.5906    1.4859    1.1353 H         1 ATP         0.0544
     38 HO3'        2.6839   -0.1150    2.2479 H         1 ATP         0.3961
     39 H2'        -0.0017    0.0018    0.0005 H         1 ATP         0.0499
     40 HO2'        2.0953   -0.9375    0.0709 H         1 ATP         0.4045
     41 H1'        -0.1998   -1.6319    2.6178 H         1 ATP         0.0912
     42 H8         -1.5740   -3.5449    2.1457 H         1 ATP         0.1090
     43 HN62       -5.9117   -2.6433   -2.0256 H         1 ATP         0.3694
     44 H2         -3.6225    1.2454   -1.6553 H         1 ATP         0.0371
     45 H45        -5.0794   -0.4231   -2.2258 H         1 ATP         0.4283
@<TRIPOS>BOND
     1    1    2 2
     2    1    3 1
     3    1    4 1
     4    1    8 1
     5    4   32 1
     6    5    6 2
     7    5    7 1
     8    5    8 1
     9    5   12 1
    10    7   33 1
    11    9   10 2
    12    9   11 1
    13    9   12 1
    14    9   13 1
    15   13   14 1
    16   14   15 1
    17   14   34 1
    18   14   35 1
    19   15   16 1
    20   15   17 1
    21   15   36 1
    22   16   21 1
    23   17   18 1
    24   17   19 1
    25   17   37 1
    26   18   38 1
    27   19   20 1
    28   19   21 1
    29   19   39 1
    30   20   40 1
    31   21   22 1
    32   21   41 1
    33   22   23 ar
    34   22   31 ar
    35   23   24 ar
    36   23   42 1
    37   24   25 ar
    38   25   26 ar
    39   25   31 ar
    40   26   27 2
    41   26   28 ar
    42   27   43 1
    43   28   29 ar
    44   28   45 1
    45   29   30 ar
    46   29   44 1
    47   30   31 ar
@<TRIPOS>SUBSTRUCTURE
     1 ATP         1 GROUP 0 A     ****
@<TRIPOS>MOLECULE
[[[3,4-dihydroxy-5-(6-imino-1~{H}-purin-9-yl)tetrahydrofuran-2-yl]methoxy-oxido-phosphoryl]oxy-hydroxy-phosphoryl] hydrogen phosphate
   45    47     1     0     0
SMALL
USER_CHARGES

@<TRIPOS>ATOM
      1 PG          1.9043    8.1804    2.7689 P.3       1 ATP         1.5496
      2 O1G         3.3462    7.9971    3.1875 O.co2     1 ATP        -0.8494
      3 O2G         1.0536    9.2759    3.3717 O.co2     1 ATP        -0.8494
      4 O3G         1.8502    8.3174    1.1427 O.3       1 ATP        -0.7845
      5 PB          0.7538    5.8992    4.2421 P.3       1 ATP         1.9068
      6 O1B         1.9251    5.4623    5.0712 O.2       1 ATP        -0.8942
      7 O2B        -0.3225    6.8278    5.0121 O.3       1 ATP        -0.8166
      8 O3B         1.1246    6.7561    2.9226 O.3       1 ATP        -0.8194
      9 PA         -1.4708    4.7755    2.6642 P.3       1 ATP         1.5903
     10 O1A        -1.0959    5.3857    1.3312 O.co2     1 ATP        -0.8519
     11 O2A        -2.6069    5.3469    3.4843 O.co2     1 ATP        -0.8519
     12 O3A        -0.1394    4.7122    3.6073 O.3       1 ATP        -0.8093
     13 O5'        -1.7337    3.1724    2.4752 O.3       1 ATP        -0.5649
     14 C5'        -0.8811    2.4285    1.6206 C.3       1 ATP         0.1979
     15 C4'        -0.1994    1.3333    2.4288 C.3       1 ATP         0.1179
     16 O4'        -1.1285    0.2356    2.5840 O.3       1 ATP        -0.3878
     17 C3'         1.0324    0.7610    1.7344 C.3       1 ATP         0.1185
     18 O3'         1.9175    0.2377    2.7247 O.3       1 ATP        -0.5544
     19 C2'         0.4468   -0.3802    0.9263 C.3       1 ATP         0.0542
     20 O2'         1.3993   -1.3703    0.5961 O.3       1 ATP        -0.5831
     21 C1'        -0.6159   -0.9100    1.8769 C.3       1 ATP         0.2222
     22 N9         -1.7127   -1.6108    1.2130 N.pl3     1 ATP        -0.1887
     23 C8         -1.7690   -2.9583    0.9549 C.ar      1 ATP         0.4447
     24 N7         -2.8827   -3.3076    0.3418 N.2       1 ATP        -0.6159
     25 C5         -3.5683   -2.1351    0.2017 C.ar      1 ATP         0.2195
     26 C6         -4.8617   -1.9185   -0.4044 C.ar      1 ATP         0.6144
     27 N6         -5.5166   -2.9094   -0.8994 N.2       1 ATP        -0.8160
     28 N1         -5.1836   -0.5701   -0.3344 N.pl3     1 ATP        -0.8611
     29 C2         -4.3821    0.4180    0.2330 C.ar      1 ATP         0.6141
     30 N3         -3.2117    0.2488    0.7860 N.2       1 ATP        -0.5913
     31 C4         -2.8672   -1.0657    0.7327 C.ar      1 ATP         0.0067
     32 HOG3        0.9770    8.4426    0.7137 H         1 ATP         0.4313
     33 HOB2       -0.0276    7.6851    5.3866 H         1 ATP         0.4716
     34 H5'1       -1.4801    1.9928    0.8147 H         1 ATP         0.0452
     35 H5'2       -0.1369    3.1041    1.1872 H         1 ATP         0.0452
     36 H4'         0.0403    1.7078    3.4343 H         1 ATP         0.0998
     37 H3'         1.5906    1.4859    1.1353 H         1 ATP         0.0544
     38 HO3'        2.6839   -0.1150    2.2479 H         1 ATP         0.3961
     39 H2'        -0.0017    0.0018    0.0005 H         1 ATP         0.0499
     40 HO2'        2.0953   -0.9375    0.0709 H         1 ATP         0.4045
     41 H1'        -0.1998   -1.6319    2.6178 H         1 ATP         0.0912
     42 H8         -0.9697   -3.6300    1.2371 H         1 ATP         0.1090
     43 HN62       -6.4060   -2.5723   -1.2840 H         1 ATP         0.3694
     44 H2         -4.8409    1.4176    0.1757 H         1 ATP         0.0371
     45 H45        -6.0768   -0.2826   -0.7263 H         1 ATP         0.4283
@<TRIPOS>BOND
     1    1    2 2
     2    1    3 1
     3    1    4 1
     4    1    8 1
     5    4   32 1
     6    5    6 2
     7    5    7 1
     8    5    8 1
     9    5   12 1
    10    7   33 1
    11    9   10 2
    12    9   11 1
    13    9   12 1
    14    9   13 1
    15   13   14 1
    16   14   15 1
    17   14   34 1
    18   14   35 1
    19   15   16 1
    20   15   17 1
    21   15   36 1
    22   16   21 1
    23   17   18 1
    24   17   19 1
    25   17   37 1
    26   18   38 1
    27   19   20 1
    28   19   21 1
    29   19   39 1
    30   20   40 1
    31   21   22 1
    32   21   41 1
    33   22   23 ar
    34   22   31 ar
    35   23   24 ar
    36   23   42 1
    37   24   25 ar
    38   25   26 ar
    39   25   31 ar
    40   26   27 2
    41   26   28 ar
    42   27   43 1
    43   28   29 ar
    44   28   45 1
    45   29   30 ar
    46   29   44 1
    47   30   31 ar
@<TRIPOS>SUBSTRUCTURE
     1 ATP         1 GROUP 0 A     ****
@<TRIPOS>MOLECULE
[[[3,4-dihydroxy-5-(6-imino-1~{H}-purin-9-yl)tetrahydrofuran-2-yl]methoxy-oxido-phosphoryl]oxy-hydroxy-phosphoryl] hydrogen phosphate
   45    47     1     0     0
SMALL
USER_CHARGES

@<TRIPOS>ATOM
      1 PG          1.9043    8.1804    2.7689 P.3       1 ATP         1.5496
      2 O1G         3.3462    7.9971    3.1875 O.co2     1 ATP        -0.8494
      3 O2G         1.0536    9.2759    3.3717 O.co2     1 ATP        -0.8494
      4 O3G         1.8502    8.3174    1.1427 O.3       1 ATP        -0.7845
      5 PB          0.7538    5.8992    4.2421 P.3       1 ATP         1.9068
      6 O1B         1.9251    5.4623    5.0712 O.2       1 ATP        -0.8942
      7 O2B        -0.3225    6.8278    5.0121 O.3       1 ATP        -0.8166
      8 O3B         1.1246    6.7561    2.9226 O.3       1 ATP        -0.8194
      9 PA         -1.4708    4.7755    2.6642 P.3       1 ATP         1.5903
     10 O1A        -1.0959    5.3857    1.3312 O.co2     1 ATP        -0.8519
     11 O2A        -2.6069    5.3469    3.4843 O.co2     1 ATP        -0.8519
     12 O3A        -0.1394    4.7122    3.6073 O.3       1 ATP        -0.8093
     13 O5'        -1.7337    3.1724    2.4752 O.3       1 ATP        -0.5649
     14 C5'        -0.8811    2.4285    1.6206 C.3       1 ATP         0.1979
     15 C4'        -0.1994    1.3333    2.4288 C.3       1 ATP         0.1179
     16 O4'        -1.1285    0.2356    2.5840 O.3       1 ATP        -0.3878
     17 C3'         1.0324    0.7610    1.7344 C.3       1 ATP         0.1185
     18 O3'         1.9175    0.2377    2.7247 O.3       1 ATP        -0.5544
     19 C2'         0.4468   -0.3802    0.9263 C.3       1 ATP         0.0542
     20 O2'         1.3993   -1.3703    0.5961 O.3       1 ATP        -0.5831
     21 C1'        -0.6159   -0.9100    1.8769 C.3       1 ATP         0.2222
     22 N9         -1.7127   -1.6108    1.2130 N.pl3     1 ATP        -0.1887
     23 C8         -2.5485   -1.0808    0.2609 C.ar      1 ATP         0.4447
     24 N7         -3.4476   -1.9486   -0.1593 N.2       1 ATP        -0.6159
     25 C5         -3.1762   -3.0816    0.5530 C.ar      1 ATP         0.2195
     26 C6         -3.8510   -4.3579    0.5006 C.ar      1 ATP         0.6144
     27 N6         -4.8468   -4.5293   -0.2961 N.2       1 ATP        -0.8160
     28 N1         -3.2499   -5.2342    1.3937 N.pl3     1 ATP        -0.8611
     29 C2         -2.1646   -4.9275    2.2116 C.ar      1 ATP         0.6141
     30 N3         -1.5382   -3.7840    2.2778 N.2       1 ATP        -0.5913
     31 C4         -2.1054   -2.9018    1.4120 C.ar      1 ATP         0.0067
     32 HOG3        2.1868    7.5727    0.6001 H         1 ATP         0.4313
     33 HOB2       -0.0276    7.6851    5.3866 H         1 ATP         0.4716
     34 H5'1       -1.4801    1.9928    0.8147 H         1 ATP         0.0452
     35 H5'2       -0.1369    3.1041    1.1872 H         1 ATP         0.0452
     36 H4'         0.0403    1.7078    3.4343 H         1 ATP         0.0998
     37 H3'         1.5906    1.4859    1.1353 H         1 ATP         0.0544
     38 HO3'        2.6839   -0.1150    2.2479 H         1 ATP         0.3961
     39 H2'        -0.0017    0.0018    0.0005 H         1 ATP         0.0499
     40 HO2'        2.0953   -0.9375    0.0709 H         1 ATP         0.4045
     41 H1'        -0.1998   -1.6319    2.6178 H         1 ATP         0.0912
     42 H8         -2.4515   -0.0599   -0.0829 H         1 ATP         0.1090
     43 HN62       -5.1990   -5.4882   -0.2004 H         1 ATP         0.3694
     44 H2         -1.8555   -5.7783    2.8388 H         1 ATP         0.0371
     45 H45        -3.6312   -6.1750    1.4526 H         1 ATP         0.4283
@<TRIPOS>BOND
     1    1    2 2
     2    1    3 1
     3    1    4 1
     4    1    8 1
     5    4   32 1
     6    5    6 2
     7    5    7 1
     8    5    8 1
     9    5   12 1
    10    7   33 1
    11    9   10 2
    12    9   11 1
    13    9   12 1
    14    9   13 1
    15   13   14 1
    16   14   15 1
    17   14   34 1
    18   14   35 1
    19   15   16 1
    20   15   17 1
    21   15   36 1
    22   16   21 1
    23   17   18 1
    24   17   19 1
    25   17   37 1
    26   18   38 1
    27   19   20 1
    28   19   21 1
    29   19   39 1
    30   20   40 1
    31   21   22 1
    32   21   41 1
    33   22   23 ar
    34   22   31 ar
    35   23   24 ar
    36   23   42 1
    37   24   25 ar
    38   25   26 ar
    39   25   31 ar
    40   26   27 2
    41   26   28 ar
    42   27   43 1
    43   28   29 ar
    44   28   45 1
    45   29   30 ar
    46   29   44 1
    47   30   31 ar
@<TRIPOS>SUBSTRUCTURE
     1 ATP         1 GROUP 0 A     ****
@<TRIPOS>MOLECULE
[[[3,4-dihydroxy-5-(6-imino-1~{H}-purin-9-yl)tetrahydrofuran-2-yl]methoxy-oxido-phosphoryl]oxy-hydroxy-phosphoryl] hydrogen phosphate
   45    47     1     0     0
SMALL
USER_CHARGES

@<TRIPOS>ATOM
      1 PG         -2.0052    9.3151    1.4423 P.3       1 ATP         1.5496
      2 O1G        -3.1122    9.6903    0.4824 O.co2     1 ATP        -0.8494
      3 O2G        -0.6261    9.9225    1.3134 O.co2     1 ATP        -0.8494
      4 O3G        -2.5374    9.5563    2.9670 O.3       1 ATP        -0.7845
      5 PB         -1.3920    6.6481    0.3428 P.3       1 ATP         1.9068
      6 O1B        -2.2167    6.6488   -0.9103 O.2       1 ATP        -0.8942
      7 O2B         0.1723    6.9986    0.1339 O.3       1 ATP        -0.8166
      8 O3B        -1.8691    7.6903    1.4825 O.3       1 ATP        -0.8194
      9 PA         -2.5926    4.4186    1.8557 P.3       1 ATP         1.5903
     10 O1A        -3.5064    3.9076    0.7631 O.co2     1 ATP        -0.8519
     11 O2A        -3.1433    5.2314    3.0072 O.co2     1 ATP        -0.8519
     12 O3A        -1.3732    5.2612    1.1708 O.3       1 ATP        -0.8093
     13 O5'        -1.7337    3.1724    2.4752 O.3       1 ATP        -0.5649
     14 C5'        -0.8811    2.4285    1.6206 C.3       1 ATP         0.1979
     15 C4'        -0.1994    1.3333    2.4288 C.3       1 ATP         0.1179
     16 O4'        -1.1285    0.2356    2.5840 O.3       1 ATP        -0.3878
     17 C3'         1.0324    0.7610    1.7344 C.3       1 ATP         0.1185
     18 O3'         1.9175    0.2377    2.7247 O.3       1 ATP        -0.5544
     19 C2'         0.4468   -0.3802    0.9263 C.3       1 ATP         0.0542
     20 O2'         1.3993   -1.3703    0.5961 O.3       1 ATP        -0.5831
     21 C1'        -0.6159   -0.9100    1.8769 C.3       1 ATP         0.2222
     22 N9         -1.7127   -1.6108    1.2130 N.pl3     1 ATP        -0.1887
     23 C8         -1.5982   -2.7455    0.4481 C.ar      1 ATP         0.4447
     24 N7         -2.7593   -3.1533   -0.0249 N.2       1 ATP        -0.6159
     25 C5         -3.6547   -2.2420    0.4573 C.ar      1 ATP         0.2195
     26 C6         -5.0842   -2.1942    0.2543 C.ar      1 ATP         0.6144
     27 N6         -5.6648   -3.0919   -0.4618 N.2       1 ATP        -0.8160
     28 N1         -5.6087   -1.0978    0.9248 N.pl3     1 ATP        -0.8611
     29 C2         -4.8689   -0.1873    1.6760 C.ar      1 ATP         0.6141
     30 N3         -3.5787   -0.2081    1.8745 N.2       1 ATP        -0.5913
     31 C4         -3.0344   -1.2737    1.2284 C.ar      1 ATP         0.0067
     32 HOG3       -1.9295    9.3569    3.7105 H         1 ATP         0.4313
     33 HOB2        0.7140    6.4234   -0.4475 H         1 ATP         0.4716
     34 H5'1       -1.4801    1.9928    0.8147 H         1 ATP         0.0452
     35 H5'2       -0.1369    3.1041    1.1872 H         1 ATP         0.0452
     36 H4'         0.0403    1.7078    3.4343 H         1 ATP         0.0998
     37 H3'         1.5906    1.4859    1.1353 H         1 ATP         0.0544
     38 HO3'        2.1521    0.9800    3.3017 H         1 ATP         0.3961
     39 H2'        -0.0017    0.0018    0.0005 H         1 ATP         0.0499
     40 HO2'        2.0953   -0.9375    0.0709 H         1 ATP         0.4045
     41 H1'        -0.1998   -1.6319    2.6178 H         1 ATP         0.0912
     42 H8         -0.6448   -3.2254    0.2735 H         1 ATP         0.1090
     43 HN62       -6.6723   -2.9015   -0.4966 H         1 ATP         0.3694
     44 H2         -5.4961    0.6026    2.1182 H         1 ATP         0.0371
     45 H45        -6.6130   -0.9504    0.8642 H         1 ATP         0.4283
@<TRIPOS>BOND
     1    1    2 2
     2    1    3 1
     3    1    4 1
     4    1    8 1
     5    4   32 1
     6    5    6 2
     7    5    7 1
     8    5    8 1
     9    5   12 1
    10    7   33 1
    11    9   10 2
    12    9   11 1
    13    9   12 1
    14    9   13 1
    15   13   14 1
    16   14   15 1
    17   14   34 1
    18   14   35 1
    19   15   16 1
    20   15   17 1
    21   15   36 1
    22   16   21 1
    23   17   18 1
    24   17   19 1
    25   17   37 1
    26   18   38 1
    27   19   20 1
    28   19   21 1
    29   19   39 1
    30   20   40 1
    31   21   22 1
    32   21   41 1
    33   22   23 ar
    34   22   31 ar
    35   23   24 ar
    36   23   42 1
    37   24   25 ar
    38   25   26 ar
    39   25   31 ar
    40   26   27 2
    41   26   28 ar
    42   27   43 1
    43   28   29 ar
    44   28   45 1
    45   29   30 ar
    46   29   44 1
    47   30   31 ar
@<TRIPOS>SUBSTRUCTURE
     1 ATP         1 GROUP 0 A     ****
@<TRIPOS>MOLECULE
[[[3,4-dihydroxy-5-(6-imino-1~{H}-purin-9-yl)tetrahydrofuran-2-yl]methoxy-oxido-phosphoryl]oxy-hydroxy-phosphoryl] hydrogen phosphate
   45    47     1     0     0
SMALL
USER_CHARGES

@<TRIPOS>ATOM
      1 PG          9.7623    0.9735   -3.0275 P.3       1 ATP         1.5496
      2 O1G        10.6001    0.0484   -2.1731 O.co2     1 ATP        -0.8494
      3 O2G        10.3936    2.1309   -3.7687 O.co2     1 ATP        -0.8494
      4 O3G         8.9201    0.0710   -4.0963 O.3       1 ATP        -0.7845
      5 PB          8.4964    2.5107   -0.8521 P.3       1 ATP         1.9068
      6 O1B         9.2591    2.0161    0.3413 O.2       1 ATP        -0.8942
      7 O2B         8.9969    3.9286   -1.4459 O.3       1 ATP        -0.8166
      8 O3B         8.5145    1.5296   -2.1366 O.3       1 ATP        -0.8194
      9 PA          6.0978    3.6800    0.4053 P.3       1 ATP         1.5903
     10 O1A         6.3718    5.1248    0.0483 O.co2     1 ATP        -0.8519
     11 O2A         6.3395    3.1711    1.8097 O.co2     1 ATP        -0.8519
     12 O3A         6.9091    2.7178   -0.6350 O.3       1 ATP        -0.8093
     13 O5'         4.5669    3.2939   -0.0211 O.3       1 ATP        -0.5649
     14 C5'         4.0922    1.9801    0.2227 C.3       1 ATP         0.1979
     15 C4'         2.5944    2.0310    0.4653 C.3       1 ATP         0.1179
     16 O4'         1.9327    2.5740   -0.6889 O.3       1 ATP        -0.3878
     17 C3'         1.9685    0.6634    0.6767 C.3       1 ATP         0.1185
     18 O3'         2.1425    0.1975    1.9977 O.3       1 ATP        -0.5544
     19 C2'         0.5176    0.9128    0.3099 C.3       1 ATP         0.0542
     20 O2'        -0.2103    1.4454    1.4152 O.3       1 ATP        -0.5831
     21 C1'         0.6219    1.9765   -0.7844 C.3       1 ATP         0.2222
     22 N9          0.4237    1.4496   -2.1357 N.pl3     1 ATP        -0.1887
     23 C8          1.4069    0.9710   -2.9662 C.ar      1 ATP         0.4447
     24 N7          0.9316    0.5623   -4.1260 N.2       1 ATP        -0.6159
     25 C5         -0.4120    0.7884   -4.0344 C.ar      1 ATP         0.2195
     26 C6         -1.4353    0.5283   -5.0204 C.ar      1 ATP         0.6144
     27 N6         -1.1199    0.0176   -6.1586 N.2       1 ATP        -0.8160
     28 N1         -2.6704    0.9095   -4.5147 N.pl3     1 ATP        -0.8611
     29 C2         -2.8863    1.4571   -3.2520 C.ar      1 ATP         0.6141
     30 N3         -1.9805    1.7017   -2.3442 N.2       1 ATP        -0.5913
     31 C4         -0.7561    1.3381   -2.8112 C.ar      1 ATP         0.0067
     32 HOG3        8.3243    0.5292   -4.7267 H         1 ATP         0.4313
     33 HOB2        8.9736    4.7202   -0.8670 H         1 ATP         0.4716
     34 H5'1        4.3180    1.3550   -0.6470 H         1 ATP         0.0452
     35 H5'2        4.6084    1.5739    1.0983 H         1 ATP         0.0452
     36 H4'         2.3751    2.7029    1.3156 H         1 ATP         0.0998
     37 H3'         2.4336   -0.1217   -0.0015 H         1 ATP         0.0544
     38 HO3'        1.7160   -0.6716    2.0397 H         1 ATP         0.3961
     39 H2'         0.0316    0.0155   -0.0339 H         1 ATP         0.0499
     40 HO2'       -1.1270    1.5823    1.1180 H         1 ATP         0.4045
     41 H1'        -0.1474    2.7798   -0.6651 H         1 ATP         0.0912
     42 H8          2.4466    0.9468   -2.6694 H         1 ATP         0.1090
     43 HN62       -1.9661   -0.0965   -6.7275 H         1 ATP         0.3694
     44 H2         -3.9481    1.6825   -3.0660 H         1 ATP         0.0371
     45 H45        -3.4814    0.7753   -5.1133 H         1 ATP         0.4283
@<TRIPOS>BOND
     1    1    2 2
     2    1    3 1
     3    1    4 1
     4    1    8 1
     5    4   32 1
     6    5    6 2
     7    5    7 1
     8    5    8 1
     9    5   12 1
    10    7   33 1
    11    9   10 2
    12    9   11 1
    13    9   12 1
    14    9   13 1
    15   13   14 1
    16   14   15 1
    17   14   34 1
    18   14   35 1
    19   15   16 1
    20   15   17 1
    21   15   36 1
    22   16   21 1
    23   17   18 1
    24   17   19 1
    25   17   37 1
    26   18   38 1
    27   19   20 1
    28   19   21 1
    29   19   39 1
    30   20   40 1
    31   21   22 1
    32   21   41 1
    33   22   23 ar
    34   22   31 ar
    35   23   24 ar
    36   23   42 1
    37   24   25 ar
    38   25   26 ar
    39   25   31 ar
    40   26   27 2
    41   26   28 ar
    42   27   43 1
    43   28   29 ar
    44   28   45 1
    45   29   30 ar
    46   29   44 1
    47   30   31 ar
@<TRIPOS>SUBSTRUCTURE
     1 ATP         1 GROUP 0 A     ****
@<TRIPOS>MOLECULE
[[[3,4-dihydroxy-5-(6-imino-1~{H}-purin-9-yl)tetrahydrofuran-2-yl]methoxy-oxido-phosphoryl]oxy-hydroxy-phosphoryl] hydrogen phosphate
   45    47     1     0     0
SMALL
USER_CHARGES

@<TRIPOS>ATOM
      1 PG          1.0869    7.9695    4.0471 P.3       1 ATP         1.5496
      2 O1G         0.3417    8.7772    5.0864 O.co2     1 ATP        -0.8494
      3 O2G         1.7529    8.6449    2.8691 O.co2     1 ATP        -0.8494
      4 O3G         2.1953    7.0427    4.8079 O.3       1 ATP        -0.7845
      5 PB         -1.2509    6.8647    2.6288 P.3       1 ATP         1.9068
      6 O1B        -2.3717    7.6333    3.2639 O.2       1 ATP        -0.8942
      7 O2B        -0.7578    7.4296    1.1966 O.3       1 ATP        -0.8166
      8 O3B         0.1095    6.7849    3.4981 O.3       1 ATP        -0.8194
      9 PA         -1.9154    4.0917    3.3839 P.3       1 ATP         1.5903
     10 O1A        -3.2731    4.3718    3.9906 O.co2     1 ATP        -0.8519
     11 O2A        -0.7135    3.8304    4.2652 O.co2     1 ATP        -0.8519
     12 O3A        -1.5408    5.2999    2.3514 O.3       1 ATP        -0.8093
     13 O5'        -2.0402    2.8619    2.3130 O.3       1 ATP        -0.5649
     14 C5'        -0.8811    2.4285    1.6206 C.3       1 ATP         0.1979
     15 C4'        -0.1994    1.3333    2.4288 C.3       1 ATP         0.1179
     16 O4'        -1.1285    0.2356    2.5840 O.3       1 ATP        -0.3878
     17 C3'         1.0324    0.7610    1.7344 C.3       1 ATP         0.1185
     18 O3'         1.9175    0.2377    2.7247 O.3       1 ATP        -0.5544
     19 C2'         0.4468   -0.3802    0.9263 C.3       1 ATP         0.0542
     20 O2'         1.3993   -1.3703    0.5961 O.3       1 ATP        -0.5831
     21 C1'        -0.6159   -0.9100    1.8769 C.3       1 ATP         0.2222
     22 N9         -1.7127   -1.6108    1.2130 N.pl3     1 ATP        -0.1887
     23 C8         -2.0868   -2.9137    1.4327 C.ar      1 ATP         0.4447
     24 N7         -3.1125   -3.2756    0.6878 N.2       1 ATP        -0.6159
     25 C5         -3.4079   -2.1580   -0.0391 C.ar      1 ATP         0.2195
     26 C6         -4.4483   -1.9775   -1.0249 C.ar      1 ATP         0.6144
     27 N6         -5.2418   -2.9492   -1.3113 N.2       1 ATP        -0.8160
     28 N1         -4.3937   -0.6823   -1.5211 N.pl3     1 ATP        -0.8611
     29 C2         -3.4770    0.2901   -1.1271 C.ar      1 ATP         0.6141
     30 N3         -2.5289    0.1525   -0.2403 N.2       1 ATP        -0.5913
     31 C4         -2.5564   -1.1096    0.2655 C.ar      1 ATP         0.0067
     32 HOG3        2.7643    6.4559    4.2656 H         1 ATP         0.4313
     33 HOB2       -1.3999    7.4712    0.4562 H         1 ATP         0.4716
     34 H5'1       -1.1769    2.0503    0.6369 H         1 ATP         0.0452
     35 H5'2       -0.2081    3.2815    1.4877 H         1 ATP         0.0452
     36 H4'         0.0403    1.7078    3.4343 H         1 ATP         0.0998
     37 H3'         1.5906    1.4859    1.1353 H         1 ATP         0.0544
     38 HO3'        2.6839   -0.1150    2.2479 H         1 ATP         0.3961
     39 H2'        -0.0017    0.0018    0.0005 H         1 ATP         0.0499
     40 HO2'        2.0953   -0.9375    0.0709 H         1 ATP         0.4045
     41 H1'        -0.1998   -1.6319    2.6178 H         1 ATP         0.0912
     42 H8         -1.5740   -3.5449    2.1457 H         1 ATP         0.1090
     43 HN62       -5.9117   -2.6433   -2.0256 H         1 ATP         0.3694
     44 H2         -3.6225    1.2454   -1.6553 H         1 ATP         0.0371
     45 H45        -5.0794   -0.4231   -2.2258 H         1 ATP         0.4283
@<TRIPOS>BOND
     1    1    2 2
     2    1    3 1
     3    1    4 1
     4    1    8 1
     5    4   32 1
     6    5    6 2
     7    5    7 1
     8    5    8 1
     9    5   12 1
    10    7   33 1
    11    9   10 2
    12    9   11 1
    13    9   12 1
    14    9   13 1
    15   13   14 1
    16   14   15 1
    17   14   34 1
    18   14   35 1
    19   15   16 1
    20   15   17 1
    21   15   36 1
    22   16   21 1
    23   17   18 1
    24   17   19 1
    25   17   37 1
    26   18   38 1
    27   19   20 1
    28   19   21 1
    29   19   39 1
    30   20   40 1
    31   21   22 1
    32   21   41 1
    33   22   23 ar
    34   22   31 ar
    35   23   24 ar
    36   23   42 1
    37   24   25 ar
    38   25   26 ar
    39   25   31 ar
    40   26   27 2
    41   26   28 ar
    42   27   43 1
    43   28   29 ar
    44   28   45 1
    45   29   30 ar
    46   29   44 1
    47   30   31 ar
@<TRIPOS>SUBSTRUCTURE
     1 ATP         1 GROUP 0 A     ****
@<TRIPOS>MOLECULE
[[[3,4-dihydroxy-5-(6-imino-1~{H}-purin-9-yl)tetrahydrofuran-2-yl]methoxy-oxido-phosphoryl]oxy-hydroxy-phosphoryl] hydrogen phosphate
   45    47     1     0     0
SMALL
USER_CHARGES

@<TRIPOS>ATOM
      1 PG         -5.2971    6.5287    3.4771 P.3       1 ATP         1.5496
      2 O1G        -5.3633    7.9851    3.0743 O.co2     1 ATP        -0.8494
      3 O2G        -5.5215    6.1087    4.9126 O.co2     1 ATP        -0.8494
      4 O3G        -6.3156    5.6804    2.5235 O.3       1 ATP        -0.7845
      5 PB         -2.3658    6.2127    3.4023 P.3       1 ATP         1.9068
      6 O1B        -1.9209    7.6320    3.2076 O.2       1 ATP        -0.8942
      7 O2B        -2.2981    5.6761    4.9258 O.3       1 ATP        -0.8166
      8 O3B        -3.8867    5.8993    2.9531 O.3       1 ATP        -0.8194
      9 PA          0.0330    4.7082    2.5759 P.3       1 ATP         1.5903
     10 O1A         0.3796    4.1290    3.9302 O.co2     1 ATP        -0.8519
     11 O2A         0.8153    5.8734    2.0099 O.co2     1 ATP        -0.8519
     12 O3A        -1.5521    5.0996    2.5607 O.3       1 ATP        -0.8093
     13 O5'         0.0180    3.5131    1.4595 O.3       1 ATP        -0.5649
     14 C5'        -0.8811    2.4285    1.6206 C.3       1 ATP         0.1979
     15 C4'        -0.1994    1.3333    2.4288 C.3       1 ATP         0.1179
     16 O4'        -1.1285    0.2356    2.5840 O.3       1 ATP        -0.3878
     17 C3'         1.0324    0.7610    1.7344 C.3       1 ATP         0.1185
     18 O3'         1.9175    0.2377    2.7247 O.3       1 ATP        -0.5544
     19 C2'         0.4468   -0.3802    0.9263 C.3       1 ATP         0.0542
     20 O2'         1.3993   -1.3703    0.5961 O.3       1 ATP        -0.5831
     21 C1'        -0.6159   -0.9100    1.8769 C.3       1 ATP         0.2222
     22 N9         -1.7127   -1.6108    1.2130 N.pl3     1 ATP        -0.1887
     23 C8         -1.7690   -2.9583    0.9549 C.ar      1 ATP         0.4447
     24 N7         -2.8827   -3.3076    0.3418 N.2       1 ATP        -0.6159
     25 C5         -3.5683   -2.1351    0.2017 C.ar      1 ATP         0.2195
     26 C6         -4.8617   -1.9185   -0.4044 C.ar      1 ATP         0.6144
     27 N6         -5.5166   -2.9094   -0.8994 N.2       1 ATP        -0.8160
     28 N1         -5.1836   -0.5701   -0.3344 N.pl3     1 ATP        -0.8611
     29 C2         -4.3821    0.4180    0.2330 C.ar      1 ATP         0.6141
     30 N3         -3.2117    0.2488    0.7860 N.2       1 ATP        -0.5913
     31 C4         -2.8672   -1.0657    0.7327 C.ar      1 ATP         0.0067
     32 HOG3       -6.3868    4.7119    2.6619 H         1 ATP         0.4313
     33 HOB2       -1.4326    5.6664    5.3874 H         1 ATP         0.4716
     34 H5'1       -1.7770    2.7851    2.1387 H         1 ATP         0.0452
     35 H5'2       -1.1653    2.0543    0.6320 H         1 ATP         0.0452
     36 H4'         0.0403    1.7078    3.4343 H         1 ATP         0.0998
     37 H3'         1.5906    1.4859    1.1353 H         1 ATP         0.0544
     38 HO3'        2.6839   -0.1150    2.2479 H         1 ATP         0.3961
     39 H2'        -0.0017    0.0018    0.0005 H         1 ATP         0.0499
     40 HO2'        2.0953   -0.9375    0.0709 H         1 ATP         0.4045
     41 H1'        -0.1998   -1.6319    2.6178 H         1 ATP         0.0912
     42 H8         -0.9697   -3.6300    1.2371 H         1 ATP         0.1090
     43 HN62       -6.4060   -2.5723   -1.2840 H         1 ATP         0.3694
     44 H2         -4.8409    1.4176    0.1757 H         1 ATP         0.0371
     45 H45        -6.0768   -0.2826   -0.7263 H         1 ATP         0.4283
@<TRIPOS>BOND
     1    1    2 2
     2    1    3 1
     3    1    4 1
     4    1    8 1
     5    4   32 1
     6    5    6 2
     7    5    7 1
     8    5    8 1
     9    5   12 1
    10    7   33 1
    11    9   10 2
    12    9   11 1
    13    9   12 1
    14    9   13 1
    15   13   14 1
    16   14   15 1
    17   14   34 1
    18   14   35 1
    19   15   16 1
    20   15   17 1
    21   15   36 1
    22   16   21 1
    23   17   18 1
    24   17   19 1
    25   17   37 1
    26   18   38 1
    27   19   20 1
    28   19   21 1
    29   19   39 1
    30   20   40 1
    31   21   22 1
    32   21   41 1
    33   22   23 ar
    34   22   31 ar
    35   23   24 ar
    36   23   42 1
    37   24   25 ar
    38   25   26 ar
    39   25   31 ar
    40   26   27 2
    41   26   28 ar
    42   27   43 1
    43   28   29 ar
    44   28   45 1
    45   29   30 ar
    46   29   44 1
    47   30   31 ar
@<TRIPOS>SUBSTRUCTURE
     1 ATP         1 GROUP 0 A     ****
@<TRIPOS>MOLECULE
[[[3,4-dihydroxy-5-(6-imino-1~{H}-purin-9-yl)tetrahydrofuran-2-yl]methoxy-oxido-phosphoryl]oxy-hydroxy-phosphoryl] hydrogen phosphate
   45    47     1     0     0
SMALL
USER_CHARGES

@<TRIPOS>ATOM
      1 PG          0.4482    5.6767    2.2607 P.3       1 ATP         1.5496
      2 O1G         0.5967    4.9168    0.9614 O.co2     1 ATP        -0.8494
      3 O2G         0.3407    7.1853    2.2706 O.co2     1 ATP        -0.8494
      4 O3G        -0.8239    5.0610    3.0786 O.3       1 ATP        -0.7845
      5 PB          3.2371    5.4500    3.1925 P.3       1 ATP         1.9068
      6 O1B         3.6774    6.8836    3.1574 O.2       1 ATP        -0.8942
      7 O2B         3.8142    4.5859    4.4310 O.3       1 ATP        -0.8166
      8 O3B         1.6392    5.2216    3.2778 O.3       1 ATP        -0.8194
      9 PA          5.0662    4.2077    1.2400 P.3       1 ATP         1.5903
     10 O1A         5.8385    3.3445    2.2138 O.co2     1 ATP        -0.8519
     11 O2A         5.6685    5.4824    0.6904 O.co2     1 ATP        -0.8519
     12 O3A         3.6135    4.5674    1.8929 O.3       1 ATP        -0.8093
     13 O5'         4.5669    3.2939   -0.0211 O.3       1 ATP        -0.5649
     14 C5'         4.0922    1.9801    0.2227 C.3       1 ATP         0.1979
     15 C4'         2.5944    2.0310    0.4653 C.3       1 ATP         0.1179
     16 O4'         1.9327    2.5740   -0.6889 O.3       1 ATP        -0.3878
     17 C3'         1.9685    0.6634    0.6767 C.3       1 ATP         0.1185
     18 O3'         2.1425    0.1975    1.9977 O.3       1 ATP        -0.5544
     19 C2'         0.5176    0.9128    0.3099 C.3       1 ATP         0.0542
     20 O2'        -0.2103    1.4454    1.4152 O.3       1 ATP        -0.5831
     21 C1'         0.6219    1.9765   -0.7844 C.3       1 ATP         0.2222
     22 N9          0.4237    1.4496   -2.1357 N.pl3     1 ATP        -0.1887
     23 C8          1.4069    0.9710   -2.9662 C.ar      1 ATP         0.4447
     24 N7          0.9316    0.5623   -4.1260 N.2       1 ATP        -0.6159
     25 C5         -0.4120    0.7884   -4.0344 C.ar      1 ATP         0.2195
     26 C6         -1.4353    0.5283   -5.0204 C.ar      1 ATP         0.6144
     27 N6         -1.1199    0.0176   -6.1586 N.2       1 ATP        -0.8160
     28 N1         -2.6704    0.9095   -4.5147 N.pl3     1 ATP        -0.8611
     29 C2         -2.8863    1.4571   -3.2520 C.ar      1 ATP         0.6141
     30 N3         -1.9805    1.7017   -2.3442 N.2       1 ATP        -0.5913
     31 C4         -0.7561    1.3381   -2.8112 C.ar      1 ATP         0.0067
     32 HOG3       -1.0519    5.4510    3.9493 H         1 ATP         0.4313
     33 HOB2        4.7852    4.4864    4.5285 H         1 ATP         0.4716
     34 H5'1        4.3180    1.3550   -0.6470 H         1 ATP         0.0452
     35 H5'2        4.6084    1.5739    1.0983 H         1 ATP         0.0452
     36 H4'         2.3751    2.7029    1.3156 H         1 ATP         0.0998
     37 H3'         2.4336   -0.1217   -0.0015 H         1 ATP         0.0544
     38 HO3'        1.7160   -0.6716    2.0397 H         1 ATP         0.3961
     39 H2'         0.0316    0.0155   -0.0339 H         1 ATP         0.0499
     40 HO2'       -1.1270    1.5823    1.1180 H         1 ATP         0.4045
     41 H1'        -0.1474    2.7798   -0.6651 H         1 ATP         0.0912
     42 H8          2.4466    0.9468   -2.6694 H         1 ATP         0.1090
     43 HN62       -1.9661   -0.0965   -6.7275 H         1 ATP         0.3694
     44 H2         -3.9481    1.6825   -3.0660 H         1 ATP         0.0371
     45 H45        -3.4814    0.7753   -5.1133 H         1 ATP         0.4283
@<TRIPOS>BOND
     1    1    2 2
     2    1    3 1
     3    1    4 1
     4    1    8 1
     5    4   32 1
     6    5    6 2
     7    5    7 1
     8    5    8 1
     9    5   12 1
    10    7   33 1
    11    9   10 2
    12    9   11 1
    13    9   12 1
    14    9   13 1
    15   13   14 1
    16   14   15 1
    17   14   34 1
    18   14   35 1
    19   15   16 1
    20   15   17 1
    21   15   36 1
    22   16   21 1
    23   17   18 1
    24   17   19 1
    25   17   37 1
    26   18   38 1
    27   19   20 1
    28   19   21 1
    29   19   39 1
    30   20   40 1
    31   21   22 1
    32   21   41 1
    33   22   23 ar
    34   22   31 ar
    35   23   24 ar
    36   23   42 1
    37   24   25 ar
    38   25   26 ar
    39   25   31 ar
    40   26   27 2
    41   26   28 ar
    42   27   43 1
    43   28   29 ar
    44   28   45 1
    45   29   30 ar
    46   29   44 1
    47   30   31 ar
@<TRIPOS>SUBSTRUCTURE
     1 ATP         1 GROUP 0 A     ****
@<TRIPOS>MOLECULE
[[[3,4-dihydroxy-5-(6-imino-1~{H}-purin-9-yl)tetrahydrofuran-2-yl]methoxy-oxido-phosphoryl]oxy-hydroxy-phosphoryl] hydrogen phosphate
   45    47     1     0     0
SMALL
USER_CHARGES

@<TRIPOS>ATOM
      1 PG          8.4396    4.8306   -0.3615 P.3       1 ATP         1.5496
      2 O1G         7.2122    5.6329    0.0096 O.co2     1 ATP        -0.8494
      3 O2G         8.5518    4.1631   -1.7139 O.co2     1 ATP        -0.8494
      4 O3G         9.7584    5.7661   -0.1340 O.3       1 ATP        -0.7845
      5 PB          7.8619    2.4259    1.2451 P.3       1 ATP         1.9068
      6 O1B         7.6617    1.3958    0.1731 O.2       1 ATP        -0.8942
      7 O2B         8.6232    1.8973    2.5698 O.3       1 ATP        -0.8166
      8 O3B         8.7187    3.7233    0.8030 O.3       1 ATP        -0.8194
      9 PA          5.2200    2.4550    2.5568 P.3       1 ATP         1.5903
     10 O1A         4.1770    3.5315    2.7646 O.co2     1 ATP        -0.8519
     11 O2A         5.7100    1.6184    3.7186 O.co2     1 ATP        -0.8519
     12 O3A         6.5176    3.1149    1.8173 O.3       1 ATP        -0.8093
     13 O5'         4.7294    1.4426    1.3698 O.3       1 ATP        -0.5649
     14 C5'         4.0922    1.9801    0.2227 C.3       1 ATP         0.1979
     15 C4'         2.5944    2.0310    0.4653 C.3       1 ATP         0.1179
     16 O4'         1.9327    2.5740   -0.6889 O.3       1 ATP        -0.3878
     17 C3'         1.9685    0.6634    0.6767 C.3       1 ATP         0.1185
     18 O3'         2.1425    0.1975    1.9977 O.3       1 ATP        -0.5544
     19 C2'         0.5176    0.9128    0.3099 C.3       1 ATP         0.0542
     20 O2'        -0.2103    1.4454    1.4152 O.3       1 ATP        -0.5831
     21 C1'         0.6219    1.9765   -0.7844 C.3       1 ATP         0.2222
     22 N9          0.4237    1.4496   -2.1357 N.pl3     1 ATP        -0.1887
     23 C8          1.4069    0.9710   -2.9662 C.ar      1 ATP         0.4447
     24 N7          0.9316    0.5623   -4.1260 N.2       1 ATP        -0.6159
     25 C5         -0.4120    0.7884   -4.0344 C.ar      1 ATP         0.2195
     26 C6         -1.4353    0.5283   -5.0204 C.ar      1 ATP         0.6144
     27 N6         -1.1199    0.0176   -6.1586 N.2       1 ATP        -0.8160
     28 N1         -2.6704    0.9095   -4.5147 N.pl3     1 ATP        -0.8611
     29 C2         -2.8863    1.4571   -3.2520 C.ar      1 ATP         0.6141
     30 N3         -1.9805    1.7017   -2.3442 N.2       1 ATP        -0.5913
     31 C4         -0.7561    1.3381   -2.8112 C.ar      1 ATP         0.0067
     32 HOG3       10.6405    5.3855   -0.3324 H         1 ATP         0.4313
     33 HOB2        8.2243    1.1645    3.0858 H         1 ATP         0.4716
     34 H5'1        4.4844    2.9853    0.0382 H         1 ATP         0.0452
     35 H5'2        4.3192    1.3445   -0.6391 H         1 ATP         0.0452
     36 H4'         2.3751    2.7029    1.3156 H         1 ATP         0.0998
     37 H3'         2.4336   -0.1217   -0.0015 H         1 ATP         0.0544
     38 HO3'        3.0987    0.1465    2.1461 H         1 ATP         0.3961
     39 H2'         0.0316    0.0155   -0.0339 H         1 ATP         0.0499
     40 HO2'       -0.1608    0.7921    2.1351 H         1 ATP         0.4045
     41 H1'        -0.1474    2.7798   -0.6651 H         1 ATP         0.0912
     42 H8          2.4466    0.9468   -2.6694 H         1 ATP         0.1090
     43 HN62       -1.9661   -0.0965   -6.7275 H         1 ATP         0.3694
     44 H2         -3.9481    1.6825   -3.0660 H         1 ATP         0.0371
     45 H45        -3.4814    0.7753   -5.1133 H         1 ATP         0.4283
@<TRIPOS>BOND
     1    1    2 2
     2    1    3 1
     3    1    4 1
     4    1    8 1
     5    4   32 1
     6    5    6 2
     7    5    7 1
     8    5    8 1
     9    5   12 1
    10    7   33 1
    11    9   10 2
    12    9   11 1
    13    9   12 1
    14    9   13 1
    15   13   14 1
    16   14   15 1
    17   14   34 1
    18   14   35 1
    19   15   16 1
    20   15   17 1
    21   15   36 1
    22   16   21 1
    23   17   18 1
    24   17   19 1
    25   17   37 1
    26   18   38 1
    27   19   20 1
    28   19   21 1
    29   19   39 1
    30   20   40 1
    31   21   22 1
    32   21   41 1
    33   22   23 ar
    34   22   31 ar
    35   23   24 ar
    36   23   42 1
    37   24   25 ar
    38   25   26 ar
    39   25   31 ar
    40   26   27 2
    41   26   28 ar
    42   27   43 1
    43   28   29 ar
    44   28   45 1
    45   29   30 ar
    46   29   44 1
    47   30   31 ar
@<TRIPOS>SUBSTRUCTURE
     1 ATP         1 GROUP 0 A     ****
@<TRIPOS>MOLECULE
[[[3,4-dihydroxy-5-(6-imino-1~{H}-purin-9-yl)tetrahydrofuran-2-yl]methoxy-oxido-phosphoryl]oxy-hydroxy-phosphoryl] hydrogen phosphate
   45    47     1     0     0
SMALL
USER_CHARGES

@<TRIPOS>ATOM
      1 PG         -1.3479    8.5797   -0.1033 P.3       1 ATP         1.5496
      2 O1G        -2.6195    8.9099   -0.8527 O.co2     1 ATP        -0.8494
      3 O2G        -0.0821    9.3750   -0.3326 O.co2     1 ATP        -0.8494
      4 O3G        -1.6753    8.5760    1.4964 O.3       1 ATP        -0.7845
      5 PB         -1.9422    5.6920   -0.0255 P.3       1 ATP         1.9068
      6 O1B        -2.4248    5.5279    1.3853 O.2       1 ATP        -0.8942
      7 O2B        -3.1080    5.8139   -1.1388 O.3       1 ATP        -0.8166
      8 O3B        -1.0206    6.9930   -0.2918 O.3       1 ATP        -0.8194
      9 PA          0.4529    3.9703   -0.0492 P.3       1 ATP         1.5903
     10 O1A         1.4112    5.1385    0.0342 O.co2     1 ATP        -0.8519
     11 O2A         0.8147    2.7278   -0.8334 O.co2     1 ATP        -0.8519
     12 O3A        -0.9915    4.5116   -0.5846 O.3       1 ATP        -0.8093
     13 O5'         0.0180    3.5131    1.4595 O.3       1 ATP        -0.5649
     14 C5'        -0.8811    2.4285    1.6206 C.3       1 ATP         0.1979
     15 C4'        -0.1994    1.3333    2.4288 C.3       1 ATP         0.1179
     16 O4'        -1.1285    0.2356    2.5840 O.3       1 ATP        -0.3878
     17 C3'         1.0324    0.7610    1.7344 C.3       1 ATP         0.1185
     18 O3'         1.9175    0.2377    2.7247 O.3       1 ATP        -0.5544
     19 C2'         0.4468   -0.3802    0.9263 C.3       1 ATP         0.0542
     20 O2'         1.3993   -1.3703    0.5961 O.3       1 ATP        -0.5831
     21 C1'        -0.6159   -0.9100    1.8769 C.3       1 ATP         0.2222
     22 N9         -1.7127   -1.6108    1.2130 N.pl3     1 ATP        -0.1887
     23 C8         -2.8662   -1.0361    0.7388 C.ar      1 ATP         0.4447
     24 N7         -3.6774   -1.9166    0.1867 N.2       1 ATP        -0.6159
     25 C5         -3.0159   -3.1045    0.3123 C.ar      1 ATP         0.2195
     26 C6         -3.4377   -4.4169   -0.1199 C.ar      1 ATP         0.6144
     27 N6         -4.5720   -4.5691   -0.7080 N.2       1 ATP        -0.8160
     28 N1         -2.4600   -5.3463    0.2071 N.pl3     1 ATP        -0.8611
     29 C2         -1.2595   -5.0554    0.8515 C.ar      1 ATP         0.6141
     30 N3         -0.8555   -3.8803    1.2516 N.2       1 ATP        -0.5913
     31 C4         -1.7946   -2.9457    0.9448 C.ar      1 ATP         0.0067
     32 HOG3       -2.3479    7.9468    1.8337 H         1 ATP         0.4313
     33 HOB2       -3.7512    6.5517   -1.0736 H         1 ATP         0.4716
     34 H5'1       -1.7770    2.7851    2.1387 H         1 ATP         0.0452
     35 H5'2       -1.1653    2.0543    0.6320 H         1 ATP         0.0452
     36 H4'         0.0403    1.7078    3.4343 H         1 ATP         0.0998
     37 H3'         1.5906    1.4859    1.1353 H         1 ATP         0.0544
     38 HO3'        2.6839   -0.1150    2.2479 H         1 ATP         0.3961
     39 H2'        -0.0017    0.0018    0.0005 H         1 ATP         0.0499
     40 HO2'        2.0953   -0.9375    0.0709 H         1 ATP         0.4045
     41 H1'        -0.1998   -1.6319    2.6178 H         1 ATP         0.0912
     42 H8         -3.0558    0.0252    0.8256 H         1 ATP         0.1090
     43 HN62       -4.7047   -5.5592   -0.9421 H         1 ATP         0.3694
     44 H2         -0.6372   -5.9505    1.0077 H         1 ATP         0.0371
     45 H45        -2.6338   -6.3155   -0.0469 H         1 ATP         0.4283
@<TRIPOS>BOND
     1    1    2 2
     2    1    3 1
     3    1    4 1
     4    1    8 1
     5    4   32 1
     6    5    6 2
     7    5    7 1
     8    5    8 1
     9    5   12 1
    10    7   33 1
    11    9   10 2
    12    9   11 1
    13    9   12 1
    14    9   13 1
    15   13   14 1
    16   14   15 1
    17   14   34 1
    18   14   35 1
    19   15   16 1
    20   15   17 1
    21   15   36 1
    22   16   21 1
    23   17   18 1
    24   17   19 1
    25   17   37 1
    26   18   38 1
    27   19   20 1
    28   19   21 1
    29   19   39 1
    30   20   40 1
    31   21   22 1
    32   21   41 1
    33   22   23 ar
    34   22   31 ar
    35   23   24 ar
    36   23   42 1
    37   24   25 ar
    38   25   26 ar
    39   25   31 ar
    40   26   27 2
    41   26   28 ar
    42   27   43 1
    43   28   29 ar
    44   28   45 1
    45   29   30 ar
    46   29   44 1
    47   30   31 ar
@<TRIPOS>SUBSTRUCTURE
     1 ATP         1 GROUP 0 A     ****
@<TRIPOS>MOLECULE
[[[3,4-dihydroxy-5-(6-imino-1~{H}-purin-9-yl)tetrahydrofuran-2-yl]methoxy-oxido-phosphoryl]oxy-hydroxy-phosphoryl] hydrogen phosphate
   45    47     1     0     0
SMALL
USER_CHARGES

@<TRIPOS>ATOM
      1 PG          7.4234    1.9619    4.2114 P.3       1 ATP         1.5496
      2 O1G         7.6673    0.7960    5.1437 O.co2     1 ATP        -0.8494
      3 O2G         6.0255    2.4883    3.9749 O.co2     1 ATP        -0.8494
      4 O3G         8.3737    3.2053    4.6771 O.3       1 ATP        -0.7845
      5 PB          8.3107    2.5766    1.4669 P.3       1 ATP         1.9068
      6 O1B         9.1028    3.8314    1.6869 O.2       1 ATP        -0.8942
      7 O2B         8.9183    1.5680    0.3591 O.3       1 ATP        -0.8166
      8 O3B         8.1221    1.6427    2.7727 O.3       1 ATP        -0.8194
      9 PA          6.1592    3.5242   -0.3148 P.3       1 ATP         1.5903
     10 O1A         6.5633    2.7426   -1.5460 O.co2     1 ATP        -0.8519
     11 O2A         6.4495    5.0055   -0.2093 O.co2     1 ATP        -0.8519
     12 O3A         6.7773    2.7858    1.0038 O.3       1 ATP        -0.8093
     13 O5'         4.5669    3.2939   -0.0211 O.3       1 ATP        -0.5649
     14 C5'         4.0922    1.9801    0.2227 C.3       1 ATP         0.1979
     15 C4'         2.5944    2.0310    0.4653 C.3       1 ATP         0.1179
     16 O4'         1.9327    2.5740   -0.6889 O.3       1 ATP        -0.3878
     17 C3'         1.9685    0.6634    0.6767 C.3       1 ATP         0.1185
     18 O3'         2.1425    0.1975    1.9977 O.3       1 ATP        -0.5544
     19 C2'         0.5176    0.9128    0.3099 C.3       1 ATP         0.0542
     20 O2'        -0.2103    1.4454    1.4152 O.3       1 ATP        -0.5831
     21 C1'         0.6219    1.9765   -0.7844 C.3       1 ATP         0.2222
     22 N9          0.4237    1.4496   -2.1357 N.pl3     1 ATP        -0.1887
     23 C8          1.1891    0.4862   -2.7452 C.ar      1 ATP         0.4447
     24 N7          0.7743    0.2113   -3.9661 N.2       1 ATP        -0.6159
     25 C5         -0.3017    1.0326   -4.1458 C.ar      1 ATP         0.2195
     26 C6         -1.1512    1.1578   -5.3076 C.ar      1 ATP         0.6144
     27 N6         -0.9306    0.4354   -6.3493 N.2       1 ATP        -0.8160
     28 N1         -2.1281    2.1133   -5.0636 N.pl3     1 ATP        -0.8611
     29 C2         -2.2653    2.8370   -3.8811 C.ar      1 ATP         0.6141
     30 N3         -1.5123    2.7429   -2.8189 N.2       1 ATP        -0.5913
     31 C4         -0.5429    1.8121   -3.0273 C.ar      1 ATP         0.0067
     32 HOG3        8.3307    4.0421    4.1671 H         1 ATP         0.4313
     33 HOB2        9.0269    1.8854   -0.5628 H         1 ATP         0.4716
     34 H5'1        4.3180    1.3550   -0.6470 H         1 ATP         0.0452
     35 H5'2        4.6084    1.5739    1.0983 H         1 ATP         0.0452
     36 H4'         2.3751    2.7029    1.3156 H         1 ATP         0.0998
     37 H3'         2.4336   -0.1217   -0.0015 H         1 ATP         0.0544
     38 HO3'        1.7160   -0.6716    2.0397 H         1 ATP         0.3961
     39 H2'         0.0316    0.0155   -0.0339 H         1 ATP         0.0499
     40 HO2'       -1.1270    1.5823    1.1180 H         1 ATP         0.4045
     41 H1'        -0.1474    2.7798   -0.6651 H         1 ATP         0.0912
     42 H8          2.0323    0.0251   -2.2492 H         1 ATP         0.1090
     43 HN62       -1.6261    0.6558   -7.0707 H         1 ATP         0.3694
     44 H2         -3.1123    3.5402   -3.9130 H         1 ATP         0.0371
     45 H45        -2.7975    2.2966   -5.8068 H         1 ATP         0.4283
@<TRIPOS>BOND
     1    1    2 2
     2    1    3 1
     3    1    4 1
     4    1    8 1
     5    4   32 1
     6    5    6 2
     7    5    7 1
     8    5    8 1
     9    5   12 1
    10    7   33 1
    11    9   10 2
    12    9   11 1
    13    9   12 1
    14    9   13 1
    15   13   14 1
    16   14   15 1
    17   14   34 1
    18   14   35 1
    19   15   16 1
    20   15   17 1
    21   15   36 1
    22   16   21 1
    23   17   18 1
    24   17   19 1
    25   17   37 1
    26   18   38 1
    27   19   20 1
    28   19   21 1
    29   19   39 1
    30   20   40 1
    31   21   22 1
    32   21   41 1
    33   22   23 ar
    34   22   31 ar
    35   23   24 ar
    36   23   42 1
    37   24   25 ar
    38   25   26 ar
    39   25   31 ar
    40   26   27 2
    41   26   28 ar
    42   27   43 1
    43   28   29 ar
    44   28   45 1
    45   29   30 ar
    46   29   44 1
    47   30   31 ar
@<TRIPOS>SUBSTRUCTURE
     1 ATP         1 GROUP 0 A     ****
@<TRIPOS>MOLECULE
[[[3,4-dihydroxy-5-(6-imino-1~{H}-purin-9-yl)tetrahydrofuran-2-yl]methoxy-oxido-phosphoryl]oxy-hydroxy-phosphoryl] hydrogen phosphate
   45    47     1     0     0
SMALL
USER_CHARGES

@<TRIPOS>ATOM
      1 PG         -2.4217    4.6431    8.2758 P.3       1 ATP         1.5496
      2 O1G        -1.7986    3.6573    9.2390 O.co2     1 ATP        -0.8494
      3 O2G        -3.8885    4.9997    8.3698 O.co2     1 ATP        -0.8494
      4 O3G        -1.5495    6.0230    8.3100 O.3       1 ATP        -0.7845
      5 PB         -0.6713    3.8305    6.0456 P.3       1 ATP         1.9068
      6 O1B         0.3261    4.9509    6.0301 O.2       1 ATP        -0.8942
      7 O2B        -0.1831    2.4887    6.8037 O.3       1 ATP        -0.8166
      8 O3B        -2.0847    4.1757    6.7500 O.3       1 ATP        -0.8194
      9 PA         -1.9154    4.0917    3.3839 P.3       1 ATP         1.5903
     10 O1A        -0.9828    5.1481    2.8324 O.co2     1 ATP        -0.8519
     11 O2A        -3.3086    4.4564    3.8487 O.co2     1 ATP        -0.8519
     12 O3A        -1.1597    3.3045    4.5985 O.3       1 ATP        -0.8093
     13 O5'        -2.0402    2.8619    2.3130 O.3       1 ATP        -0.5649
     14 C5'        -0.8811    2.4285    1.6206 C.3       1 ATP         0.1979
     15 C4'        -0.1994    1.3333    2.4288 C.3       1 ATP         0.1179
     16 O4'        -1.1285    0.2356    2.5840 O.3       1 ATP        -0.3878
     17 C3'         1.0324    0.7610    1.7344 C.3       1 ATP         0.1185
     18 O3'         1.9175    0.2377    2.7247 O.3       1 ATP        -0.5544
     19 C2'         0.4468   -0.3802    0.9263 C.3       1 ATP         0.0542
     20 O2'         1.3993   -1.3703    0.5961 O.3       1 ATP        -0.5831
     21 C1'        -0.6159   -0.9100    1.8769 C.3       1 ATP         0.2222
     22 N9         -1.7127   -1.6108    1.2130 N.pl3     1 ATP        -0.1887
     23 C8         -1.7690   -2.9583    0.9549 C.ar      1 ATP         0.4447
     24 N7         -2.8827   -3.3076    0.3418 N.2       1 ATP        -0.6159
     25 C5         -3.5683   -2.1351    0.2017 C.ar      1 ATP         0.2195
     26 C6         -4.8617   -1.9185   -0.4044 C.ar      1 ATP         0.6144
     27 N6         -5.5166   -2.9094   -0.8994 N.2       1 ATP        -0.8160
     28 N1         -5.1836   -0.5701   -0.3344 N.pl3     1 ATP        -0.8611
     29 C2         -4.3821    0.4180    0.2330 C.ar      1 ATP         0.6141
     30 N3         -3.2117    0.2488    0.7860 N.2       1 ATP        -0.5913
     31 C4         -2.8672   -1.0657    0.7327 C.ar      1 ATP         0.0067
     32 HOG3       -1.8292    6.7663    7.7344 H         1 ATP         0.4313
     33 HOB2        0.0556    2.5406    7.7538 H         1 ATP         0.4716
     34 H5'1       -1.1769    2.0503    0.6369 H         1 ATP         0.0452
     35 H5'2       -0.2081    3.2815    1.4877 H         1 ATP         0.0452
     36 H4'         0.0403    1.7078    3.4343 H         1 ATP         0.0998
     37 H3'         1.5906    1.4859    1.1353 H         1 ATP         0.0544
     38 HO3'        2.6839   -0.1150    2.2479 H         1 ATP         0.3961
     39 H2'        -0.0017    0.0018    0.0005 H         1 ATP         0.0499
     40 HO2'        2.0953   -0.9375    0.0709 H         1 ATP         0.4045
     41 H1'        -0.1998   -1.6319    2.6178 H         1 ATP         0.0912
     42 H8         -0.9697   -3.6300    1.2371 H         1 ATP         0.1090
     43 HN62       -6.4060   -2.5723   -1.2840 H         1 ATP         0.3694
     44 H2         -4.8409    1.4176    0.1757 H         1 ATP         0.0371
     45 H45        -6.0768   -0.2826   -0.7263 H         1 ATP         0.4283
@<TRIPOS>BOND
     1    1    2 2
     2    1    3 1
     3    1    4 1
     4    1    8 1
     5    4   32 1
     6    5    6 2
     7    5    7 1
     8    5    8 1
     9    5   12 1
    10    7   33 1
    11    9   10 2
    12    9   11 1
    13    9   12 1
    14    9   13 1
    15   13   14 1
    16   14   15 1
    17   14   34 1
    18   14   35 1
    19   15   16 1
    20   15   17 1
    21   15   36 1
    22   16   21 1
    23   17   18 1
    24   17   19 1
    25   17   37 1
    26   18   38 1
    27   19   20 1
    28   19   21 1
    29   19   39 1
    30   20   40 1
    31   21   22 1
    32   21   41 1
    33   22   23 ar
    34   22   31 ar
    35   23   24 ar
    36   23   42 1
    37   24   25 ar
    38   25   26 ar
    39   25   31 ar
    40   26   27 2
    41   26   28 ar
    42   27   43 1
    43   28   29 ar
    44   28   45 1
    45   29   30 ar
    46   29   44 1
    47   30   31 ar
@<TRIPOS>SUBSTRUCTURE
     1 ATP         1 GROUP 0 A     ****
@<TRIPOS>MOLECULE
[[[3,4-dihydroxy-5-(6-imino-1~{H}-purin-9-yl)tetrahydrofuran-2-yl]methoxy-oxido-phosphoryl]oxy-hydroxy-phosphoryl] hydrogen phosphate
   45    47     1     0     0
SMALL
USER_CHARGES

@<TRIPOS>ATOM
      1 PG         -1.0799    9.5294    2.6733 P.3       1 ATP         1.5496
      2 O1G        -1.0753    9.8290    4.1558 O.co2     1 ATP        -0.8494
      3 O2G        -2.1521   10.0960    1.7695 O.co2     1 ATP        -0.8494
      4 O3G         0.3796    9.9281    2.0593 O.3       1 ATP        -0.7845
      5 PB         -2.0756    6.7569    2.8157 P.3       1 ATP         1.9068
      6 O1B        -2.4446    6.6501    4.2658 O.2       1 ATP        -0.8942
      7 O2B        -3.3092    7.0568    1.8149 O.3       1 ATP        -0.8166
      8 O3B        -1.0042    7.9141    2.4606 O.3       1 ATP        -0.8194
      9 PA          0.0330    4.7082    2.5759 P.3       1 ATP         1.5903
     10 O1A        -0.1147    4.1095    3.9578 O.co2     1 ATP        -0.8519
     11 O2A         1.1818    5.6395    2.2553 O.co2     1 ATP        -0.8519
     12 O3A        -1.3612    5.4575    2.1750 O.3       1 ATP        -0.8093
     13 O5'         0.0180    3.5131    1.4595 O.3       1 ATP        -0.5649
     14 C5'        -0.8811    2.4285    1.6206 C.3       1 ATP         0.1979
     15 C4'        -0.1994    1.3333    2.4288 C.3       1 ATP         0.1179
     16 O4'        -1.1285    0.2356    2.5840 O.3       1 ATP        -0.3878
     17 C3'         1.0324    0.7610    1.7344 C.3       1 ATP         0.1185
     18 O3'         1.9175    0.2377    2.7247 O.3       1 ATP        -0.5544
     19 C2'         0.4468   -0.3802    0.9263 C.3       1 ATP         0.0542
     20 O2'         1.3993   -1.3703    0.5961 O.3       1 ATP        -0.5831
     21 C1'        -0.6159   -0.9100    1.8769 C.3       1 ATP         0.2222
     22 N9         -1.7127   -1.6108    1.2130 N.pl3     1 ATP        -0.1887
     23 C8         -2.0868   -2.9137    1.4327 C.ar      1 ATP         0.4447
     24 N7         -3.1125   -3.2756    0.6878 N.2       1 ATP        -0.6159
     25 C5         -3.4079   -2.1580   -0.0391 C.ar      1 ATP         0.2195
     26 C6         -4.4483   -1.9775   -1.0249 C.ar      1 ATP         0.6144
     27 N6         -5.2418   -2.9492   -1.3113 N.2       1 ATP        -0.8160
     28 N1         -4.3937   -0.6823   -1.5211 N.pl3     1 ATP        -0.8611
     29 C2         -3.4770    0.2901   -1.1271 C.ar      1 ATP         0.6141
     30 N3         -2.5289    0.1525   -0.2403 N.2       1 ATP        -0.5913
     31 C4         -2.5564   -1.1096    0.2655 C.ar      1 ATP         0.0067
     32 HOG3        0.5359    9.7913    1.1007 H         1 ATP         0.4313
     33 HOB2       -3.8302    7.8790    1.9370 H         1 ATP         0.4716
     34 H5'1       -1.7770    2.7851    2.1387 H         1 ATP         0.0452
     35 H5'2       -1.1653    2.0543    0.6320 H         1 ATP         0.0452
     36 H4'         0.0403    1.7078    3.4343 H         1 ATP         0.0998
     37 H3'         1.5906    1.4859    1.1353 H         1 ATP         0.0544
     38 HO3'        2.6839   -0.1150    2.2479 H         1 ATP         0.3961
     39 H2'        -0.0017    0.0018    0.0005 H         1 ATP         0.0499
     40 HO2'        0.9369   -2.0558    0.0825 H         1 ATP         0.4045
     41 H1'        -0.1998   -1.6319    2.6178 H         1 ATP         0.0912
     42 H8         -1.5740   -3.5449    2.1457 H         1 ATP         0.1090
     43 HN62       -5.9117   -2.6433   -2.0256 H         1 ATP         0.3694
     44 H2         -3.6225    1.2454   -1.6553 H         1 ATP         0.0371
     45 H45        -5.0794   -0.4231   -2.2258 H         1 ATP         0.4283
@<TRIPOS>BOND
     1    1    2 2
     2    1    3 1
     3    1    4 1
     4    1    8 1
     5    4   32 1
     6    5    6 2
     7    5    7 1
     8    5    8 1
     9    5   12 1
    10    7   33 1
    11    9   10 2
    12    9   11 1
    13    9   12 1
    14    9   13 1
    15   13   14 1
    16   14   15 1
    17   14   34 1
    18   14   35 1
    19   15   16 1
    20   15   17 1
    21   15   36 1
    22   16   21 1
    23   17   18 1
    24   17   19 1
    25   17   37 1
    26   18   38 1
    27   19   20 1
    28   19   21 1
    29   19   39 1
    30   20   40 1
    31   21   22 1
    32   21   41 1
    33   22   23 ar
    34   22   31 ar
    35   23   24 ar
    36   23   42 1
    37   24   25 ar
    38   25   26 ar
    39   25   31 ar
    40   26   27 2
    41   26   28 ar
    42   27   43 1
    43   28   29 ar
    44   28   45 1
    45   29   30 ar
    46   29   44 1
    47   30   31 ar
@<TRIPOS>SUBSTRUCTURE
     1 ATP         1 GROUP 0 A     ****
@<TRIPOS>MOLECULE
[[[3,4-dihydroxy-5-(6-imino-1~{H}-purin-9-yl)tetrahydrofuran-2-yl]methoxy-oxido-phosphoryl]oxy-hydroxy-phosphoryl] hydrogen phosphate
   45    47     1     0     0
SMALL
USER_CHARGES

@<TRIPOS>ATOM
      1 PG          9.2292    0.9084    3.7188 P.3       1 ATP         1.5496
      2 O1G        10.0222    1.9650    4.4552 O.co2     1 ATP        -0.8494
      3 O2G         9.9262   -0.1685    2.9176 O.co2     1 ATP        -0.8494
      4 O3G         8.2132    0.1915    4.7771 O.3       1 ATP        -0.7845
      5 PB          8.3107    2.5766    1.4669 P.3       1 ATP         1.9068
      6 O1B         9.1028    3.8314    1.6869 O.2       1 ATP        -0.8942
      7 O2B         8.9183    1.5680    0.3591 O.3       1 ATP        -0.8166
      8 O3B         8.1221    1.6427    2.7727 O.3       1 ATP        -0.8194
      9 PA          6.1592    3.5242   -0.3148 P.3       1 ATP         1.5903
     10 O1A         6.5633    2.7426   -1.5460 O.co2     1 ATP        -0.8519
     11 O2A         6.4495    5.0055   -0.2093 O.co2     1 ATP        -0.8519
     12 O3A         6.7773    2.7858    1.0038 O.3       1 ATP        -0.8093
     13 O5'         4.5669    3.2939   -0.0211 O.3       1 ATP        -0.5649
     14 C5'         4.0922    1.9801    0.2227 C.3       1 ATP         0.1979
     15 C4'         2.5944    2.0310    0.4653 C.3       1 ATP         0.1179
     16 O4'         1.9327    2.5740   -0.6889 O.3       1 ATP        -0.3878
     17 C3'         1.9685    0.6634    0.6767 C.3       1 ATP         0.1185
     18 O3'         2.1425    0.1975    1.9977 O.3       1 ATP        -0.5544
     19 C2'         0.5176    0.9128    0.3099 C.3       1 ATP         0.0542
     20 O2'        -0.2103    1.4454    1.4152 O.3       1 ATP        -0.5831
     21 C1'         0.6219    1.9765   -0.7844 C.3       1 ATP         0.2222
     22 N9          0.4237    1.4496   -2.1357 N.pl3     1 ATP        -0.1887
     23 C8         -0.7779    1.3483   -2.7928 C.ar      1 ATP         0.4447
     24 N7         -0.6499    0.8341   -4.0000 N.2       1 ATP        -0.6159
     25 C5          0.6893    0.5965   -4.1212 C.ar      1 ATP         0.2195
     26 C6          1.4031    0.0342   -5.2443 C.ar      1 ATP         0.6144
     27 N6          0.7649   -0.3130   -6.3063 N.2       1 ATP        -0.8160
     28 N1          2.7566   -0.0326   -4.9437 N.pl3     1 ATP        -0.8611
     29 C2          3.3337    0.3796   -3.7446 C.ar      1 ATP         0.6141
     30 N3          2.7120    0.8899   -2.7163 N.2       1 ATP        -0.5913
     31 C4          1.3803    0.9684   -2.9805 C.ar      1 ATP         0.0067
     32 HOG3        7.6254   -0.5223    4.4495 H         1 ATP         0.4313
     33 HOB2        9.8178    1.2008    0.4942 H         1 ATP         0.4716
     34 H5'1        4.3180    1.3550   -0.6470 H         1 ATP         0.0452
     35 H5'2        4.6084    1.5739    1.0983 H         1 ATP         0.0452
     36 H4'         2.3751    2.7029    1.3156 H         1 ATP         0.0998
     37 H3'         2.4336   -0.1217   -0.0015 H         1 ATP         0.0544
     38 HO3'        1.7160   -0.6716    2.0397 H         1 ATP         0.3961
     39 H2'         0.0316    0.0155   -0.0339 H         1 ATP         0.0499
     40 HO2'       -0.1608    0.7921    2.1351 H         1 ATP         0.4045
     41 H1'        -0.1474    2.7798   -0.6651 H         1 ATP         0.0912
     42 H8         -1.7076    1.6648   -2.3398 H         1 ATP         0.1090
     43 HN62        1.4266   -0.6890   -6.9943 H         1 ATP         0.3694
     44 H2          4.4251    0.2326   -3.7294 H         1 ATP         0.0371
     45 H45         3.3750   -0.4100   -5.6572 H         1 ATP         0.4283
@<TRIPOS>BOND
     1    1    2 2
     2    1    3 1
     3    1    4 1
     4    1    8 1
     5    4   32 1
     6    5    6 2
     7    5    7 1
     8    5    8 1
     9    5   12 1
    10    7   33 1
    11    9   10 2
    12    9   11 1
    13    9   12 1
    14    9   13 1
    15   13   14 1
    16   14   15 1
    17   14   34 1
    18   14   35 1
    19   15   16 1
    20   15   17 1
    21   15   36 1
    22   16   21 1
    23   17   18 1
    24   17   19 1
    25   17   37 1
    26   18   38 1
    27   19   20 1
    28   19   21 1
    29   19   39 1
    30   20   40 1
    31   21   22 1
    32   21   41 1
    33   22   23 ar
    34   22   31 ar
    35   23   24 ar
    36   23   42 1
    37   24   25 ar
    38   25   26 ar
    39   25   31 ar
    40   26   27 2
    41   26   28 ar
    42   27   43 1
    43   28   29 ar
    44   28   45 1
    45   29   30 ar
    46   29   44 1
    47   30   31 ar
@<TRIPOS>SUBSTRUCTURE
     1 ATP         1 GROUP 0 A     ****
@<TRIPOS>MOLECULE
[[[3,4-dihydroxy-5-(6-imino-1~{H}-purin-9-yl)tetrahydrofuran-2-yl]methoxy-oxido-phosphoryl]oxy-hydroxy-phosphoryl] hydrogen phosphate
   45    47     1     0     0
SMALL
USER_CHARGES

@<TRIPOS>ATOM
      1 PG         -0.7150    7.2615   -0.2826 P.3       1 ATP         1.5496
      2 O1G        -0.0207    6.4673    0.8014 O.co2     1 ATP        -0.8494
      3 O2G        -1.3961    8.5748    0.0317 O.co2     1 ATP        -0.8494
      4 O3G         0.3410    7.5044   -1.5041 O.3       1 ATP        -0.7845
      5 PB         -3.1303    5.5883   -0.5371 P.3       1 ATP         1.9068
      6 O1B        -4.1952    6.5335   -0.0651 O.2       1 ATP        -0.8942
      7 O2B        -3.5611    4.6281   -1.7643 O.3       1 ATP        -0.8166
      8 O3B        -1.7692    6.2878   -1.0576 O.3       1 ATP        -0.8194
      9 PA         -3.3161    3.4232    1.4577 P.3       1 ATP         1.5903
     10 O1A        -3.8157    2.3394    0.5273 O.co2     1 ATP        -0.8519
     11 O2A        -4.2602    4.1149    2.4168 O.co2     1 ATP        -0.8519
     12 O3A        -2.5554    4.5662    0.5739 O.3       1 ATP        -0.8093
     13 O5'        -2.0402    2.8619    2.3130 O.3       1 ATP        -0.5649
     14 C5'        -0.8811    2.4285    1.6206 C.3       1 ATP         0.1979
     15 C4'        -0.1994    1.3333    2.4288 C.3       1 ATP         0.1179
     16 O4'        -1.1285    0.2356    2.5840 O.3       1 ATP        -0.3878
     17 C3'         1.0324    0.7610    1.7344 C.3       1 ATP         0.1185
     18 O3'         1.9175    0.2377    2.7247 O.3       1 ATP        -0.5544
     19 C2'         0.4468   -0.3802    0.9263 C.3       1 ATP         0.0542
     20 O2'         1.3993   -1.3703    0.5961 O.3       1 ATP        -0.5831
     21 C1'        -0.6159   -0.9100    1.8769 C.3       1 ATP         0.2222
     22 N9         -1.7127   -1.6108    1.2130 N.pl3     1 ATP        -0.1887
     23 C8         -1.5982   -2.7455    0.4481 C.ar      1 ATP         0.4447
     24 N7         -2.7593   -3.1533   -0.0249 N.2       1 ATP        -0.6159
     25 C5         -3.6547   -2.2420    0.4573 C.ar      1 ATP         0.2195
     26 C6         -5.0842   -2.1942    0.2543 C.ar      1 ATP         0.6144
     27 N6         -5.6648   -3.0919   -0.4618 N.2       1 ATP        -0.8160
     28 N1         -5.6087   -1.0978    0.9248 N.pl3     1 ATP        -0.8611
     29 C2         -4.8689   -0.1873    1.6760 C.ar      1 ATP         0.6141
     30 N3         -3.5787   -0.2081    1.8745 N.2       1 ATP        -0.5913
     31 C4         -3.0344   -1.2737    1.2284 C.ar      1 ATP         0.0067
     32 HOG3        0.0385    8.0085   -2.2892 H         1 ATP         0.4313
     33 HOB2       -4.3169    4.0144   -1.6439 H         1 ATP         0.4716
     34 H5'1       -1.1769    2.0503    0.6369 H         1 ATP         0.0452
     35 H5'2       -0.2081    3.2815    1.4877 H         1 ATP         0.0452
     36 H4'         0.0403    1.7078    3.4343 H         1 ATP         0.0998
     37 H3'         1.5906    1.4859    1.1353 H         1 ATP         0.0544
     38 HO3'        2.1521    0.9800    3.3017 H         1 ATP         0.3961
     39 H2'        -0.0017    0.0018    0.0005 H         1 ATP         0.0499
     40 HO2'        2.0953   -0.9375    0.0709 H         1 ATP         0.4045
     41 H1'        -0.1998   -1.6319    2.6178 H         1 ATP         0.0912
     42 H8         -0.6448   -3.2254    0.2735 H         1 ATP         0.1090
     43 HN62       -6.6723   -2.9015   -0.4966 H         1 ATP         0.3694
     44 H2         -5.4961    0.6026    2.1182 H         1 ATP         0.0371
     45 H45        -6.6130   -0.9504    0.8642 H         1 ATP         0.4283
@<TRIPOS>BOND
     1    1    2 2
     2    1    3 1
     3    1    4 1
     4    1    8 1
     5    4   32 1
     6    5    6 2
     7    5    7 1
     8    5    8 1
     9    5   12 1
    10    7   33 1
    11    9   10 2
    12    9   11 1
    13    9   12 1
    14    9   13 1
    15   13   14 1
    16   14   15 1
    17   14   34 1
    18   14   35 1
    19   15   16 1
    20   15   17 1
    21   15   36 1
    22   16   21 1
    23   17   18 1
    24   17   19 1
    25   17   37 1
    26   18   38 1
    27   19   20 1
    28   19   21 1
    29   19   39 1
    30   20   40 1
    31   21   22 1
    32   21   41 1
    33   22   23 ar
    34   22   31 ar
    35   23   24 ar
    36   23   42 1
    37   24   25 ar
    38   25   26 ar
    39   25   31 ar
    40   26   27 2
    41   26   28 ar
    42   27   43 1
    43   28   29 ar
    44   28   45 1
    45   29   30 ar
    46   29   44 1
    47   30   31 ar
@<TRIPOS>SUBSTRUCTURE
     1 ATP         1 GROUP 0 A     ****
@<TRIPOS>MOLECULE
[[[3,4-dihydroxy-5-(6-imino-1~{H}-purin-9-yl)tetrahydrofuran-2-yl]methoxy-oxido-phosphoryl]oxy-hydroxy-phosphoryl] hydrogen phosphate
   45    47     1     0     0
SMALL
USER_CHARGES

@<TRIPOS>ATOM
      1 PG          9.4699    3.4560    0.2197 P.3       1 ATP         1.5496
      2 O1G         8.6625    2.3322   -0.3911 O.co2     1 ATP        -0.8494
      3 O2G        10.6638    3.1648    1.1013 O.co2     1 ATP        -0.8494
      4 O3G         9.9413    4.4642   -0.9751 O.3       1 ATP        -0.7845
      5 PB          7.5664    4.2289    2.3356 P.3       1 ATP         1.9068
      6 O1B         8.3385    3.8730    3.5715 O.2       1 ATP        -0.8942
      7 O2B         6.6808    5.5769    2.4452 O.3       1 ATP        -0.8166
      8 O3B         8.4593    4.4639    1.0089 O.3       1 ATP        -0.8194
      9 PA          5.2200    2.4550    2.5568 P.3       1 ATP         1.5903
     10 O1A         4.1770    3.5315    2.7646 O.co2     1 ATP        -0.8519
     11 O2A         5.7100    1.6184    3.7186 O.co2     1 ATP        -0.8519
     12 O3A         6.5176    3.1149    1.8173 O.3       1 ATP        -0.8093
     13 O5'         4.7294    1.4426    1.3698 O.3       1 ATP        -0.5649
     14 C5'         4.0922    1.9801    0.2227 C.3       1 ATP         0.1979
     15 C4'         2.5944    2.0310    0.4653 C.3       1 ATP         0.1179
     16 O4'         1.9327    2.5740   -0.6889 O.3       1 ATP        -0.3878
     17 C3'         1.9685    0.6634    0.6767 C.3       1 ATP         0.1185
     18 O3'         2.1425    0.1975    1.9977 O.3       1 ATP        -0.5544
     19 C2'         0.5176    0.9128    0.3099 C.3       1 ATP         0.0542
     20 O2'        -0.2103    1.4454    1.4152 O.3       1 ATP        -0.5831
     21 C1'         0.6219    1.9765   -0.7844 C.3       1 ATP         0.2222
     22 N9          0.4237    1.4496   -2.1357 N.pl3     1 ATP        -0.1887
     23 C8          1.4069    0.9710   -2.9662 C.ar      1 ATP         0.4447
     24 N7          0.9316    0.5623   -4.1260 N.2       1 ATP        -0.6159
     25 C5         -0.4120    0.7884   -4.0344 C.ar      1 ATP         0.2195
     26 C6         -1.4353    0.5283   -5.0204 C.ar      1 ATP         0.6144
     27 N6         -1.1199    0.0176   -6.1586 N.2       1 ATP        -0.8160
     28 N1         -2.6704    0.9095   -4.5147 N.pl3     1 ATP        -0.8611
     29 C2         -2.8863    1.4571   -3.2520 C.ar      1 ATP         0.6141
     30 N3         -1.9805    1.7017   -2.3442 N.2       1 ATP        -0.5913
     31 C4         -0.7561    1.3381   -2.8112 C.ar      1 ATP         0.0067
     32 HOG3       10.4783    5.2501   -0.7379 H         1 ATP         0.4313
     33 HOB2        5.9776    5.6286    3.1272 H         1 ATP         0.4716
     34 H5'1        4.4844    2.9853    0.0382 H         1 ATP         0.0452
     35 H5'2        4.3192    1.3445   -0.6391 H         1 ATP         0.0452
     36 H4'         2.3751    2.7029    1.3156 H         1 ATP         0.0998
     37 H3'         2.4336   -0.1217   -0.0015 H         1 ATP         0.0544
     38 HO3'        3.0987    0.1465    2.1461 H         1 ATP         0.3961
     39 H2'         0.0316    0.0155   -0.0339 H         1 ATP         0.0499
     40 HO2'       -0.1608    0.7921    2.1351 H         1 ATP         0.4045
     41 H1'        -0.1474    2.7798   -0.6651 H         1 ATP         0.0912
     42 H8          2.4466    0.9468   -2.6694 H         1 ATP         0.1090
     43 HN62       -1.9661   -0.0965   -6.7275 H         1 ATP         0.3694
     44 H2         -3.9481    1.6825   -3.0660 H         1 ATP         0.0371
     45 H45        -3.4814    0.7753   -5.1133 H         1 ATP         0.4283
@<TRIPOS>BOND
     1    1    2 2
     2    1    3 1
     3    1    4 1
     4    1    8 1
     5    4   32 1
     6    5    6 2
     7    5    7 1
     8    5    8 1
     9    5   12 1
    10    7   33 1
    11    9   10 2
    12    9   11 1
    13    9   12 1
    14    9   13 1
    15   13   14 1
    16   14   15 1
    17   14   34 1
    18   14   35 1
    19   15   16 1
    20   15   17 1
    21   15   36 1
    22   16   21 1
    23   17   18 1
    24   17   19 1
    25   17   37 1
    26   18   38 1
    27   19   20 1
    28   19   21 1
    29   19   39 1
    30   20   40 1
    31   21   22 1
    32   21   41 1
    33   22   23 ar
    34   22   31 ar
    35   23   24 ar
    36   23   42 1
    37   24   25 ar
    38   25   26 ar
    39   25   31 ar
    40   26   27 2
    41   26   28 ar
    42   27   43 1
    43   28   29 ar
    44   28   45 1
    45   29   30 ar
    46   29   44 1
    47   30   31 ar
@<TRIPOS>SUBSTRUCTURE
     1 ATP         1 GROUP 0 A     ****
@<TRIPOS>MOLECULE
[[[3,4-dihydroxy-5-(6-imino-1~{H}-purin-9-yl)tetrahydrofuran-2-yl]methoxy-oxido-phosphoryl]oxy-hydroxy-phosphoryl] hydrogen phosphate
   45    47     1     0     0
SMALL
USER_CHARGES

@<TRIPOS>ATOM
      1 PG          8.2280   -0.2074    2.1365 P.3       1 ATP         1.5496
      2 O1G         7.2801   -0.2118    0.9579 O.co2     1 ATP        -0.8494
      3 O2G         7.9558   -1.0601    3.3556 O.co2     1 ATP        -0.8494
      4 O3G         9.7311   -0.5432    1.5941 O.3       1 ATP        -0.7845
      5 PB          7.4611    2.4038    3.2730 P.3       1 ATP         1.9068
      6 O1B         6.8634    1.9904    4.5853 O.2       1 ATP        -0.8942
      7 O2B         8.3205    3.7725    3.3123 O.3       1 ATP        -0.8166
      8 O3B         8.4750    1.3337    2.6098 O.3       1 ATP        -0.8194
      9 PA          5.1606    3.6754    1.9344 P.3       1 ATP         1.5903
     10 O1A         5.6995    5.0893    1.9155 O.co2     1 ATP        -0.8519
     11 O2A         4.0977    3.2662    2.9308 O.co2     1 ATP        -0.8519
     12 O3A         6.4132    2.6363    2.0658 O.3       1 ATP        -0.8093
     13 O5'         4.6405    3.2701    0.4379 O.3       1 ATP        -0.5649
     14 C5'         4.0922    1.9801    0.2227 C.3       1 ATP         0.1979
     15 C4'         2.5944    2.0310    0.4653 C.3       1 ATP         0.1179
     16 O4'         1.9327    2.5740   -0.6889 O.3       1 ATP        -0.3878
     17 C3'         1.9685    0.6634    0.6767 C.3       1 ATP         0.1185
     18 O3'         2.1425    0.1975    1.9977 O.3       1 ATP        -0.5544
     19 C2'         0.5176    0.9128    0.3099 C.3       1 ATP         0.0542
     20 O2'        -0.2103    1.4454    1.4152 O.3       1 ATP        -0.5831
     21 C1'         0.6219    1.9765   -0.7844 C.3       1 ATP         0.2222
     22 N9          0.4237    1.4496   -2.1357 N.pl3     1 ATP        -0.1887
     23 C8          1.4069    0.9710   -2.9662 C.ar      1 ATP         0.4447
     24 N7          0.9316    0.5623   -4.1260 N.2       1 ATP        -0.6159
     25 C5         -0.4120    0.7884   -4.0344 C.ar      1 ATP         0.2195
     26 C6         -1.4353    0.5283   -5.0204 C.ar      1 ATP         0.6144
     27 N6         -1.1199    0.0176   -6.1586 N.2       1 ATP        -0.8160
     28 N1         -2.6704    0.9095   -4.5147 N.pl3     1 ATP        -0.8611
     29 C2         -2.8863    1.4571   -3.2520 C.ar      1 ATP         0.6141
     30 N3         -1.9805    1.7017   -2.3442 N.2       1 ATP        -0.5913
     31 C4         -0.7561    1.3381   -2.8112 C.ar      1 ATP         0.0067
     32 HOG3       10.4650   -0.5772    2.2439 H         1 ATP         0.4313
     33 HOB2        7.8772    4.6035    3.5866 H         1 ATP         0.4716
     34 H5'1        4.3029    1.6730   -0.8066 H         1 ATP         0.0452
     35 H5'2        4.5678    1.2739    0.9106 H         1 ATP         0.0452
     36 H4'         2.3751    2.7029    1.3156 H         1 ATP         0.0998
     37 H3'         2.4336   -0.1217   -0.0015 H         1 ATP         0.0544
     38 HO3'        1.7160   -0.6716    2.0397 H         1 ATP         0.3961
     39 H2'         0.0316    0.0155   -0.0339 H         1 ATP         0.0499
     40 HO2'       -0.1608    0.7921    2.1351 H         1 ATP         0.4045
     41 H1'        -0.1474    2.7798   -0.6651 H         1 ATP         0.0912
     42 H8          2.4466    0.9468   -2.6694 H         1 ATP         0.1090
     43 HN62       -1.9661   -0.0965   -6.7275 H         1 ATP         0.3694
     44 H2         -3.9481    1.6825   -3.0660 H         1 ATP         0.0371
     45 H45        -3.4814    0.7753   -5.1133 H         1 ATP         0.4283
@<TRIPOS>BOND
     1    1    2 2
     2    1    3 1
     3    1    4 1
     4    1    8 1
     5    4   32 1
     6    5    6 2
     7    5    7 1
     8    5    8 1
     9    5   12 1
    10    7   33 1
    11    9   10 2
    12    9   11 1
    13    9   12 1
    14    9   13 1
    15   13   14 1
    16   14   15 1
    17   14   34 1
    18   14   35 1
    19   15   16 1
    20   15   17 1
    21   15   36 1
    22   16   21 1
    23   17   18 1
    24   17   19 1
    25   17   37 1
    26   18   38 1
    27   19   20 1
    28   19   21 1
    29   19   39 1
    30   20   40 1
    31   21   22 1
    32   21   41 1
    33   22   23 ar
    34   22   31 ar
    35   23   24 ar
    36   23   42 1
    37   24   25 ar
    38   25   26 ar
    39   25   31 ar
    40   26   27 2
    41   26   28 ar
    42   27   43 1
    43   28   29 ar
    44   28   45 1
    45   29   30 ar
    46   29   44 1
    47   30   31 ar
@<TRIPOS>SUBSTRUCTURE
     1 ATP         1 GROUP 0 A     ****
@<TRIPOS>MOLECULE
[[[3,4-dihydroxy-5-(6-imino-1~{H}-purin-9-yl)tetrahydrofuran-2-yl]methoxy-oxido-phosphoryl]oxy-hydroxy-phosphoryl] hydrogen phosphate
   45    47     1     0     0
SMALL
USER_CHARGES

@<TRIPOS>ATOM
      1 PG         -3.4568   -2.1851    5.5964 P.3       1 ATP         1.5496
      2 O1G        -4.0696   -3.2416    4.7042 O.co2     1 ATP        -0.8494
      3 O2G        -4.1462   -1.7484    6.8698 O.co2     1 ATP        -0.8494
      4 O3G        -1.9308   -2.6369    5.9618 O.3       1 ATP        -0.7845
      5 PB         -4.0972    0.1725    3.9444 P.3       1 ATP         1.9068
      6 O1B        -4.9908   -0.4317    2.9018 O.2       1 ATP        -0.8942
      7 O2B        -4.8647    0.9201    5.1550 O.3       1 ATP        -0.8166
      8 O3B        -3.1156   -0.8677    4.6976 O.3       1 ATP        -0.8194
      9 PA         -3.2889    2.7003    2.6568 P.3       1 ATP         1.5903
     10 O1A        -3.9939    3.6416    3.6091 O.co2     1 ATP        -0.8519
     11 O2A        -3.8600    2.4177    1.2843 O.co2     1 ATP        -0.8519
     12 O3A        -3.0422    1.2742    3.4127 O.3       1 ATP        -0.8093
     13 O5'        -1.7337    3.1724    2.4752 O.3       1 ATP        -0.5649
     14 C5'        -0.8811    2.4285    1.6206 C.3       1 ATP         0.1979
     15 C4'        -0.1994    1.3333    2.4288 C.3       1 ATP         0.1179
     16 O4'        -1.1285    0.2356    2.5840 O.3       1 ATP        -0.3878
     17 C3'         1.0324    0.7610    1.7344 C.3       1 ATP         0.1185
     18 O3'         1.9175    0.2377    2.7247 O.3       1 ATP        -0.5544
     19 C2'         0.4468   -0.3802    0.9263 C.3       1 ATP         0.0542
     20 O2'         1.3993   -1.3703    0.5961 O.3       1 ATP        -0.5831
     21 C1'        -0.6159   -0.9100    1.8769 C.3       1 ATP         0.2222
     22 N9         -1.7127   -1.6108    1.2130 N.pl3     1 ATP        -0.1887
     23 C8         -2.5485   -1.0808    0.2609 C.ar      1 ATP         0.4447
     24 N7         -3.4476   -1.9486   -0.1593 N.2       1 ATP        -0.6159
     25 C5         -3.1762   -3.0816    0.5530 C.ar      1 ATP         0.2195
     26 C6         -3.8510   -4.3579    0.5006 C.ar      1 ATP         0.6144
     27 N6         -4.8468   -4.5293   -0.2961 N.2       1 ATP        -0.8160
     28 N1         -3.2499   -5.2342    1.3937 N.pl3     1 ATP        -0.8611
     29 C2         -2.1646   -4.9275    2.2116 C.ar      1 ATP         0.6141
     30 N3         -1.5382   -3.7840    2.2778 N.2       1 ATP        -0.5913
     31 C4         -2.1054   -2.9018    1.4120 C.ar      1 ATP         0.0067
     32 HOG3       -1.3959   -2.0507    6.5384 H         1 ATP         0.4313
     33 HOB2       -5.4840    0.4046    5.7144 H         1 ATP         0.4716
     34 H5'1       -1.4801    1.9928    0.8147 H         1 ATP         0.0452
     35 H5'2       -0.1369    3.1041    1.1872 H         1 ATP         0.0452
     36 H4'         0.0403    1.7078    3.4343 H         1 ATP         0.0998
     37 H3'         1.5906    1.4859    1.1353 H         1 ATP         0.0544
     38 HO3'        2.6839   -0.1150    2.2479 H         1 ATP         0.3961
     39 H2'        -0.0017    0.0018    0.0005 H         1 ATP         0.0499
     40 HO2'        0.9369   -2.0558    0.0825 H         1 ATP         0.4045
     41 H1'        -0.1998   -1.6319    2.6178 H         1 ATP         0.0912
     42 H8         -2.4515   -0.0599   -0.0829 H         1 ATP         0.1090
     43 HN62       -5.1990   -5.4882   -0.2004 H         1 ATP         0.3694
     44 H2         -1.8555   -5.7783    2.8388 H         1 ATP         0.0371
     45 H45        -3.6312   -6.1750    1.4526 H         1 ATP         0.4283
@<TRIPOS>BOND
     1    1    2 2
     2    1    3 1
     3    1    4 1
     4    1    8 1
     5    4   32 1
     6    5    6 2
     7    5    7 1
     8    5    8 1
     9    5   12 1
    10    7   33 1
    11    9   10 2
    12    9   11 1
    13    9   12 1
    14    9   13 1
    15   13   14 1
    16   14   15 1
    17   14   34 1
    18   14   35 1
    19   15   16 1
    20   15   17 1
    21   15   36 1
    22   16   21 1
    23   17   18 1
    24   17   19 1
    25   17   37 1
    26   18   38 1
    27   19   20 1
    28   19   21 1
    29   19   39 1
    30   20   40 1
    31   21   22 1
    32   21   41 1
    33   22   23 ar
    34   22   31 ar
    35   23   24 ar
    36   23   42 1
    37   24   25 ar
    38   25   26 ar
    39   25   31 ar
    40   26   27 2
    41   26   28 ar
    42   27   43 1
    43   28   29 ar
    44   28   45 1
    45   29   30 ar
    46   29   44 1
    47   30   31 ar
@<TRIPOS>SUBSTRUCTURE
     1 ATP         1 GROUP 0 A     ****
@<TRIPOS>MOLECULE
[[[3,4-dihydroxy-5-(6-imino-1~{H}-purin-9-yl)tetrahydrofuran-2-yl]methoxy-oxido-phosphoryl]oxy-hydroxy-phosphoryl] hydrogen phosphate
   45    47     1     0     0
SMALL
USER_CHARGES

@<TRIPOS>ATOM
      1 PG         -6.5822    6.7179    0.8036 P.3       1 ATP         1.5496
      2 O1G        -6.2549    7.7054   -0.2943 O.co2     1 ATP        -0.8494
      3 O2G        -7.0641    7.1919    2.1566 O.co2     1 ATP        -0.8494
      4 O3G        -7.6552    5.6332    0.2220 O.3       1 ATP        -0.7845
      5 PB         -4.4996    4.8142   -0.0544 P.3       1 ATP         1.9068
      6 O1B        -5.3196    3.7836   -0.7725 O.2       1 ATP        -0.8942
      7 O2B        -3.7768    5.9012   -1.0082 O.3       1 ATP        -0.8166
      8 O3B        -5.3099    5.7191    1.0121 O.3       1 ATP        -0.8194
      9 PA         -3.3346    3.2336    2.1469 P.3       1 ATP         1.5903
     10 O1A        -3.8072    1.8724    1.6847 O.co2     1 ATP        -0.8519
     11 O2A        -4.0245    3.9444    3.2909 O.co2     1 ATP        -0.8519
     12 O3A        -3.2996    4.2424    0.8635 O.3       1 ATP        -0.8093
     13 O5'        -1.7337    3.1724    2.4752 O.3       1 ATP        -0.5649
     14 C5'        -0.8811    2.4285    1.6206 C.3       1 ATP         0.1979
     15 C4'        -0.1994    1.3333    2.4288 C.3       1 ATP         0.1179
     16 O4'        -1.1285    0.2356    2.5840 O.3       1 ATP        -0.3878
     17 C3'         1.0324    0.7610    1.7344 C.3       1 ATP         0.1185
     18 O3'         1.9175    0.2377    2.7247 O.3       1 ATP        -0.5544
     19 C2'         0.4468   -0.3802    0.9263 C.3       1 ATP         0.0542
     20 O2'         1.3993   -1.3703    0.5961 O.3       1 ATP        -0.5831
     21 C1'        -0.6159   -0.9100    1.8769 C.3       1 ATP         0.2222
     22 N9         -1.7127   -1.6108    1.2130 N.pl3     1 ATP        -0.1887
     23 C8         -2.0868   -2.9137    1.4327 C.ar      1 ATP         0.4447
     24 N7         -3.1125   -3.2756    0.6878 N.2       1 ATP        -0.6159
     25 C5         -3.4079   -2.1580   -0.0391 C.ar      1 ATP         0.2195
     26 C6         -4.4483   -1.9775   -1.0249 C.ar      1 ATP         0.6144
     27 N6         -5.2418   -2.9492   -1.3113 N.2       1 ATP        -0.8160
     28 N1         -4.3937   -0.6823   -1.5211 N.pl3     1 ATP        -0.8611
     29 C2         -3.4770    0.2901   -1.1271 C.ar      1 ATP         0.6141
     30 N3         -2.5289    0.1525   -0.2403 N.2       1 ATP        -0.5913
     31 C4         -2.5564   -1.1096    0.2655 C.ar      1 ATP         0.0067
     32 HOG3       -7.9690    4.9210    0.8190 H         1 ATP         0.4313
     33 HOB2       -4.3309    6.4701   -1.5839 H         1 ATP         0.4716
     34 H5'1       -1.4801    1.9928    0.8147 H         1 ATP         0.0452
     35 H5'2       -0.1369    3.1041    1.1872 H         1 ATP         0.0452
     36 H4'         0.0403    1.7078    3.4343 H         1 ATP         0.0998
     37 H3'         1.5906    1.4859    1.1353 H         1 ATP         0.0544
     38 HO3'        2.6839   -0.1150    2.2479 H         1 ATP         0.3961
     39 H2'        -0.0017    0.0018    0.0005 H         1 ATP         0.0499
     40 HO2'        2.0953   -0.9375    0.0709 H         1 ATP         0.4045
     41 H1'        -0.1998   -1.6319    2.6178 H         1 ATP         0.0912
     42 H8         -1.5740   -3.5449    2.1457 H         1 ATP         0.1090
     43 HN62       -5.9117   -2.6433   -2.0256 H         1 ATP         0.3694
     44 H2         -3.6225    1.2454   -1.6553 H         1 ATP         0.0371
     45 H45        -5.0794   -0.4231   -2.2258 H         1 ATP         0.4283
@<TRIPOS>BOND
     1    1    2 2
     2    1    3 1
     3    1    4 1
     4    1    8 1
     5    4   32 1
     6    5    6 2
     7    5    7 1
     8    5    8 1
     9    5   12 1
    10    7   33 1
    11    9   10 2
    12    9   11 1
    13    9   12 1
    14    9   13 1
    15   13   14 1
    16   14   15 1
    17   14   34 1
    18   14   35 1
    19   15   16 1
    20   15   17 1
    21   15   36 1
    22   16   21 1
    23   17   18 1
    24   17   19 1
    25   17   37 1
    26   18   38 1
    27   19   20 1
    28   19   21 1
    29   19   39 1
    30   20   40 1
    31   21   22 1
    32   21   41 1
    33   22   23 ar
    34   22   31 ar
    35   23   24 ar
    36   23   42 1
    37   24   25 ar
    38   25   26 ar
    39   25   31 ar
    40   26   27 2
    41   26   28 ar
    42   27   43 1
    43   28   29 ar
    44   28   45 1
    45   29   30 ar
    46   29   44 1
    47   30   31 ar
@<TRIPOS>SUBSTRUCTURE
     1 ATP         1 GROUP 0 A     ****
@<TRIPOS>MOLECULE
[[[3,4-dihydroxy-5-(6-imino-1~{H}-purin-9-yl)tetrahydrofuran-2-yl]methoxy-oxido-phosphoryl]oxy-hydroxy-phosphoryl] hydrogen phosphate
   45    47     1     0     0
SMALL
USER_CHARGES

@<TRIPOS>ATOM
      1 PG          0.9297    6.3741    0.1114 P.3       1 ATP         1.5496
      2 O1G         0.7799    6.3964   -1.3936 O.co2     1 ATP        -0.8494
      3 O2G         1.1997    5.0801    0.8462 O.co2     1 ATP        -0.8494
      4 O3G         2.0745    7.4590    0.5342 O.3       1 ATP        -0.7845
      5 PB         -1.9194    6.6676    0.8141 P.3       1 ATP         1.9068
      6 O1B        -2.8352    7.6102    1.5374 O.2       1 ATP        -0.8942
      7 O2B        -2.2802    6.4207   -0.7423 O.3       1 ATP        -0.8166
      8 O3B        -0.3641    7.1066    0.7818 O.3       1 ATP        -0.8194
      9 PA         -2.9646    4.0417    1.6588 P.3       1 ATP         1.5903
     10 O1A        -3.4784    3.5899    0.3091 O.co2     1 ATP        -0.8519
     11 O2A        -3.9189    4.5387    2.7228 O.co2     1 ATP        -0.8519
     12 O3A        -1.8146    5.1782    1.4307 O.3       1 ATP        -0.8093
     13 O5'        -2.0402    2.8619    2.3130 O.3       1 ATP        -0.5649
     14 C5'        -0.8811    2.4285    1.6206 C.3       1 ATP         0.1979
     15 C4'        -0.1994    1.3333    2.4288 C.3       1 ATP         0.1179
     16 O4'        -1.1285    0.2356    2.5840 O.3       1 ATP        -0.3878
     17 C3'         1.0324    0.7610    1.7344 C.3       1 ATP         0.1185
     18 O3'         1.9175    0.2377    2.7247 O.3       1 ATP        -0.5544
     19 C2'         0.4468   -0.3802    0.9263 C.3       1 ATP         0.0542
     20 O2'         1.3993   -1.3703    0.5961 O.3       1 ATP        -0.5831
     21 C1'        -0.6159   -0.9100    1.8769 C.3       1 ATP         0.2222
     22 N9         -1.7127   -1.6108    1.2130 N.pl3     1 ATP        -0.1887
     23 C8         -2.0868   -2.9137    1.4327 C.ar      1 ATP         0.4447
     24 N7         -3.1125   -3.2756    0.6878 N.2       1 ATP        -0.6159
     25 C5         -3.4079   -2.1580   -0.0391 C.ar      1 ATP         0.2195
     26 C6         -4.4483   -1.9775   -1.0249 C.ar      1 ATP         0.6144
     27 N6         -5.2418   -2.9492   -1.3113 N.2       1 ATP        -0.8160
     28 N1         -4.3937   -0.6823   -1.5211 N.pl3     1 ATP        -0.8611
     29 C2         -3.4770    0.2901   -1.1271 C.ar      1 ATP         0.6141
     30 N3         -2.5289    0.1525   -0.2403 N.2       1 ATP        -0.5913
     31 C4         -2.5564   -1.1096    0.2655 C.ar      1 ATP         0.0067
     32 HOG3        2.2894    7.5639    1.4855 H         1 ATP         0.4313
     33 HOB2       -1.7177    5.8140   -1.2693 H         1 ATP         0.4716
     34 H5'1       -1.1769    2.0503    0.6369 H         1 ATP         0.0452
     35 H5'2       -0.2081    3.2815    1.4877 H         1 ATP         0.0452
     36 H4'         0.0403    1.7078    3.4343 H         1 ATP         0.0998
     37 H3'         1.5906    1.4859    1.1353 H         1 ATP         0.0544
     38 HO3'        2.6839   -0.1150    2.2479 H         1 ATP         0.3961
     39 H2'        -0.0017    0.0018    0.0005 H         1 ATP         0.0499
     40 HO2'        2.0953   -0.9375    0.0709 H         1 ATP         0.4045
     41 H1'        -0.1998   -1.6319    2.6178 H         1 ATP         0.0912
     42 H8         -1.5740   -3.5449    2.1457 H         1 ATP         0.1090
     43 HN62       -5.9117   -2.6433   -2.0256 H         1 ATP         0.3694
     44 H2         -3.6225    1.2454   -1.6553 H         1 ATP         0.0371
     45 H45        -5.0794   -0.4231   -2.2258 H         1 ATP         0.4283
@<TRIPOS>BOND
     1    1    2 2
     2    1    3 1
     3    1    4 1
     4    1    8 1
     5    4   32 1
     6    5    6 2
     7    5    7 1
     8    5    8 1
     9    5   12 1
    10    7   33 1
    11    9   10 2
    12    9   11 1
    13    9   12 1
    14    9   13 1
    15   13   14 1
    16   14   15 1
    17   14   34 1
    18   14   35 1
    19   15   16 1
    20   15   17 1
    21   15   36 1
    22   16   21 1
    23   17   18 1
    24   17   19 1
    25   17   37 1
    26   18   38 1
    27   19   20 1
    28   19   21 1
    29   19   39 1
    30   20   40 1
    31   21   22 1
    32   21   41 1
    33   22   23 ar
    34   22   31 ar
    35   23   24 ar
    36   23   42 1
    37   24   25 ar
    38   25   26 ar
    39   25   31 ar
    40   26   27 2
    41   26   28 ar
    42   27   43 1
    43   28   29 ar
    44   28   45 1
    45   29   30 ar
    46   29   44 1
    47   30   31 ar
@<TRIPOS>SUBSTRUCTURE
     1 ATP         1 GROUP 0 A     ****
@<TRIPOS>MOLECULE
[[[3,4-dihydroxy-5-(6-imino-1~{H}-purin-9-yl)tetrahydrofuran-2-yl]methoxy-oxido-phosphoryl]oxy-hydroxy-phosphoryl] hydrogen phosphate
   45    47     1     0     0
SMALL
USER_CHARGES

@<TRIPOS>ATOM
      1 PG          8.2306   -1.4020   -1.3685 P.3       1 ATP         1.5496
      2 O1G         8.5830   -1.7771   -2.7908 O.co2     1 ATP        -0.8494
      3 O2G         6.8385   -1.6359   -0.8255 O.co2     1 ATP        -0.8494
      4 O3G         9.3048   -2.1116   -0.3641 O.3       1 ATP        -0.7845
      5 PB          8.6415    1.0346    0.2415 P.3       1 ATP         1.9068
      6 O1B         9.5169    0.5158    1.3437 O.2       1 ATP        -0.8942
      7 O2B         8.9949    2.5271   -0.2693 O.3       1 ATP        -0.8166
      8 O3B         8.6461    0.1545   -1.1144 O.3       1 ATP        -0.8194
      9 PA          6.2526    1.9160    1.7306 P.3       1 ATP         1.5903
     10 O1A         6.3944    3.4001    1.4714 O.co2     1 ATP        -0.8519
     11 O2A         6.6248    1.3265    3.0736 O.co2     1 ATP        -0.8519
     12 O3A         7.0614    1.0994    0.5708 O.3       1 ATP        -0.8093
     13 O5'         4.7294    1.4426    1.3698 O.3       1 ATP        -0.5649
     14 C5'         4.0922    1.9801    0.2227 C.3       1 ATP         0.1979
     15 C4'         2.5944    2.0310    0.4653 C.3       1 ATP         0.1179
     16 O4'         1.9327    2.5740   -0.6889 O.3       1 ATP        -0.3878
     17 C3'         1.9685    0.6634    0.6767 C.3       1 ATP         0.1185
     18 O3'         2.1425    0.1975    1.9977 O.3       1 ATP        -0.5544
     19 C2'         0.5176    0.9128    0.3099 C.3       1 ATP         0.0542
     20 O2'        -0.2103    1.4454    1.4152 O.3       1 ATP        -0.5831
     21 C1'         0.6219    1.9765   -0.7844 C.3       1 ATP         0.2222
     22 N9          0.4237    1.4496   -2.1357 N.pl3     1 ATP        -0.1887
     23 C8          1.4069    0.9710   -2.9662 C.ar      1 ATP         0.4447
     24 N7          0.9316    0.5623   -4.1260 N.2       1 ATP        -0.6159
     25 C5         -0.4120    0.7884   -4.0344 C.ar      1 ATP         0.2195
     26 C6         -1.4353    0.5283   -5.0204 C.ar      1 ATP         0.6144
     27 N6         -1.1199    0.0176   -6.1586 N.2       1 ATP        -0.8160
     28 N1         -2.6704    0.9095   -4.5147 N.pl3     1 ATP        -0.8611
     29 C2         -2.8863    1.4571   -3.2520 C.ar      1 ATP         0.6141
     30 N3         -1.9805    1.7017   -2.3442 N.2       1 ATP        -0.5913
     31 C4         -0.7561    1.3381   -2.8112 C.ar      1 ATP         0.0067
     32 HOG3        9.2099   -1.9634    0.6009 H         1 ATP         0.4313
     33 HOB2        8.9519    3.2700    0.3698 H         1 ATP         0.4716
     34 H5'1        4.4844    2.9853    0.0382 H         1 ATP         0.0452
     35 H5'2        4.3192    1.3445   -0.6391 H         1 ATP         0.0452
     36 H4'         2.3751    2.7029    1.3156 H         1 ATP         0.0998
     37 H3'         2.4336   -0.1217   -0.0015 H         1 ATP         0.0544
     38 HO3'        3.0987    0.1465    2.1461 H         1 ATP         0.3961
     39 H2'         0.0316    0.0155   -0.0339 H         1 ATP         0.0499
     40 HO2'       -0.1608    0.7921    2.1351 H         1 ATP         0.4045
     41 H1'        -0.1474    2.7798   -0.6651 H         1 ATP         0.0912
     42 H8          2.4466    0.9468   -2.6694 H         1 ATP         0.1090
     43 HN62       -1.9661   -0.0965   -6.7275 H         1 ATP         0.3694
     44 H2         -3.9481    1.6825   -3.0660 H         1 ATP         0.0371
     45 H45        -3.4814    0.7753   -5.1133 H         1 ATP         0.4283
@<TRIPOS>BOND
     1    1    2 2
     2    1    3 1
     3    1    4 1
     4    1    8 1
     5    4   32 1
     6    5    6 2
     7    5    7 1
     8    5    8 1
     9    5   12 1
    10    7   33 1
    11    9   10 2
    12    9   11 1
    13    9   12 1
    14    9   13 1
    15   13   14 1
    16   14   15 1
    17   14   34 1
    18   14   35 1
    19   15   16 1
    20   15   17 1
    21   15   36 1
    22   16   21 1
    23   17   18 1
    24   17   19 1
    25   17   37 1
    26   18   38 1
    27   19   20 1
    28   19   21 1
    29   19   39 1
    30   20   40 1
    31   21   22 1
    32   21   41 1
    33   22   23 ar
    34   22   31 ar
    35   23   24 ar
    36   23   42 1
    37   24   25 ar
    38   25   26 ar
    39   25   31 ar
    40   26   27 2
    41   26   28 ar
    42   27   43 1
    43   28   29 ar
    44   28   45 1
    45   29   30 ar
    46   29   44 1
    47   30   31 ar
@<TRIPOS>SUBSTRUCTURE
     1 ATP         1 GROUP 0 A     ****
@<TRIPOS>MOLECULE
[[[3,4-dihydroxy-5-(6-imino-1~{H}-purin-9-yl)tetrahydrofuran-2-yl]methoxy-oxido-phosphoryl]oxy-hydroxy-phosphoryl] hydrogen phosphate
   45    47     1     0     0
SMALL
USER_CHARGES

@<TRIPOS>ATOM
      1 PG          0.9884    2.3290    7.9662 P.3       1 ATP         1.5496
      2 O1G         0.0693    2.4286    9.1633 O.co2     1 ATP        -0.8494
      3 O2G         2.2395    3.1738    7.8748 O.co2     1 ATP        -0.8494
      4 O3G         1.4040    0.7633    7.7607 O.3       1 ATP        -0.7845
      5 PB         -0.6713    3.8305    6.0456 P.3       1 ATP         1.9068
      6 O1B        -1.7478    4.3670    6.9422 O.2       1 ATP        -0.8942
      7 O2B         0.5161    4.8722    5.7015 O.3       1 ATP        -0.8166
      8 O3B         0.1095    2.5314    6.6073 O.3       1 ATP        -0.8194
      9 PA         -1.9154    4.0917    3.3839 P.3       1 ATP         1.5903
     10 O1A        -0.9828    5.1481    2.8324 O.co2     1 ATP        -0.8519
     11 O2A        -3.3086    4.4564    3.8487 O.co2     1 ATP        -0.8519
     12 O3A        -1.1597    3.3045    4.5985 O.3       1 ATP        -0.8093
     13 O5'        -2.0402    2.8619    2.3130 O.3       1 ATP        -0.5649
     14 C5'        -0.8811    2.4285    1.6206 C.3       1 ATP         0.1979
     15 C4'        -0.1994    1.3333    2.4288 C.3       1 ATP         0.1179
     16 O4'        -1.1285    0.2356    2.5840 O.3       1 ATP        -0.3878
     17 C3'         1.0324    0.7610    1.7344 C.3       1 ATP         0.1185
     18 O3'         1.9175    0.2377    2.7247 O.3       1 ATP        -0.5544
     19 C2'         0.4468   -0.3802    0.9263 C.3       1 ATP         0.0542
     20 O2'         1.3993   -1.3703    0.5961 O.3       1 ATP        -0.5831
     21 C1'        -0.6159   -0.9100    1.8769 C.3       1 ATP         0.2222
     22 N9         -1.7127   -1.6108    1.2130 N.pl3     1 ATP        -0.1887
     23 C8         -2.5485   -1.0808    0.2609 C.ar      1 ATP         0.4447
     24 N7         -3.4476   -1.9486   -0.1593 N.2       1 ATP        -0.6159
     25 C5         -3.1762   -3.0816    0.5530 C.ar      1 ATP         0.2195
     26 C6         -3.8510   -4.3579    0.5006 C.ar      1 ATP         0.6144
     27 N6         -4.8468   -4.5293   -0.2961 N.2       1 ATP        -0.8160
     28 N1         -3.2499   -5.2342    1.3937 N.pl3     1 ATP        -0.8611
     29 C2         -2.1646   -4.9275    2.2116 C.ar      1 ATP         0.6141
     30 N3         -1.5382   -3.7840    2.2778 N.2       1 ATP        -0.5913
     31 C4         -2.1054   -2.9018    1.4120 C.ar      1 ATP         0.0067
     32 HOG3        2.0021    0.5328    7.0182 H         1 ATP         0.4313
     33 HOB2        1.0508    5.2419    6.4361 H         1 ATP         0.4716
     34 H5'1       -1.1769    2.0503    0.6369 H         1 ATP         0.0452
     35 H5'2       -0.2081    3.2815    1.4877 H         1 ATP         0.0452
     36 H4'         0.0403    1.7078    3.4343 H         1 ATP         0.0998
     37 H3'         1.5906    1.4859    1.1353 H         1 ATP         0.0544
     38 HO3'        2.6839   -0.1150    2.2479 H         1 ATP         0.3961
     39 H2'        -0.0017    0.0018    0.0005 H         1 ATP         0.0499
     40 HO2'        1.7495   -1.7243    1.4324 H         1 ATP         0.4045
     41 H1'        -0.1998   -1.6319    2.6178 H         1 ATP         0.0912
     42 H8         -2.4515   -0.0599   -0.0829 H         1 ATP         0.1090
     43 HN62       -5.1990   -5.4882   -0.2004 H         1 ATP         0.3694
     44 H2         -1.8555   -5.7783    2.8388 H         1 ATP         0.0371
     45 H45        -3.6312   -6.1750    1.4526 H         1 ATP         0.4283
@<TRIPOS>BOND
     1    1    2 2
     2    1    3 1
     3    1    4 1
     4    1    8 1
     5    4   32 1
     6    5    6 2
     7    5    7 1
     8    5    8 1
     9    5   12 1
    10    7   33 1
    11    9   10 2
    12    9   11 1
    13    9   12 1
    14    9   13 1
    15   13   14 1
    16   14   15 1
    17   14   34 1
    18   14   35 1
    19   15   16 1
    20   15   17 1
    21   15   36 1
    22   16   21 1
    23   17   18 1
    24   17   19 1
    25   17   37 1
    26   18   38 1
    27   19   20 1
    28   19   21 1
    29   19   39 1
    30   20   40 1
    31   21   22 1
    32   21   41 1
    33   22   23 ar
    34   22   31 ar
    35   23   24 ar
    36   23   42 1
    37   24   25 ar
    38   25   26 ar
    39   25   31 ar
    40   26   27 2
    41   26   28 ar
    42   27   43 1
    43   28   29 ar
    44   28   45 1
    45   29   30 ar
    46   29   44 1
    47   30   31 ar
@<TRIPOS>SUBSTRUCTURE
     1 ATP         1 GROUP 0 A     ****
@<TRIPOS>MOLECULE
[[[3,4-dihydroxy-5-(6-imino-1~{H}-purin-9-yl)tetrahydrofuran-2-yl]methoxy-oxido-phosphoryl]oxy-hydroxy-phosphoryl] hydrogen phosphate
   45    47     1     0     0
SMALL
USER_CHARGES

@<TRIPOS>ATOM
      1 PG         -2.6715    7.1748    5.6737 P.3       1 ATP         1.5496
      2 O1G        -4.1523    7.4535    5.5425 O.co2     1 ATP        -0.8494
      3 O2G        -1.6902    8.2954    5.9358 O.co2     1 ATP        -0.8494
      4 O3G        -2.4597    6.0235    6.8121 O.3       1 ATP        -0.7845
      5 PB         -2.0756    6.7569    2.8157 P.3       1 ATP         1.9068
      6 O1B        -3.3707    7.1691    2.1809 O.2       1 ATP        -0.8942
      7 O2B        -0.9170    7.8844    2.8035 O.3       1 ATP        -0.8166
      8 O3B        -2.1761    6.3278    4.3709 O.3       1 ATP        -0.8194
      9 PA          0.0330    4.7082    2.5759 P.3       1 ATP         1.5903
     10 O1A        -0.1147    4.1095    3.9578 O.co2     1 ATP        -0.8519
     11 O2A         1.1818    5.6395    2.2553 O.co2     1 ATP        -0.8519
     12 O3A        -1.3612    5.4575    2.1750 O.3       1 ATP        -0.8093
     13 O5'         0.0180    3.5131    1.4595 O.3       1 ATP        -0.5649
     14 C5'        -0.8811    2.4285    1.6206 C.3       1 ATP         0.1979
     15 C4'        -0.1994    1.3333    2.4288 C.3       1 ATP         0.1179
     16 O4'        -1.1285    0.2356    2.5840 O.3       1 ATP        -0.3878
     17 C3'         1.0324    0.7610    1.7344 C.3       1 ATP         0.1185
     18 O3'         1.9175    0.2377    2.7247 O.3       1 ATP        -0.5544
     19 C2'         0.4468   -0.3802    0.9263 C.3       1 ATP         0.0542
     20 O2'         1.3993   -1.3703    0.5961 O.3       1 ATP        -0.5831
     21 C1'        -0.6159   -0.9100    1.8769 C.3       1 ATP         0.2222
     22 N9         -1.7127   -1.6108    1.2130 N.pl3     1 ATP        -0.1887
     23 C8         -2.0868   -2.9137    1.4327 C.ar      1 ATP         0.4447
     24 N7         -3.1125   -3.2756    0.6878 N.2       1 ATP        -0.6159
     25 C5         -3.4079   -2.1580   -0.0391 C.ar      1 ATP         0.2195
     26 C6         -4.4483   -1.9775   -1.0249 C.ar      1 ATP         0.6144
     27 N6         -5.2418   -2.9492   -1.3113 N.2       1 ATP        -0.8160
     28 N1         -4.3937   -0.6823   -1.5211 N.pl3     1 ATP        -0.8611
     29 C2         -3.4770    0.2901   -1.1271 C.ar      1 ATP         0.6141
     30 N3         -2.5289    0.1525   -0.2403 N.2       1 ATP        -0.5913
     31 C4         -2.5564   -1.1096    0.2655 C.ar      1 ATP         0.0067
     32 HOG3       -1.5459    5.7304    7.0150 H         1 ATP         0.4313
     33 HOB2       -1.0828    8.7400    3.2538 H         1 ATP         0.4716
     34 H5'1       -1.7770    2.7851    2.1387 H         1 ATP         0.0452
     35 H5'2       -1.1653    2.0543    0.6320 H         1 ATP         0.0452
     36 H4'         0.0403    1.7078    3.4343 H         1 ATP         0.0998
     37 H3'         1.5906    1.4859    1.1353 H         1 ATP         0.0544
     38 HO3'        2.6839   -0.1150    2.2479 H         1 ATP         0.3961
     39 H2'        -0.0017    0.0018    0.0005 H         1 ATP         0.0499
     40 HO2'        2.0953   -0.9375    0.0709 H         1 ATP         0.4045
     41 H1'        -0.1998   -1.6319    2.6178 H         1 ATP         0.0912
     42 H8         -1.5740   -3.5449    2.1457 H         1 ATP         0.1090
     43 HN62       -5.9117   -2.6433   -2.0256 H         1 ATP         0.3694
     44 H2         -3.6225    1.2454   -1.6553 H         1 ATP         0.0371
     45 H45        -5.0794   -0.4231   -2.2258 H         1 ATP         0.4283
@<TRIPOS>BOND
     1    1    2 2
     2    1    3 1
     3    1    4 1
     4    1    8 1
     5    4   32 1
     6    5    6 2
     7    5    7 1
     8    5    8 1
     9    5   12 1
    10    7   33 1
    11    9   10 2
    12    9   11 1
    13    9   12 1
    14    9   13 1
    15   13   14 1
    16   14   15 1
    17   14   34 1
    18   14   35 1
    19   15   16 1
    20   15   17 1
    21   15   36 1
    22   16   21 1
    23   17   18 1
    24   17   19 1
    25   17   37 1
    26   18   38 1
    27   19   20 1
    28   19   21 1
    29   19   39 1
    30   20   40 1
    31   21   22 1
    32   21   41 1
    33   22   23 ar
    34   22   31 ar
    35   23   24 ar
    36   23   42 1
    37   24   25 ar
    38   25   26 ar
    39   25   31 ar
    40   26   27 2
    41   26   28 ar
    42   27   43 1
    43   28   29 ar
    44   28   45 1
    45   29   30 ar
    46   29   44 1
    47   30   31 ar
@<TRIPOS>SUBSTRUCTURE
     1 ATP         1 GROUP 0 A     ****
@<TRIPOS>MOLECULE
[[[3,4-dihydroxy-5-(6-imino-1~{H}-purin-9-yl)tetrahydrofuran-2-yl]methoxy-oxido-phosphoryl]oxy-hydroxy-phosphoryl] hydrogen phosphate
   45    47     1     0     0
SMALL
USER_CHARGES

@<TRIPOS>ATOM
      1 PG         -5.1825    5.2090   -2.5619 P.3       1 ATP         1.5496
      2 O1G        -6.2909    6.0956   -2.0390 O.co2     1 ATP        -0.8494
      3 O2G        -5.4948    3.9733   -3.3760 O.co2     1 ATP        -0.8494
      4 O3G        -4.1333    6.1337   -3.4047 O.3       1 ATP        -0.7845
      5 PB         -3.4460    5.7176   -0.2330 P.3       1 ATP         1.9068
      6 O1B        -2.4728    6.7078   -0.8012 O.2       1 ATP        -0.8942
      7 O2B        -4.6501    6.3600    0.6337 O.3       1 ATP        -0.8166
      8 O3B        -4.2068    4.7964   -1.3217 O.3       1 ATP        -0.8194
      9 PA         -2.0037    4.7527    2.1524 P.3       1 ATP         1.5903
     10 O1A        -2.9379    5.3281    3.1946 O.co2     1 ATP        -0.8519
     11 O2A        -0.6720    5.4094    1.8606 O.co2     1 ATP        -0.8519
     12 O3A        -2.8171    4.5964    0.7452 O.3       1 ATP        -0.8093
     13 O5'        -1.7337    3.1724    2.4752 O.3       1 ATP        -0.5649
     14 C5'        -0.8811    2.4285    1.6206 C.3       1 ATP         0.1979
     15 C4'        -0.1994    1.3333    2.4288 C.3       1 ATP         0.1179
     16 O4'        -1.1285    0.2356    2.5840 O.3       1 ATP        -0.3878
     17 C3'         1.0324    0.7610    1.7344 C.3       1 ATP         0.1185
     18 O3'         1.9175    0.2377    2.7247 O.3       1 ATP        -0.5544
     19 C2'         0.4468   -0.3802    0.9263 C.3       1 ATP         0.0542
     20 O2'         1.3993   -1.3703    0.5961 O.3       1 ATP        -0.5831
     21 C1'        -0.6159   -0.9100    1.8769 C.3       1 ATP         0.2222
     22 N9         -1.7127   -1.6108    1.2130 N.pl3     1 ATP        -0.1887
     23 C8         -2.5485   -1.0808    0.2609 C.ar      1 ATP         0.4447
     24 N7         -3.4476   -1.9486   -0.1593 N.2       1 ATP        -0.6159
     25 C5         -3.1762   -3.0816    0.5530 C.ar      1 ATP         0.2195
     26 C6         -3.8510   -4.3579    0.5006 C.ar      1 ATP         0.6144
     27 N6         -4.8468   -4.5293   -0.2961 N.2       1 ATP        -0.8160
     28 N1         -3.2499   -5.2342    1.3937 N.pl3     1 ATP        -0.8611
     29 C2         -2.1646   -4.9275    2.2116 C.ar      1 ATP         0.6141
     30 N3         -1.5382   -3.7840    2.2778 N.2       1 ATP        -0.5913
     31 C4         -2.1054   -2.9018    1.4120 C.ar      1 ATP         0.0067
     32 HOG3       -3.6814    6.8693   -2.9392 H         1 ATP         0.4313
     33 HOB2       -5.2597    6.9952    0.2011 H         1 ATP         0.4716
     34 H5'1       -1.4801    1.9928    0.8147 H         1 ATP         0.0452
     35 H5'2       -0.1369    3.1041    1.1872 H         1 ATP         0.0452
     36 H4'         0.0403    1.7078    3.4343 H         1 ATP         0.0998
     37 H3'         1.5906    1.4859    1.1353 H         1 ATP         0.0544
     38 HO3'        2.6839   -0.1150    2.2479 H         1 ATP         0.3961
     39 H2'        -0.0017    0.0018    0.0005 H         1 ATP         0.0499
     40 HO2'        1.7495   -1.7243    1.4324 H         1 ATP         0.4045
     41 H1'        -0.1998   -1.6319    2.6178 H         1 ATP         0.0912
     42 H8         -2.4515   -0.0599   -0.0829 H         1 ATP         0.1090
     43 HN62       -5.1990   -5.4882   -0.2004 H         1 ATP         0.3694
     44 H2         -1.8555   -5.7783    2.8388 H         1 ATP         0.0371
     45 H45        -3.6312   -6.1750    1.4526 H         1 ATP         0.4283
@<TRIPOS>BOND
     1    1    2 2
     2    1    3 1
     3    1    4 1
     4    1    8 1
     5    4   32 1
     6    5    6 2
     7    5    7 1
     8    5    8 1
     9    5   12 1
    10    7   33 1
    11    9   10 2
    12    9   11 1
    13    9   12 1
    14    9   13 1
    15   13   14 1
    16   14   15 1
    17   14   34 1
    18   14   35 1
    19   15   16 1
    20   15   17 1
    21   15   36 1
    22   16   21 1
    23   17   18 1
    24   17   19 1
    25   17   37 1
    26   18   38 1
    27   19   20 1
    28   19   21 1
    29   19   39 1
    30   20   40 1
    31   21   22 1
    32   21   41 1
    33   22   23 ar
    34   22   31 ar
    35   23   24 ar
    36   23   42 1
    37   24   25 ar
    38   25   26 ar
    39   25   31 ar
    40   26   27 2
    41   26   28 ar
    42   27   43 1
    43   28   29 ar
    44   28   45 1
    45   29   30 ar
    46   29   44 1
    47   30   31 ar
@<TRIPOS>SUBSTRUCTURE
     1 ATP         1 GROUP 0 A     ****
@<TRIPOS>MOLECULE
[[[3,4-dihydroxy-5-(6-imino-1~{H}-purin-9-yl)tetrahydrofuran-2-yl]methoxy-oxido-phosphoryl]oxy-hydroxy-phosphoryl] hydrogen phosphate
   45    47     1     0     0
SMALL
USER_CHARGES

@<TRIPOS>ATOM
      1 PG         -5.1441    1.5178    1.8356 P.3       1 ATP         1.5496
      2 O1G        -5.7458    0.4038    1.0082 O.co2     1 ATP        -0.8494
      3 O2G        -6.0240    2.5437    2.5146 O.co2     1 ATP        -0.8494
      4 O3G        -4.1589    0.8563    2.9572 O.3       1 ATP        -0.7845
      5 PB         -4.1740    3.2017   -0.3828 P.3       1 ATP         1.9068
      6 O1B        -4.7841    2.5108   -1.5663 O.2       1 ATP        -0.8942
      7 O2B        -4.9771    4.5038    0.1398 O.3       1 ATP        -0.8166
      8 O3B        -4.0185    2.2900    0.9429 O.3       1 ATP        -0.8194
      9 PA         -1.2907    2.9170   -0.9365 P.3       1 ATP         1.5903
     10 O1A        -0.1221    3.8762   -0.8700 O.co2     1 ATP        -0.8519
     11 O2A        -1.5398    2.0863   -2.1765 O.co2     1 ATP        -0.8519
     12 O3A        -2.6608    3.7311   -0.5813 O.3       1 ATP        -0.8093
     13 O5'        -1.2434    1.9102    0.3514 O.3       1 ATP        -0.5649
     14 C5'        -0.8811    2.4285    1.6206 C.3       1 ATP         0.1979
     15 C4'        -0.1994    1.3333    2.4288 C.3       1 ATP         0.1179
     16 O4'        -1.1285    0.2356    2.5840 O.3       1 ATP        -0.3878
     17 C3'         1.0324    0.7610    1.7344 C.3       1 ATP         0.1185
     18 O3'         1.9175    0.2377    2.7247 O.3       1 ATP        -0.5544
     19 C2'         0.4468   -0.3802    0.9263 C.3       1 ATP         0.0542
     20 O2'         1.3993   -1.3703    0.5961 O.3       1 ATP        -0.5831
     21 C1'        -0.6159   -0.9100    1.8769 C.3       1 ATP         0.2222
     22 N9         -1.7127   -1.6108    1.2130 N.pl3     1 ATP        -0.1887
     23 C8         -2.8662   -1.0361    0.7388 C.ar      1 ATP         0.4447
     24 N7         -3.6774   -1.9166    0.1867 N.2       1 ATP        -0.6159
     25 C5         -3.0159   -3.1045    0.3123 C.ar      1 ATP         0.2195
     26 C6         -3.4377   -4.4169   -0.1199 C.ar      1 ATP         0.6144
     27 N6         -4.5720   -4.5691   -0.7080 N.2       1 ATP        -0.8160
     28 N1         -2.4600   -5.3463    0.2071 N.pl3     1 ATP        -0.8611
     29 C2         -1.2595   -5.0554    0.8515 C.ar      1 ATP         0.6141
     30 N3         -0.8555   -3.8803    1.2516 N.2       1 ATP        -0.5913
     31 C4         -1.7946   -2.9457    0.9448 C.ar      1 ATP         0.0067
     32 HOG3       -3.6896    1.4544    3.5771 H         1 ATP         0.4313
     33 HOB2       -5.9049    4.3999    0.4409 H         1 ATP         0.4716
     34 H5'1       -0.2034    3.2760    1.4767 H         1 ATP         0.0452
     35 H5'2       -1.7842    2.7761    2.1322 H         1 ATP         0.0452
     36 H4'         0.0403    1.7078    3.4343 H         1 ATP         0.0998
     37 H3'         1.5906    1.4859    1.1353 H         1 ATP         0.0544
     38 HO3'        2.6839   -0.1150    2.2479 H         1 ATP         0.3961
     39 H2'        -0.0017    0.0018    0.0005 H         1 ATP         0.0499
     40 HO2'        2.0953   -0.9375    0.0709 H         1 ATP         0.4045
     41 H1'        -0.1998   -1.6319    2.6178 H         1 ATP         0.0912
     42 H8         -3.0558    0.0252    0.8256 H         1 ATP         0.1090
     43 HN62       -4.7047   -5.5592   -0.9421 H         1 ATP         0.3694
     44 H2         -0.6372   -5.9505    1.0077 H         1 ATP         0.0371
     45 H45        -2.6338   -6.3155   -0.0469 H         1 ATP         0.4283
@<TRIPOS>BOND
     1    1    2 2
     2    1    3 1
     3    1    4 1
     4    1    8 1
     5    4   32 1
     6    5    6 2
     7    5    7 1
     8    5    8 1
     9    5   12 1
    10    7   33 1
    11    9   10 2
    12    9   11 1
    13    9   12 1
    14    9   13 1
    15   13   14 1
    16   14   15 1
    17   14   34 1
    18   14   35 1
    19   15   16 1
    20   15   17 1
    21   15   36 1
    22   16   21 1
    23   17   18 1
    24   17   19 1
    25   17   37 1
    26   18   38 1
    27   19   20 1
    28   19   21 1
    29   19   39 1
    30   20   40 1
    31   21   22 1
    32   21   41 1
    33   22   23 ar
    34   22   31 ar
    35   23   24 ar
    36   23   42 1
    37   24   25 ar
    38   25   26 ar
    39   25   31 ar
    40   26   27 2
    41   26   28 ar
    42   27   43 1
    43   28   29 ar
    44   28   45 1
    45   29   30 ar
    46   29   44 1
    47   30   31 ar
@<TRIPOS>SUBSTRUCTURE
     1 ATP         1 GROUP 0 A     ****
@<TRIPOS>MOLECULE
[[[3,4-dihydroxy-5-(6-imino-1~{H}-purin-9-yl)tetrahydrofuran-2-yl]methoxy-oxido-phosphoryl]oxy-hydroxy-phosphoryl] hydrogen phosphate
   45    47     1     0     0
SMALL
USER_CHARGES

@<TRIPOS>ATOM
      1 PG         -4.3725    5.6806   -2.5863 P.3       1 ATP         1.5496
      2 O1G        -5.0930    4.6709   -3.4518 O.co2     1 ATP        -0.8494
      3 O2G        -3.2181    6.4900   -3.1338 O.co2     1 ATP        -0.8494
      4 O3G        -5.4762    6.7089   -1.9614 O.3       1 ATP        -0.7845
      5 PB         -4.7530    4.0980   -0.1270 P.3       1 ATP         1.9068
      6 O1B        -5.8830    4.8365    0.5273 O.2       1 ATP        -0.8942
      7 O2B        -5.1835    2.7711   -0.9441 O.3       1 ATP        -0.8166
      8 O3B        -3.9033    4.9525   -1.2044 O.3       1 ATP        -0.8194
      9 PA         -2.5926    4.4186    1.8557 P.3       1 ATP         1.5903
     10 O1A        -3.4218    5.0535    2.9508 O.co2     1 ATP        -0.8519
     11 O2A        -1.6628    5.2565    1.0052 O.co2     1 ATP        -0.8519
     12 O3A        -3.5835    3.5841    0.8618 O.3       1 ATP        -0.8093
     13 O5'        -1.7337    3.1724    2.4752 O.3       1 ATP        -0.5649
     14 C5'        -0.8811    2.4285    1.6206 C.3       1 ATP         0.1979
     15 C4'        -0.1994    1.3333    2.4288 C.3       1 ATP         0.1179
     16 O4'        -1.1285    0.2356    2.5840 O.3       1 ATP        -0.3878
     17 C3'         1.0324    0.7610    1.7344 C.3       1 ATP         0.1185
     18 O3'         1.9175    0.2377    2.7247 O.3       1 ATP        -0.5544
     19 C2'         0.4468   -0.3802    0.9263 C.3       1 ATP         0.0542
     20 O2'         1.3993   -1.3703    0.5961 O.3       1 ATP        -0.5831
     21 C1'        -0.6159   -0.9100    1.8769 C.3       1 ATP         0.2222
     22 N9         -1.7127   -1.6108    1.2130 N.pl3     1 ATP        -0.1887
     23 C8         -2.0868   -2.9137    1.4327 C.ar      1 ATP         0.4447
     24 N7         -3.1125   -3.2756    0.6878 N.2       1 ATP        -0.6159
     25 C5         -3.4079   -2.1580   -0.0391 C.ar      1 ATP         0.2195
     26 C6         -4.4483   -1.9775   -1.0249 C.ar      1 ATP         0.6144
     27 N6         -5.2418   -2.9492   -1.3113 N.2       1 ATP        -0.8160
     28 N1         -4.3937   -0.6823   -1.5211 N.pl3     1 ATP        -0.8611
     29 C2         -3.4770    0.2901   -1.1271 C.ar      1 ATP         0.6141
     30 N3         -2.5289    0.1525   -0.2403 N.2       1 ATP        -0.5913
     31 C4         -2.5564   -1.1096    0.2655 C.ar      1 ATP         0.0067
     32 HOG3       -5.1631    7.4283   -1.3727 H         1 ATP         0.4313
     33 HOB2       -5.8100    2.8580   -1.6939 H         1 ATP         0.4716
     34 H5'1       -1.4801    1.9928    0.8147 H         1 ATP         0.0452
     35 H5'2       -0.1369    3.1041    1.1872 H         1 ATP         0.0452
     36 H4'         0.0403    1.7078    3.4343 H         1 ATP         0.0998
     37 H3'         1.5906    1.4859    1.1353 H         1 ATP         0.0544
     38 HO3'        2.6839   -0.1150    2.2479 H         1 ATP         0.3961
     39 H2'        -0.0017    0.0018    0.0005 H         1 ATP         0.0499
     40 HO2'        2.0953   -0.9375    0.0709 H         1 ATP         0.4045
     41 H1'        -0.1998   -1.6319    2.6178 H         1 ATP         0.0912
     42 H8         -1.5740   -3.5449    2.1457 H         1 ATP         0.1090
     43 HN62       -5.9117   -2.6433   -2.0256 H         1 ATP         0.3694
     44 H2         -3.6225    1.2454   -1.6553 H         1 ATP         0.0371
     45 H45        -5.0794   -0.4231   -2.2258 H         1 ATP         0.4283
@<TRIPOS>BOND
     1    1    2 2
     2    1    3 1
     3    1    4 1
     4    1    8 1
     5    4   32 1
     6    5    6 2
     7    5    7 1
     8    5    8 1
     9    5   12 1
    10    7   33 1
    11    9   10 2
    12    9   11 1
    13    9   12 1
    14    9   13 1
    15   13   14 1
    16   14   15 1
    17   14   34 1
    18   14   35 1
    19   15   16 1
    20   15   17 1
    21   15   36 1
    22   16   21 1
    23   17   18 1
    24   17   19 1
    25   17   37 1
    26   18   38 1
    27   19   20 1
    28   19   21 1
    29   19   39 1
    30   20   40 1
    31   21   22 1
    32   21   41 1
    33   22   23 ar
    34   22   31 ar
    35   23   24 ar
    36   23   42 1
    37   24   25 ar
    38   25   26 ar
    39   25   31 ar
    40   26   27 2
    41   26   28 ar
    42   27   43 1
    43   28   29 ar
    44   28   45 1
    45   29   30 ar
    46   29   44 1
    47   30   31 ar
@<TRIPOS>SUBSTRUCTURE
     1 ATP         1 GROUP 0 A     ****
@<TRIPOS>MOLECULE
[[[3,4-dihydroxy-5-(6-imino-1~{H}-purin-9-yl)tetrahydrofuran-2-yl]methoxy-oxido-phosphoryl]oxy-hydroxy-phosphoryl] hydrogen phosphate
   45    47     1     0     0
SMALL
USER_CHARGES

@<TRIPOS>ATOM
      1 PG         -4.0095    6.3787   -2.6614 P.3       1 ATP         1.5496
      2 O1G        -3.3779    7.6812   -3.0997 O.co2     1 ATP        -0.8494
      3 O2G        -5.3667    6.3591   -1.9943 O.co2     1 ATP        -0.8494
      4 O3G        -4.0459    5.3642   -3.9404 O.3       1 ATP        -0.7845
      5 PB         -1.4126    5.1413   -2.0113 P.3       1 ATP         1.9068
      6 O1B        -1.2011    4.2555   -3.2034 O.2       1 ATP        -0.8942
      7 O2B        -0.6291    6.5546   -2.0601 O.3       1 ATP        -0.8166
      8 O3B        -2.9473    5.5636   -1.7301 O.3       1 ATP        -0.8194
      9 PA          0.4529    3.9703   -0.0492 P.3       1 ATP         1.5903
     10 O1A         1.4112    5.1385    0.0342 O.co2     1 ATP        -0.8519
     11 O2A         0.8147    2.7278   -0.8334 O.co2     1 ATP        -0.8519
     12 O3A        -0.9915    4.5116   -0.5846 O.3       1 ATP        -0.8093
     13 O5'         0.0180    3.5131    1.4595 O.3       1 ATP        -0.5649
     14 C5'        -0.8811    2.4285    1.6206 C.3       1 ATP         0.1979
     15 C4'        -0.1994    1.3333    2.4288 C.3       1 ATP         0.1179
     16 O4'        -1.1285    0.2356    2.5840 O.3       1 ATP        -0.3878
     17 C3'         1.0324    0.7610    1.7344 C.3       1 ATP         0.1185
     18 O3'         1.9175    0.2377    2.7247 O.3       1 ATP        -0.5544
     19 C2'         0.4468   -0.3802    0.9263 C.3       1 ATP         0.0542
     20 O2'         1.3993   -1.3703    0.5961 O.3       1 ATP        -0.5831
     21 C1'        -0.6159   -0.9100    1.8769 C.3       1 ATP         0.2222
     22 N9         -1.7127   -1.6108    1.2130 N.pl3     1 ATP        -0.1887
     23 C8         -2.8662   -1.0361    0.7388 C.ar      1 ATP         0.4447
     24 N7         -3.6774   -1.9166    0.1867 N.2       1 ATP        -0.6159
     25 C5         -3.0159   -3.1045    0.3123 C.ar      1 ATP         0.2195
     26 C6         -3.4377   -4.4169   -0.1199 C.ar      1 ATP         0.6144
     27 N6         -4.5720   -4.5691   -0.7080 N.2       1 ATP        -0.8160
     28 N1         -2.4600   -5.3463    0.2071 N.pl3     1 ATP        -0.8611
     29 C2         -1.2595   -5.0554    0.8515 C.ar      1 ATP         0.6141
     30 N3         -0.8555   -3.8803    1.2516 N.2       1 ATP        -0.5913
     31 C4         -1.7946   -2.9457    0.9448 C.ar      1 ATP         0.0067
     32 HOG3       -3.1962    5.1135   -4.3615 H         1 ATP         0.4313
     33 HOB2       -0.8199    7.1779   -2.7932 H         1 ATP         0.4716
     34 H5'1       -1.7770    2.7851    2.1387 H         1 ATP         0.0452
     35 H5'2       -1.1653    2.0543    0.6320 H         1 ATP         0.0452
     36 H4'         0.0403    1.7078    3.4343 H         1 ATP         0.0998
     37 H3'         1.5906    1.4859    1.1353 H         1 ATP         0.0544
     38 HO3'        2.1521    0.9800    3.3017 H         1 ATP         0.3961
     39 H2'        -0.0017    0.0018    0.0005 H         1 ATP         0.0499
     40 HO2'        0.9369   -2.0558    0.0825 H         1 ATP         0.4045
     41 H1'        -0.1998   -1.6319    2.6178 H         1 ATP         0.0912
     42 H8         -3.0558    0.0252    0.8256 H         1 ATP         0.1090
     43 HN62       -4.7047   -5.5592   -0.9421 H         1 ATP         0.3694
     44 H2         -0.6372   -5.9505    1.0077 H         1 ATP         0.0371
     45 H45        -2.6338   -6.3155   -0.0469 H         1 ATP         0.4283
@<TRIPOS>BOND
     1    1    2 2
     2    1    3 1
     3    1    4 1
     4    1    8 1
     5    4   32 1
     6    5    6 2
     7    5    7 1
     8    5    8 1
     9    5   12 1
    10    7   33 1
    11    9   10 2
    12    9   11 1
    13    9   12 1
    14    9   13 1
    15   13   14 1
    16   14   15 1
    17   14   34 1
    18   14   35 1
    19   15   16 1
    20   15   17 1
    21   15   36 1
    22   16   21 1
    23   17   18 1
    24   17   19 1
    25   17   37 1
    26   18   38 1
    27   19   20 1
    28   19   21 1
    29   19   39 1
    30   20   40 1
    31   21   22 1
    32   21   41 1
    33   22   23 ar
    34   22   31 ar
    35   23   24 ar
    36   23   42 1
    37   24   25 ar
    38   25   26 ar
    39   25   31 ar
    40   26   27 2
    41   26   28 ar
    42   27   43 1
    43   28   29 ar
    44   28   45 1
    45   29   30 ar
    46   29   44 1
    47   30   31 ar
@<TRIPOS>SUBSTRUCTURE
     1 ATP         1 GROUP 0 A     ****
@<TRIPOS>MOLECULE
[[[3,4-dihydroxy-5-(6-imino-1~{H}-purin-9-yl)tetrahydrofuran-2-yl]methoxy-oxido-phosphoryl]oxy-hydroxy-phosphoryl] hydrogen phosphate
   45    47     1     0     0
SMALL
USER_CHARGES

@<TRIPOS>ATOM
      1 PG          6.9034    0.0393    5.5227 P.3       1 ATP         1.5496
      2 O1G         7.2566    0.9217    6.6993 O.co2     1 ATP        -0.8494
      3 O2G         7.8876   -0.9794    4.9925 O.co2     1 ATP        -0.8494
      4 O3G         5.4957   -0.7210    5.8493 O.3       1 ATP        -0.7845
      5 PB          7.1995    2.0557    3.3910 P.3       1 ATP         1.9068
      6 O1B         7.8024    3.2008    4.1497 O.2       1 ATP        -0.8942
      7 O2B         8.2534    1.1517    2.5630 O.3       1 ATP        -0.8166
      8 O3B         6.3959    0.9798    4.2907 O.3       1 ATP        -0.8194
      9 PA          6.1803    3.4024    0.9726 P.3       1 ATP         1.5903
     10 O1A         7.1177    2.7556   -0.0239 O.co2     1 ATP        -0.8519
     11 O2A         6.4009    4.8281    1.4291 O.co2     1 ATP        -0.8519
     12 O3A         6.0800    2.4505    2.2954 O.3       1 ATP        -0.8093
     13 O5'         4.6405    3.2701    0.4379 O.3       1 ATP        -0.5649
     14 C5'         4.0922    1.9801    0.2227 C.3       1 ATP         0.1979
     15 C4'         2.5944    2.0310    0.4653 C.3       1 ATP         0.1179
     16 O4'         1.9327    2.5740   -0.6889 O.3       1 ATP        -0.3878
     17 C3'         1.9685    0.6634    0.6767 C.3       1 ATP         0.1185
     18 O3'         2.1425    0.1975    1.9977 O.3       1 ATP        -0.5544
     19 C2'         0.5176    0.9128    0.3099 C.3       1 ATP         0.0542
     20 O2'        -0.2103    1.4454    1.4152 O.3       1 ATP        -0.5831
     21 C1'         0.6219    1.9765   -0.7844 C.3       1 ATP         0.2222
     22 N9          0.4237    1.4496   -2.1357 N.pl3     1 ATP        -0.1887
     23 C8          1.4069    0.9710   -2.9662 C.ar      1 ATP         0.4447
     24 N7          0.9316    0.5623   -4.1260 N.2       1 ATP        -0.6159
     25 C5         -0.4120    0.7884   -4.0344 C.ar      1 ATP         0.2195
     26 C6         -1.4353    0.5283   -5.0204 C.ar      1 ATP         0.6144
     27 N6         -1.1199    0.0176   -6.1586 N.2       1 ATP        -0.8160
     28 N1         -2.6704    0.9095   -4.5147 N.pl3     1 ATP        -0.8611
     29 C2         -2.8863    1.4571   -3.2520 C.ar      1 ATP         0.6141
     30 N3         -1.9805    1.7017   -2.3442 N.2       1 ATP        -0.5913
     31 C4         -0.7561    1.3381   -2.8112 C.ar      1 ATP         0.0067
     32 HOG3        5.1298   -1.3346    5.1772 H         1 ATP         0.4313
     33 HOB2        8.7954    1.5754    1.8638 H         1 ATP         0.4716
     34 H5'1        4.3029    1.6730   -0.8066 H         1 ATP         0.0452
     35 H5'2        4.5678    1.2739    0.9106 H         1 ATP         0.0452
     36 H4'         2.3751    2.7029    1.3156 H         1 ATP         0.0998
     37 H3'         2.4336   -0.1217   -0.0015 H         1 ATP         0.0544
     38 HO3'        3.0987    0.1465    2.1461 H         1 ATP         0.3961
     39 H2'         0.0316    0.0155   -0.0339 H         1 ATP         0.0499
     40 HO2'       -0.1608    0.7921    2.1351 H         1 ATP         0.4045
     41 H1'        -0.1474    2.7798   -0.6651 H         1 ATP         0.0912
     42 H8          2.4466    0.9468   -2.6694 H         1 ATP         0.1090
     43 HN62       -1.9661   -0.0965   -6.7275 H         1 ATP         0.3694
     44 H2         -3.9481    1.6825   -3.0660 H         1 ATP         0.0371
     45 H45        -3.4814    0.7753   -5.1133 H         1 ATP         0.4283
@<TRIPOS>BOND
     1    1    2 2
     2    1    3 1
     3    1    4 1
     4    1    8 1
     5    4   32 1
     6    5    6 2
     7    5    7 1
     8    5    8 1
     9    5   12 1
    10    7   33 1
    11    9   10 2
    12    9   11 1
    13    9   12 1
    14    9   13 1
    15   13   14 1
    16   14   15 1
    17   14   34 1
    18   14   35 1
    19   15   16 1
    20   15   17 1
    21   15   36 1
    22   16   21 1
    23   17   18 1
    24   17   19 1
    25   17   37 1
    26   18   38 1
    27   19   20 1
    28   19   21 1
    29   19   39 1
    30   20   40 1
    31   21   22 1
    32   21   41 1
    33   22   23 ar
    34   22   31 ar
    35   23   24 ar
    36   23   42 1
    37   24   25 ar
    38   25   26 ar
    39   25   31 ar
    40   26   27 2
    41   26   28 ar
    42   27   43 1
    43   28   29 ar
    44   28   45 1
    45   29   30 ar
    46   29   44 1
    47   30   31 ar
@<TRIPOS>SUBSTRUCTURE
     1 ATP         1 GROUP 0 A     ****
@<TRIPOS>MOLECULE
[[[3,4-dihydroxy-5-(6-imino-1~{H}-purin-9-yl)tetrahydrofuran-2-yl]methoxy-oxido-phosphoryl]oxy-hydroxy-phosphoryl] hydrogen phosphate
   45    47     1     0     0
SMALL
USER_CHARGES

@<TRIPOS>ATOM
      1 PG          0.9884    2.3290    7.9662 P.3       1 ATP         1.5496
      2 O1G         0.0693    2.4286    9.1633 O.co2     1 ATP        -0.8494
      3 O2G         2.2395    3.1738    7.8748 O.co2     1 ATP        -0.8494
      4 O3G         1.4040    0.7633    7.7607 O.3       1 ATP        -0.7845
      5 PB         -0.6713    3.8305    6.0456 P.3       1 ATP         1.9068
      6 O1B        -1.7478    4.3670    6.9422 O.2       1 ATP        -0.8942
      7 O2B         0.5161    4.8722    5.7015 O.3       1 ATP        -0.8166
      8 O3B         0.1095    2.5314    6.6073 O.3       1 ATP        -0.8194
      9 PA         -1.9154    4.0917    3.3839 P.3       1 ATP         1.5903
     10 O1A        -0.9828    5.1481    2.8324 O.co2     1 ATP        -0.8519
     11 O2A        -3.3086    4.4564    3.8487 O.co2     1 ATP        -0.8519
     12 O3A        -1.1597    3.3045    4.5985 O.3       1 ATP        -0.8093
     13 O5'        -2.0402    2.8619    2.3130 O.3       1 ATP        -0.5649
     14 C5'        -0.8811    2.4285    1.6206 C.3       1 ATP         0.1979
     15 C4'        -0.1994    1.3333    2.4288 C.3       1 ATP         0.1179
     16 O4'        -1.1285    0.2356    2.5840 O.3       1 ATP        -0.3878
     17 C3'         1.0324    0.7610    1.7344 C.3       1 ATP         0.1185
     18 O3'         1.9175    0.2377    2.7247 O.3       1 ATP        -0.5544
     19 C2'         0.4468   -0.3802    0.9263 C.3       1 ATP         0.0542
     20 O2'         1.3993   -1.3703    0.5961 O.3       1 ATP        -0.5831
     21 C1'        -0.6159   -0.9100    1.8769 C.3       1 ATP         0.2222
     22 N9         -1.7127   -1.6108    1.2130 N.pl3     1 ATP        -0.1887
     23 C8         -2.0868   -2.9137    1.4327 C.ar      1 ATP         0.4447
     24 N7         -3.1125   -3.2756    0.6878 N.2       1 ATP        -0.6159
     25 C5         -3.4079   -2.1580   -0.0391 C.ar      1 ATP         0.2195
     26 C6         -4.4483   -1.9775   -1.0249 C.ar      1 ATP         0.6144
     27 N6         -5.2418   -2.9492   -1.3113 N.2       1 ATP        -0.8160
     28 N1         -4.3937   -0.6823   -1.5211 N.pl3     1 ATP        -0.8611
     29 C2         -3.4770    0.2901   -1.1271 C.ar      1 ATP         0.6141
     30 N3         -2.5289    0.1525   -0.2403 N.2       1 ATP        -0.5913
     31 C4         -2.5564   -1.1096    0.2655 C.ar      1 ATP         0.0067
     32 HOG3        2.0021    0.5328    7.0182 H         1 ATP         0.4313
     33 HOB2        0.2936    5.7118    5.2457 H         1 ATP         0.4716
     34 H5'1       -1.1769    2.0503    0.6369 H         1 ATP         0.0452
     35 H5'2       -0.2081    3.2815    1.4877 H         1 ATP         0.0452
     36 H4'         0.0403    1.7078    3.4343 H         1 ATP         0.0998
     37 H3'         1.5906    1.4859    1.1353 H         1 ATP         0.0544
     38 HO3'        2.6839   -0.1150    2.2479 H         1 ATP         0.3961
     39 H2'        -0.0017    0.0018    0.0005 H         1 ATP         0.0499
     40 HO2'        2.0953   -0.9375    0.0709 H         1 ATP         0.4045
     41 H1'        -0.1998   -1.6319    2.6178 H         1 ATP         0.0912
     42 H8         -1.5740   -3.5449    2.1457 H         1 ATP         0.1090
     43 HN62       -5.9117   -2.6433   -2.0256 H         1 ATP         0.3694
     44 H2         -3.6225    1.2454   -1.6553 H         1 ATP         0.0371
     45 H45        -5.0794   -0.4231   -2.2258 H         1 ATP         0.4283
@<TRIPOS>BOND
     1    1    2 2
     2    1    3 1
     3    1    4 1
     4    1    8 1
     5    4   32 1
     6    5    6 2
     7    5    7 1
     8    5    8 1
     9    5   12 1
    10    7   33 1
    11    9   10 2
    12    9   11 1
    13    9   12 1
    14    9   13 1
    15   13   14 1
    16   14   15 1
    17   14   34 1
    18   14   35 1
    19   15   16 1
    20   15   17 1
    21   15   36 1
    22   16   21 1
    23   17   18 1
    24   17   19 1
    25   17   37 1
    26   18   38 1
    27   19   20 1
    28   19   21 1
    29   19   39 1
    30   20   40 1
    31   21   22 1
    32   21   41 1
    33   22   23 ar
    34   22   31 ar
    35   23   24 ar
    36   23   42 1
    37   24   25 ar
    38   25   26 ar
    39   25   31 ar
    40   26   27 2
    41   26   28 ar
    42   27   43 1
    43   28   29 ar
    44   28   45 1
    45   29   30 ar
    46   29   44 1
    47   30   31 ar
@<TRIPOS>SUBSTRUCTURE
     1 ATP         1 GROUP 0 A     ****
@<TRIPOS>MOLECULE
[[[3,4-dihydroxy-5-(6-imino-1~{H}-purin-9-yl)tetrahydrofuran-2-yl]methoxy-oxido-phosphoryl]oxy-hydroxy-phosphoryl] hydrogen phosphate
   45    47     1     0     0
SMALL
USER_CHARGES

@<TRIPOS>ATOM
      1 PG          9.9644    4.4164    1.0036 P.3       1 ATP         1.5496
      2 O1G         9.9746    4.6012   -0.4975 O.co2     1 ATP        -0.8494
      3 O2G        11.0246    3.5855    1.6914 O.co2     1 ATP        -0.8494
      4 O3G         9.9230    5.8894    1.7069 O.3       1 ATP        -0.7845
      5 PB          7.7455    2.4803    1.1657 P.3       1 ATP         1.9068
      6 O1B         7.5206    2.1672   -0.2840 O.2       1 ATP        -0.8942
      7 O2B         8.6352    1.3968    1.9708 O.3       1 ATP        -0.8166
      8 O3B         8.4920    3.8835    1.4600 O.3       1 ATP        -0.8194
      9 PA          5.1606    3.6754    1.9344 P.3       1 ATP         1.5903
     10 O1A         5.6995    5.0893    1.9155 O.co2     1 ATP        -0.8519
     11 O2A         4.0977    3.2662    2.9308 O.co2     1 ATP        -0.8519
     12 O3A         6.4132    2.6363    2.0658 O.3       1 ATP        -0.8093
     13 O5'         4.6405    3.2701    0.4379 O.3       1 ATP        -0.5649
     14 C5'         4.0922    1.9801    0.2227 C.3       1 ATP         0.1979
     15 C4'         2.5944    2.0310    0.4653 C.3       1 ATP         0.1179
     16 O4'         1.9327    2.5740   -0.6889 O.3       1 ATP        -0.3878
     17 C3'         1.9685    0.6634    0.6767 C.3       1 ATP         0.1185
     18 O3'         2.1425    0.1975    1.9977 O.3       1 ATP        -0.5544
     19 C2'         0.5176    0.9128    0.3099 C.3       1 ATP         0.0542
     20 O2'        -0.2103    1.4454    1.4152 O.3       1 ATP        -0.5831
     21 C1'         0.6219    1.9765   -0.7844 C.3       1 ATP         0.2222
     22 N9          0.4237    1.4496   -2.1357 N.pl3     1 ATP        -0.1887
     23 C8          1.4069    0.9710   -2.9662 C.ar      1 ATP         0.4447
     24 N7          0.9316    0.5623   -4.1260 N.2       1 ATP        -0.6159
     25 C5         -0.4120    0.7884   -4.0344 C.ar      1 ATP         0.2195
     26 C6         -1.4353    0.5283   -5.0204 C.ar      1 ATP         0.6144
     27 N6         -1.1199    0.0176   -6.1586 N.2       1 ATP        -0.8160
     28 N1         -2.6704    0.9095   -4.5147 N.pl3     1 ATP        -0.8611
     29 C2         -2.8863    1.4571   -3.2520 C.ar      1 ATP         0.6141
     30 N3         -1.9805    1.7017   -2.3442 N.2       1 ATP        -0.5913
     31 C4         -0.7561    1.3381   -2.8112 C.ar      1 ATP         0.0067
     32 HOG3        9.9123    5.9388    2.6865 H         1 ATP         0.4313
     33 HOB2        9.5529    1.2205    1.6724 H         1 ATP         0.4716
     34 H5'1        4.3029    1.6730   -0.8066 H         1 ATP         0.0452
     35 H5'2        4.5678    1.2739    0.9106 H         1 ATP         0.0452
     36 H4'         2.3751    2.7029    1.3156 H         1 ATP         0.0998
     37 H3'         2.4336   -0.1217   -0.0015 H         1 ATP         0.0544
     38 HO3'        1.7160   -0.6716    2.0397 H         1 ATP         0.3961
     39 H2'         0.0316    0.0155   -0.0339 H         1 ATP         0.0499
     40 HO2'       -0.1608    0.7921    2.1351 H         1 ATP         0.4045
     41 H1'        -0.1474    2.7798   -0.6651 H         1 ATP         0.0912
     42 H8          2.4466    0.9468   -2.6694 H         1 ATP         0.1090
     43 HN62       -1.9661   -0.0965   -6.7275 H         1 ATP         0.3694
     44 H2         -3.9481    1.6825   -3.0660 H         1 ATP         0.0371
     45 H45        -3.4814    0.7753   -5.1133 H         1 ATP         0.4283
@<TRIPOS>BOND
     1    1    2 2
     2    1    3 1
     3    1    4 1
     4    1    8 1
     5    4   32 1
     6    5    6 2
     7    5    7 1
     8    5    8 1
     9    5   12 1
    10    7   33 1
    11    9   10 2
    12    9   11 1
    13    9   12 1
    14    9   13 1
    15   13   14 1
    16   14   15 1
    17   14   34 1
    18   14   35 1
    19   15   16 1
    20   15   17 1
    21   15   36 1
    22   16   21 1
    23   17   18 1
    24   17   19 1
    25   17   37 1
    26   18   38 1
    27   19   20 1
    28   19   21 1
    29   19   39 1
    30   20   40 1
    31   21   22 1
    32   21   41 1
    33   22   23 ar
    34   22   31 ar
    35   23   24 ar
    36   23   42 1
    37   24   25 ar
    38   25   26 ar
    39   25   31 ar
    40   26   27 2
    41   26   28 ar
    42   27   43 1
    43   28   29 ar
    44   28   45 1
    45   29   30 ar
    46   29   44 1
    47   30   31 ar
@<TRIPOS>SUBSTRUCTURE
     1 ATP         1 GROUP 0 A     ****
@<TRIPOS>MOLECULE
[[[3,4-dihydroxy-5-(6-imino-1~{H}-purin-9-yl)tetrahydrofuran-2-yl]methoxy-oxido-phosphoryl]oxy-hydroxy-phosphoryl] hydrogen phosphate
   45    47     1     0     0
SMALL
USER_CHARGES

@<TRIPOS>ATOM
      1 PG         -0.9277    8.9580    0.5767 P.3       1 ATP         1.5496
      2 O1G        -2.0336    9.8148    1.1517 O.co2     1 ATP        -0.8494
      3 O2G        -0.6668    8.9227   -0.9127 O.co2     1 ATP        -0.8494
      4 O3G         0.4672    9.3322    1.3386 O.3       1 ATP        -0.7845
      5 PB         -1.2509    6.8647    2.6288 P.3       1 ATP         1.9068
      6 O1B        -0.0964    7.1630    3.5390 O.2       1 ATP        -0.8942
      7 O2B        -2.6780    7.4445    3.1194 O.3       1 ATP        -0.8166
      8 O3B        -1.1049    7.4311    1.1219 O.3       1 ATP        -0.8194
      9 PA         -1.9154    4.0917    3.3839 P.3       1 ATP         1.5903
     10 O1A        -3.2731    4.3718    3.9906 O.co2     1 ATP        -0.8519
     11 O2A        -0.7135    3.8304    4.2652 O.co2     1 ATP        -0.8519
     12 O3A        -1.5408    5.2999    2.3514 O.3       1 ATP        -0.8093
     13 O5'        -2.0402    2.8619    2.3130 O.3       1 ATP        -0.5649
     14 C5'        -0.8811    2.4285    1.6206 C.3       1 ATP         0.1979
     15 C4'        -0.1994    1.3333    2.4288 C.3       1 ATP         0.1179
     16 O4'        -1.1285    0.2356    2.5840 O.3       1 ATP        -0.3878
     17 C3'         1.0324    0.7610    1.7344 C.3       1 ATP         0.1185
     18 O3'         1.9175    0.2377    2.7247 O.3       1 ATP        -0.5544
     19 C2'         0.4468   -0.3802    0.9263 C.3       1 ATP         0.0542
     20 O2'         1.3993   -1.3703    0.5961 O.3       1 ATP        -0.5831
     21 C1'        -0.6159   -0.9100    1.8769 C.3       1 ATP         0.2222
     22 N9         -1.7127   -1.6108    1.2130 N.pl3     1 ATP        -0.1887
     23 C8         -1.7690   -2.9583    0.9549 C.ar      1 ATP         0.4447
     24 N7         -2.8827   -3.3076    0.3418 N.2       1 ATP        -0.6159
     25 C5         -3.5683   -2.1351    0.2017 C.ar      1 ATP         0.2195
     26 C6         -4.8617   -1.9185   -0.4044 C.ar      1 ATP         0.6144
     27 N6         -5.5166   -2.9094   -0.8994 N.2       1 ATP        -0.8160
     28 N1         -5.1836   -0.5701   -0.3344 N.pl3     1 ATP        -0.8611
     29 C2         -4.3821    0.4180    0.2330 C.ar      1 ATP         0.6141
     30 N3         -3.2117    0.2488    0.7860 N.2       1 ATP        -0.5913
     31 C4         -2.8672   -1.0657    0.7327 C.ar      1 ATP         0.0067
     32 HOG3        0.5170    9.2053    2.3100 H         1 ATP         0.4313
     33 HOB2       -2.7804    8.4125    3.2413 H         1 ATP         0.4716
     34 H5'1       -1.1769    2.0503    0.6369 H         1 ATP         0.0452
     35 H5'2       -0.2081    3.2815    1.4877 H         1 ATP         0.0452
     36 H4'         0.0403    1.7078    3.4343 H         1 ATP         0.0998
     37 H3'         1.5906    1.4859    1.1353 H         1 ATP         0.0544
     38 HO3'        2.6839   -0.1150    2.2479 H         1 ATP         0.3961
     39 H2'        -0.0017    0.0018    0.0005 H         1 ATP         0.0499
     40 HO2'        2.0953   -0.9375    0.0709 H         1 ATP         0.4045
     41 H1'        -0.1998   -1.6319    2.6178 H         1 ATP         0.0912
     42 H8         -0.9697   -3.6300    1.2371 H         1 ATP         0.1090
     43 HN62       -6.4060   -2.5723   -1.2840 H         1 ATP         0.3694
     44 H2         -4.8409    1.4176    0.1757 H         1 ATP         0.0371
     45 H45        -6.0768   -0.2826   -0.7263 H         1 ATP         0.4283
@<TRIPOS>BOND
     1    1    2 2
     2    1    3 1
     3    1    4 1
     4    1    8 1
     5    4   32 1
     6    5    6 2
     7    5    7 1
     8    5    8 1
     9    5   12 1
    10    7   33 1
    11    9   10 2
    12    9   11 1
    13    9   12 1
    14    9   13 1
    15   13   14 1
    16   14   15 1
    17   14   34 1
    18   14   35 1
    19   15   16 1
    20   15   17 1
    21   15   36 1
    22   16   21 1
    23   17   18 1
    24   17   19 1
    25   17   37 1
    26   18   38 1
    27   19   20 1
    28   19   21 1
    29   19   39 1
    30   20   40 1
    31   21   22 1
    32   21   41 1
    33   22   23 ar
    34   22   31 ar
    35   23   24 ar
    36   23   42 1
    37   24   25 ar
    38   25   26 ar
    39   25   31 ar
    40   26   27 2
    41   26   28 ar
    42   27   43 1
    43   28   29 ar
    44   28   45 1
    45   29   30 ar
    46   29   44 1
    47   30   31 ar
@<TRIPOS>SUBSTRUCTURE
     1 ATP         1 GROUP 0 A     ****
@<TRIPOS>MOLECULE
[[[3,4-dihydroxy-5-(6-imino-1~{H}-purin-9-yl)tetrahydrofuran-2-yl]methoxy-oxido-phosphoryl]oxy-hydroxy-phosphoryl] hydrogen phosphate
   45    47     1     0     0
SMALL
USER_CHARGES

@<TRIPOS>ATOM
      1 PG         -1.3479    8.5797   -0.1033 P.3       1 ATP         1.5496
      2 O1G        -2.6195    8.9099   -0.8527 O.co2     1 ATP        -0.8494
      3 O2G        -0.0821    9.3750   -0.3326 O.co2     1 ATP        -0.8494
      4 O3G        -1.6753    8.5760    1.4964 O.3       1 ATP        -0.7845
      5 PB         -1.9422    5.6920   -0.0255 P.3       1 ATP         1.9068
      6 O1B        -2.4248    5.5279    1.3853 O.2       1 ATP        -0.8942
      7 O2B        -3.1080    5.8139   -1.1388 O.3       1 ATP        -0.8166
      8 O3B        -1.0206    6.9930   -0.2918 O.3       1 ATP        -0.8194
      9 PA          0.4529    3.9703   -0.0492 P.3       1 ATP         1.5903
     10 O1A         1.4112    5.1385    0.0342 O.co2     1 ATP        -0.8519
     11 O2A         0.8147    2.7278   -0.8334 O.co2     1 ATP        -0.8519
     12 O3A        -0.9915    4.5116   -0.5846 O.3       1 ATP        -0.8093
     13 O5'         0.0180    3.5131    1.4595 O.3       1 ATP        -0.5649
     14 C5'        -0.8811    2.4285    1.6206 C.3       1 ATP         0.1979
     15 C4'        -0.1994    1.3333    2.4288 C.3       1 ATP         0.1179
     16 O4'        -1.1285    0.2356    2.5840 O.3       1 ATP        -0.3878
     17 C3'         1.0324    0.7610    1.7344 C.3       1 ATP         0.1185
     18 O3'         1.9175    0.2377    2.7247 O.3       1 ATP        -0.5544
     19 C2'         0.4468   -0.3802    0.9263 C.3       1 ATP         0.0542
     20 O2'         1.3993   -1.3703    0.5961 O.3       1 ATP        -0.5831
     21 C1'        -0.6159   -0.9100    1.8769 C.3       1 ATP         0.2222
     22 N9         -1.7127   -1.6108    1.2130 N.pl3     1 ATP        -0.1887
     23 C8         -1.7690   -2.9583    0.9549 C.ar      1 ATP         0.4447
     24 N7         -2.8827   -3.3076    0.3418 N.2       1 ATP        -0.6159
     25 C5         -3.5683   -2.1351    0.2017 C.ar      1 ATP         0.2195
     26 C6         -4.8617   -1.9185   -0.4044 C.ar      1 ATP         0.6144
     27 N6         -5.5166   -2.9094   -0.8994 N.2       1 ATP        -0.8160
     28 N1         -5.1836   -0.5701   -0.3344 N.pl3     1 ATP        -0.8611
     29 C2         -4.3821    0.4180    0.2330 C.ar      1 ATP         0.6141
     30 N3         -3.2117    0.2488    0.7860 N.2       1 ATP        -0.5913
     31 C4         -2.8672   -1.0657    0.7327 C.ar      1 ATP         0.0067
     32 HOG3       -2.3479    7.9468    1.8337 H         1 ATP         0.4313
     33 HOB2       -3.7512    6.5517   -1.0736 H         1 ATP         0.4716
     34 H5'1       -1.7770    2.7851    2.1387 H         1 ATP         0.0452
     35 H5'2       -1.1653    2.0543    0.6320 H         1 ATP         0.0452
     36 H4'         0.0403    1.7078    3.4343 H         1 ATP         0.0998
     37 H3'         1.5906    1.4859    1.1353 H         1 ATP         0.0544
     38 HO3'        2.6839   -0.1150    2.2479 H         1 ATP         0.3961
     39 H2'        -0.0017    0.0018    0.0005 H         1 ATP         0.0499
     40 HO2'        2.0953   -0.9375    0.0709 H         1 ATP         0.4045
     41 H1'        -0.1998   -1.6319    2.6178 H         1 ATP         0.0912
     42 H8         -0.9697   -3.6300    1.2371 H         1 ATP         0.1090
     43 HN62       -6.4060   -2.5723   -1.2840 H         1 ATP         0.3694
     44 H2         -4.8409    1.4176    0.1757 H         1 ATP         0.0371
     45 H45        -6.0768   -0.2826   -0.7263 H         1 ATP         0.4283
@<TRIPOS>BOND
     1    1    2 2
     2    1    3 1
     3    1    4 1
     4    1    8 1
     5    4   32 1
     6    5    6 2
     7    5    7 1
     8    5    8 1
     9    5   12 1
    10    7   33 1
    11    9   10 2
    12    9   11 1
    13    9   12 1
    14    9   13 1
    15   13   14 1
    16   14   15 1
    17   14   34 1
    18   14   35 1
    19   15   16 1
    20   15   17 1
    21   15   36 1
    22   16   21 1
    23   17   18 1
    24   17   19 1
    25   17   37 1
    26   18   38 1
    27   19   20 1
    28   19   21 1
    29   19   39 1
    30   20   40 1
    31   21   22 1
    32   21   41 1
    33   22   23 ar
    34   22   31 ar
    35   23   24 ar
    36   23   42 1
    37   24   25 ar
    38   25   26 ar
    39   25   31 ar
    40   26   27 2
    41   26   28 ar
    42   27   43 1
    43   28   29 ar
    44   28   45 1
    45   29   30 ar
    46   29   44 1
    47   30   31 ar
@<TRIPOS>SUBSTRUCTURE
     1 ATP         1 GROUP 0 A     ****
@<TRIPOS>MOLECULE
[[[3,4-dihydroxy-5-(6-imino-1~{H}-purin-9-yl)tetrahydrofuran-2-yl]methoxy-oxido-phosphoryl]oxy-hydroxy-phosphoryl] hydrogen phosphate
   45    47     1     0     0
SMALL
USER_CHARGES

@<TRIPOS>ATOM
      1 PG          9.5497    3.8732    4.4892 P.3       1 ATP         1.5496
      2 O1G        10.7129    4.2509    3.5993 O.co2     1 ATP        -0.8494
      3 O2G         9.7150    2.8517    5.5922 O.co2     1 ATP        -0.8494
      4 O3G         8.9269    5.2374    5.1351 O.3       1 ATP        -0.7845
      5 PB          7.5664    4.2289    2.3356 P.3       1 ATP         1.9068
      6 O1B         6.9787    5.5621    2.6929 O.2       1 ATP        -0.8942
      7 O2B         8.6979    4.2657    1.1816 O.3       1 ATP        -0.8166
      8 O3B         8.2855    3.4443    3.5522 O.3       1 ATP        -0.8194
      9 PA          5.2200    2.4550    2.5568 P.3       1 ATP         1.5903
     10 O1A         4.1770    3.5315    2.7646 O.co2     1 ATP        -0.8519
     11 O2A         5.7100    1.6184    3.7186 O.co2     1 ATP        -0.8519
     12 O3A         6.5176    3.1149    1.8173 O.3       1 ATP        -0.8093
     13 O5'         4.7294    1.4426    1.3698 O.3       1 ATP        -0.5649
     14 C5'         4.0922    1.9801    0.2227 C.3       1 ATP         0.1979
     15 C4'         2.5944    2.0310    0.4653 C.3       1 ATP         0.1179
     16 O4'         1.9327    2.5740   -0.6889 O.3       1 ATP        -0.3878
     17 C3'         1.9685    0.6634    0.6767 C.3       1 ATP         0.1185
     18 O3'         2.1425    0.1975    1.9977 O.3       1 ATP        -0.5544
     19 C2'         0.5176    0.9128    0.3099 C.3       1 ATP         0.0542
     20 O2'        -0.2103    1.4454    1.4152 O.3       1 ATP        -0.5831
     21 C1'         0.6219    1.9765   -0.7844 C.3       1 ATP         0.2222
     22 N9          0.4237    1.4496   -2.1357 N.pl3     1 ATP        -0.1887
     23 C8          1.4069    0.9710   -2.9662 C.ar      1 ATP         0.4447
     24 N7          0.9316    0.5623   -4.1260 N.2       1 ATP        -0.6159
     25 C5         -0.4120    0.7884   -4.0344 C.ar      1 ATP         0.2195
     26 C6         -1.4353    0.5283   -5.0204 C.ar      1 ATP         0.6144
     27 N6         -1.1199    0.0176   -6.1586 N.2       1 ATP        -0.8160
     28 N1         -2.6704    0.9095   -4.5147 N.pl3     1 ATP        -0.8611
     29 C2         -2.8863    1.4571   -3.2520 C.ar      1 ATP         0.6141
     30 N3         -1.9805    1.7017   -2.3442 N.2       1 ATP        -0.5913
     31 C4         -0.7561    1.3381   -2.8112 C.ar      1 ATP         0.0067
     32 HOG3        8.1593    5.1589    5.7408 H         1 ATP         0.4313
     33 HOB2        9.5103    4.7951    1.3303 H         1 ATP         0.4716
     34 H5'1        4.4844    2.9853    0.0382 H         1 ATP         0.0452
     35 H5'2        4.3192    1.3445   -0.6391 H         1 ATP         0.0452
     36 H4'         2.3751    2.7029    1.3156 H         1 ATP         0.0998
     37 H3'         2.4336   -0.1217   -0.0015 H         1 ATP         0.0544
     38 HO3'        3.0987    0.1465    2.1461 H         1 ATP         0.3961
     39 H2'         0.0316    0.0155   -0.0339 H         1 ATP         0.0499
     40 HO2'       -0.1608    0.7921    2.1351 H         1 ATP         0.4045
     41 H1'        -0.1474    2.7798   -0.6651 H         1 ATP         0.0912
     42 H8          2.4466    0.9468   -2.6694 H         1 ATP         0.1090
     43 HN62       -1.9661   -0.0965   -6.7275 H         1 ATP         0.3694
     44 H2         -3.9481    1.6825   -3.0660 H         1 ATP         0.0371
     45 H45        -3.4814    0.7753   -5.1133 H         1 ATP         0.4283
@<TRIPOS>BOND
     1    1    2 2
     2    1    3 1
     3    1    4 1
     4    1    8 1
     5    4   32 1
     6    5    6 2
     7    5    7 1
     8    5    8 1
     9    5   12 1
    10    7   33 1
    11    9   10 2
    12    9   11 1
    13    9   12 1
    14    9   13 1
    15   13   14 1
    16   14   15 1
    17   14   34 1
    18   14   35 1
    19   15   16 1
    20   15   17 1
    21   15   36 1
    22   16   21 1
    23   17   18 1
    24   17   19 1
    25   17   37 1
    26   18   38 1
    27   19   20 1
    28   19   21 1
    29   19   39 1
    30   20   40 1
    31   21   22 1
    32   21   41 1
    33   22   23 ar
    34   22   31 ar
    35   23   24 ar
    36   23   42 1
    37   24   25 ar
    38   25   26 ar
    39   25   31 ar
    40   26   27 2
    41   26   28 ar
    42   27   43 1
    43   28   29 ar
    44   28   45 1
    45   29   30 ar
    46   29   44 1
    47   30   31 ar
@<TRIPOS>SUBSTRUCTURE
     1 ATP         1 GROUP 0 A     ****
@<TRIPOS>MOLECULE
[[[3,4-dihydroxy-5-(6-imino-1~{H}-purin-9-yl)tetrahydrofuran-2-yl]methoxy-oxido-phosphoryl]oxy-hydroxy-phosphoryl] hydrogen phosphate
   45    47     1     0     0
SMALL
USER_CHARGES

@<TRIPOS>ATOM
      1 PG         -4.0095    6.3787   -2.6614 P.3       1 ATP         1.5496
      2 O1G        -3.3779    7.6812   -3.0997 O.co2     1 ATP        -0.8494
      3 O2G        -5.3667    6.3591   -1.9943 O.co2     1 ATP        -0.8494
      4 O3G        -4.0459    5.3642   -3.9404 O.3       1 ATP        -0.7845
      5 PB         -1.4126    5.1413   -2.0113 P.3       1 ATP         1.9068
      6 O1B        -1.2011    4.2555   -3.2034 O.2       1 ATP        -0.8942
      7 O2B        -0.6291    6.5546   -2.0601 O.3       1 ATP        -0.8166
      8 O3B        -2.9473    5.5636   -1.7301 O.3       1 ATP        -0.8194
      9 PA          0.4529    3.9703   -0.0492 P.3       1 ATP         1.5903
     10 O1A         1.4112    5.1385    0.0342 O.co2     1 ATP        -0.8519
     11 O2A         0.8147    2.7278   -0.8334 O.co2     1 ATP        -0.8519
     12 O3A        -0.9915    4.5116   -0.5846 O.3       1 ATP        -0.8093
     13 O5'         0.0180    3.5131    1.4595 O.3       1 ATP        -0.5649
     14 C5'        -0.8811    2.4285    1.6206 C.3       1 ATP         0.1979
     15 C4'        -0.1994    1.3333    2.4288 C.3       1 ATP         0.1179
     16 O4'        -1.1285    0.2356    2.5840 O.3       1 ATP        -0.3878
     17 C3'         1.0324    0.7610    1.7344 C.3       1 ATP         0.1185
     18 O3'         1.9175    0.2377    2.7247 O.3       1 ATP        -0.5544
     19 C2'         0.4468   -0.3802    0.9263 C.3       1 ATP         0.0542
     20 O2'         1.3993   -1.3703    0.5961 O.3       1 ATP        -0.5831
     21 C1'        -0.6159   -0.9100    1.8769 C.3       1 ATP         0.2222
     22 N9         -1.7127   -1.6108    1.2130 N.pl3     1 ATP        -0.1887
     23 C8         -1.7690   -2.9583    0.9549 C.ar      1 ATP         0.4447
     24 N7         -2.8827   -3.3076    0.3418 N.2       1 ATP        -0.6159
     25 C5         -3.5683   -2.1351    0.2017 C.ar      1 ATP         0.2195
     26 C6         -4.8617   -1.9185   -0.4044 C.ar      1 ATP         0.6144
     27 N6         -5.5166   -2.9094   -0.8994 N.2       1 ATP        -0.8160
     28 N1         -5.1836   -0.5701   -0.3344 N.pl3     1 ATP        -0.8611
     29 C2         -4.3821    0.4180    0.2330 C.ar      1 ATP         0.6141
     30 N3         -3.2117    0.2488    0.7860 N.2       1 ATP        -0.5913
     31 C4         -2.8672   -1.0657    0.7327 C.ar      1 ATP         0.0067
     32 HOG3       -3.1962    5.1135   -4.3615 H         1 ATP         0.4313
     33 HOB2       -0.8199    7.1779   -2.7932 H         1 ATP         0.4716
     34 H5'1       -1.7770    2.7851    2.1387 H         1 ATP         0.0452
     35 H5'2       -1.1653    2.0543    0.6320 H         1 ATP         0.0452
     36 H4'         0.0403    1.7078    3.4343 H         1 ATP         0.0998
     37 H3'         1.5906    1.4859    1.1353 H         1 ATP         0.0544
     38 HO3'        2.6839   -0.1150    2.2479 H         1 ATP         0.3961
     39 H2'        -0.0017    0.0018    0.0005 H         1 ATP         0.0499
     40 HO2'        2.0953   -0.9375    0.0709 H         1 ATP         0.4045
     41 H1'        -0.1998   -1.6319    2.6178 H         1 ATP         0.0912
     42 H8         -0.9697   -3.6300    1.2371 H         1 ATP         0.1090
     43 HN62       -6.4060   -2.5723   -1.2840 H         1 ATP         0.3694
     44 H2         -4.8409    1.4176    0.1757 H         1 ATP         0.0371
     45 H45        -6.0768   -0.2826   -0.7263 H         1 ATP         0.4283
@<TRIPOS>BOND
     1    1    2 2
     2    1    3 1
     3    1    4 1
     4    1    8 1
     5    4   32 1
     6    5    6 2
     7    5    7 1
     8    5    8 1
     9    5   12 1
    10    7   33 1
    11    9   10 2
    12    9   11 1
    13    9   12 1
    14    9   13 1
    15   13   14 1
    16   14   15 1
    17   14   34 1
    18   14   35 1
    19   15   16 1
    20   15   17 1
    21   15   36 1
    22   16   21 1
    23   17   18 1
    24   17   19 1
    25   17   37 1
    26   18   38 1
    27   19   20 1
    28   19   21 1
    29   19   39 1
    30   20   40 1
    31   21   22 1
    32   21   41 1
    33   22   23 ar
    34   22   31 ar
    35   23   24 ar
    36   23   42 1
    37   24   25 ar
    38   25   26 ar
    39   25   31 ar
    40   26   27 2
    41   26   28 ar
    42   27   43 1
    43   28   29 ar
    44   28   45 1
    45   29   30 ar
    46   29   44 1
    47   30   31 ar
@<TRIPOS>SUBSTRUCTURE
     1 ATP         1 GROUP 0 A     ****
@<TRIPOS>MOLECULE
[[[3,4-dihydroxy-5-(6-imino-1~{H}-purin-9-yl)tetrahydrofuran-2-yl]methoxy-oxido-phosphoryl]oxy-hydroxy-phosphoryl] hydrogen phosphate
   45    47     1     0     0
SMALL
USER_CHARGES

@<TRIPOS>ATOM
      1 PG          6.8322    1.2617    5.9184 P.3       1 ATP         1.5496
      2 O1G         7.8654    0.1649    5.7873 O.co2     1 ATP        -0.8494
      3 O2G         5.5404    1.0265    6.6690 O.co2     1 ATP        -0.8494
      4 O3G         7.5583    2.5863    6.5383 O.3       1 ATP        -0.7845
      5 PB          7.4611    2.4038    3.2730 P.3       1 ATP         1.9068
      6 O1B         8.2909    3.5937    3.6550 O.2       1 ATP        -0.8942
      7 O2B         8.3014    1.1011    2.8143 O.3       1 ATP        -0.8166
      8 O3B         6.4866    1.8418    4.4337 O.3       1 ATP        -0.8194
      9 PA          5.1606    3.6754    1.9344 P.3       1 ATP         1.5903
     10 O1A         5.6995    5.0893    1.9155 O.co2     1 ATP        -0.8519
     11 O2A         4.0977    3.2662    2.9308 O.co2     1 ATP        -0.8519
     12 O3A         6.4132    2.6363    2.0658 O.3       1 ATP        -0.8093
     13 O5'         4.6405    3.2701    0.4379 O.3       1 ATP        -0.5649
     14 C5'         4.0922    1.9801    0.2227 C.3       1 ATP         0.1979
     15 C4'         2.5944    2.0310    0.4653 C.3       1 ATP         0.1179
     16 O4'         1.9327    2.5740   -0.6889 O.3       1 ATP        -0.3878
     17 C3'         1.9685    0.6634    0.6767 C.3       1 ATP         0.1185
     18 O3'         2.1425    0.1975    1.9977 O.3       1 ATP        -0.5544
     19 C2'         0.5176    0.9128    0.3099 C.3       1 ATP         0.0542
     20 O2'        -0.2103    1.4454    1.4152 O.3       1 ATP        -0.5831
     21 C1'         0.6219    1.9765   -0.7844 C.3       1 ATP         0.2222
     22 N9          0.4237    1.4496   -2.1357 N.pl3     1 ATP        -0.1887
     23 C8          1.4069    0.9710   -2.9662 C.ar      1 ATP         0.4447
     24 N7          0.9316    0.5623   -4.1260 N.2       1 ATP        -0.6159
     25 C5         -0.4120    0.7884   -4.0344 C.ar      1 ATP         0.2195
     26 C6         -1.4353    0.5283   -5.0204 C.ar      1 ATP         0.6144
     27 N6         -1.1199    0.0176   -6.1586 N.2       1 ATP        -0.8160
     28 N1         -2.6704    0.9095   -4.5147 N.pl3     1 ATP        -0.8611
     29 C2         -2.8863    1.4571   -3.2520 C.ar      1 ATP         0.6141
     30 N3         -1.9805    1.7017   -2.3442 N.2       1 ATP        -0.5913
     31 C4         -0.7561    1.3381   -2.8112 C.ar      1 ATP         0.0067
     32 HOG3        7.0159    3.3904    6.6847 H         1 ATP         0.4313
     33 HOB2        8.9310    0.6953    3.4477 H         1 ATP         0.4716
     34 H5'1        4.3029    1.6730   -0.8066 H         1 ATP         0.0452
     35 H5'2        4.5678    1.2739    0.9106 H         1 ATP         0.0452
     36 H4'         2.3751    2.7029    1.3156 H         1 ATP         0.0998
     37 H3'         2.4336   -0.1217   -0.0015 H         1 ATP         0.0544
     38 HO3'        1.7160   -0.6716    2.0397 H         1 ATP         0.3961
     39 H2'         0.0316    0.0155   -0.0339 H         1 ATP         0.0499
     40 HO2'       -0.1608    0.7921    2.1351 H         1 ATP         0.4045
     41 H1'        -0.1474    2.7798   -0.6651 H         1 ATP         0.0912
     42 H8          2.4466    0.9468   -2.6694 H         1 ATP         0.1090
     43 HN62       -1.9661   -0.0965   -6.7275 H         1 ATP         0.3694
     44 H2         -3.9481    1.6825   -3.0660 H         1 ATP         0.0371
     45 H45        -3.4814    0.7753   -5.1133 H         1 ATP         0.4283
@<TRIPOS>BOND
     1    1    2 2
     2    1    3 1
     3    1    4 1
     4    1    8 1
     5    4   32 1
     6    5    6 2
     7    5    7 1
     8    5    8 1
     9    5   12 1
    10    7   33 1
    11    9   10 2
    12    9   11 1
    13    9   12 1
    14    9   13 1
    15   13   14 1
    16   14   15 1
    17   14   34 1
    18   14   35 1
    19   15   16 1
    20   15   17 1
    21   15   36 1
    22   16   21 1
    23   17   18 1
    24   17   19 1
    25   17   37 1
    26   18   38 1
    27   19   20 1
    28   19   21 1
    29   19   39 1
    30   20   40 1
    31   21   22 1
    32   21   41 1
    33   22   23 ar
    34   22   31 ar
    35   23   24 ar
    36   23   42 1
    37   24   25 ar
    38   25   26 ar
    39   25   31 ar
    40   26   27 2
    41   26   28 ar
    42   27   43 1
    43   28   29 ar
    44   28   45 1
    45   29   30 ar
    46   29   44 1
    47   30   31 ar
@<TRIPOS>SUBSTRUCTURE
     1 ATP         1 GROUP 0 A     ****
@<TRIPOS>MOLECULE
[[[3,4-dihydroxy-5-(6-imino-1~{H}-purin-9-yl)tetrahydrofuran-2-yl]methoxy-oxido-phosphoryl]oxy-hydroxy-phosphoryl] hydrogen phosphate
   45    47     1     0     0
SMALL
USER_CHARGES

@<TRIPOS>ATOM
      1 PG         -2.4217    4.6431    8.2758 P.3       1 ATP         1.5496
      2 O1G        -1.8475    6.0237    8.5034 O.co2     1 ATP        -0.8494
      3 O2G        -2.1069    3.5051    9.2211 O.co2     1 ATP        -0.8494
      4 O3G        -4.0440    4.7721    8.1420 O.3       1 ATP        -0.7845
      5 PB         -0.6713    3.8305    6.0456 P.3       1 ATP         1.9068
      6 O1B         0.3261    4.9509    6.0301 O.2       1 ATP        -0.8942
      7 O2B        -0.1831    2.4887    6.8037 O.3       1 ATP        -0.8166
      8 O3B        -2.0847    4.1757    6.7500 O.3       1 ATP        -0.8194
      9 PA         -1.9154    4.0917    3.3839 P.3       1 ATP         1.5903
     10 O1A        -0.9828    5.1481    2.8324 O.co2     1 ATP        -0.8519
     11 O2A        -3.3086    4.4564    3.8487 O.co2     1 ATP        -0.8519
     12 O3A        -1.1597    3.3045    4.5985 O.3       1 ATP        -0.8093
     13 O5'        -2.0402    2.8619    2.3130 O.3       1 ATP        -0.5649
     14 C5'        -0.8811    2.4285    1.6206 C.3       1 ATP         0.1979
     15 C4'        -0.1994    1.3333    2.4288 C.3       1 ATP         0.1179
     16 O4'        -1.1285    0.2356    2.5840 O.3       1 ATP        -0.3878
     17 C3'         1.0324    0.7610    1.7344 C.3       1 ATP         0.1185
     18 O3'         1.9175    0.2377    2.7247 O.3       1 ATP        -0.5544
     19 C2'         0.4468   -0.3802    0.9263 C.3       1 ATP         0.0542
     20 O2'         1.3993   -1.3703    0.5961 O.3       1 ATP        -0.5831
     21 C1'        -0.6159   -0.9100    1.8769 C.3       1 ATP         0.2222
     22 N9         -1.7127   -1.6108    1.2130 N.pl3     1 ATP        -0.1887
     23 C8         -2.0868   -2.9137    1.4327 C.ar      1 ATP         0.4447
     24 N7         -3.1125   -3.2756    0.6878 N.2       1 ATP        -0.6159
     25 C5         -3.4079   -2.1580   -0.0391 C.ar      1 ATP         0.2195
     26 C6         -4.4483   -1.9775   -1.0249 C.ar      1 ATP         0.6144
     27 N6         -5.2418   -2.9492   -1.3113 N.2       1 ATP        -0.8160
     28 N1         -4.3937   -0.6823   -1.5211 N.pl3     1 ATP        -0.8611
     29 C2         -3.4770    0.2901   -1.1271 C.ar      1 ATP         0.6141
     30 N3         -2.5289    0.1525   -0.2403 N.2       1 ATP        -0.5913
     31 C4         -2.5564   -1.1096    0.2655 C.ar      1 ATP         0.0067
     32 HOG3       -4.5662    3.9557    7.9906 H         1 ATP         0.4313
     33 HOB2        0.6165    2.0235    6.4773 H         1 ATP         0.4716
     34 H5'1       -1.1769    2.0503    0.6369 H         1 ATP         0.0452
     35 H5'2       -0.2081    3.2815    1.4877 H         1 ATP         0.0452
     36 H4'         0.0403    1.7078    3.4343 H         1 ATP         0.0998
     37 H3'         1.5906    1.4859    1.1353 H         1 ATP         0.0544
     38 HO3'        2.1521    0.9800    3.3017 H         1 ATP         0.3961
     39 H2'        -0.0017    0.0018    0.0005 H         1 ATP         0.0499
     40 HO2'        0.9369   -2.0558    0.0825 H         1 ATP         0.4045
     41 H1'        -0.1998   -1.6319    2.6178 H         1 ATP         0.0912
     42 H8         -1.5740   -3.5449    2.1457 H         1 ATP         0.1090
     43 HN62       -5.9117   -2.6433   -2.0256 H         1 ATP         0.3694
     44 H2         -3.6225    1.2454   -1.6553 H         1 ATP         0.0371
     45 H45        -5.0794   -0.4231   -2.2258 H         1 ATP         0.4283
@<TRIPOS>BOND
     1    1    2 2
     2    1    3 1
     3    1    4 1
     4    1    8 1
     5    4   32 1
     6    5    6 2
     7    5    7 1
     8    5    8 1
     9    5   12 1
    10    7   33 1
    11    9   10 2
    12    9   11 1
    13    9   12 1
    14    9   13 1
    15   13   14 1
    16   14   15 1
    17   14   34 1
    18   14   35 1
    19   15   16 1
    20   15   17 1
    21   15   36 1
    22   16   21 1
    23   17   18 1
    24   17   19 1
    25   17   37 1
    26   18   38 1
    27   19   20 1
    28   19   21 1
    29   19   39 1
    30   20   40 1
    31   21   22 1
    32   21   41 1
    33   22   23 ar
    34   22   31 ar
    35   23   24 ar
    36   23   42 1
    37   24   25 ar
    38   25   26 ar
    39   25   31 ar
    40   26   27 2
    41   26   28 ar
    42   27   43 1
    43   28   29 ar
    44   28   45 1
    45   29   30 ar
    46   29   44 1
    47   30   31 ar
@<TRIPOS>SUBSTRUCTURE
     1 ATP         1 GROUP 0 A     ****
@<TRIPOS>MOLECULE
[[[3,4-dihydroxy-5-(6-imino-1~{H}-purin-9-yl)tetrahydrofuran-2-yl]methoxy-oxido-phosphoryl]oxy-hydroxy-phosphoryl] hydrogen phosphate
   45    47     1     0     0
SMALL
USER_CHARGES

@<TRIPOS>ATOM
      1 PG          3.8657    4.0964    4.0331 P.3       1 ATP         1.5496
      2 O1G         3.6412    5.5914    4.0822 O.co2     1 ATP        -0.8494
      3 O2G         4.3267    3.3394    5.2585 O.co2     1 ATP        -0.8494
      4 O3G         2.5089    3.3870    3.4655 O.3       1 ATP        -0.7845
      5 PB          6.4228    4.1112    2.5639 P.3       1 ATP         1.9068
      6 O1B         6.7471    5.5757    2.5507 O.2       1 ATP        -0.8942
      7 O2B         7.1818    3.2514    3.7034 O.3       1 ATP        -0.8166
      8 O3B         4.8628    3.7527    2.7891 O.3       1 ATP        -0.8194
      9 PA          6.1592    3.5242   -0.3148 P.3       1 ATP         1.5903
     10 O1A         6.6758    2.4088   -1.1974 O.co2     1 ATP        -0.8519
     11 O2A         6.3637    4.9731   -0.7001 O.co2     1 ATP        -0.8519
     12 O3A         6.7372    3.3096    1.1971 O.3       1 ATP        -0.8093
     13 O5'         4.5669    3.2939   -0.0211 O.3       1 ATP        -0.5649
     14 C5'         4.0922    1.9801    0.2227 C.3       1 ATP         0.1979
     15 C4'         2.5944    2.0310    0.4653 C.3       1 ATP         0.1179
     16 O4'         1.9327    2.5740   -0.6889 O.3       1 ATP        -0.3878
     17 C3'         1.9685    0.6634    0.6767 C.3       1 ATP         0.1185
     18 O3'         2.1425    0.1975    1.9977 O.3       1 ATP        -0.5544
     19 C2'         0.5176    0.9128    0.3099 C.3       1 ATP         0.0542
     20 O2'        -0.2103    1.4454    1.4152 O.3       1 ATP        -0.5831
     21 C1'         0.6219    1.9765   -0.7844 C.3       1 ATP         0.2222
     22 N9          0.4237    1.4496   -2.1357 N.pl3     1 ATP        -0.1887
     23 C8          1.1891    0.4862   -2.7452 C.ar      1 ATP         0.4447
     24 N7          0.7743    0.2113   -3.9661 N.2       1 ATP        -0.6159
     25 C5         -0.3017    1.0326   -4.1458 C.ar      1 ATP         0.2195
     26 C6         -1.1512    1.1578   -5.3076 C.ar      1 ATP         0.6144
     27 N6         -0.9306    0.4354   -6.3493 N.2       1 ATP        -0.8160
     28 N1         -2.1281    2.1133   -5.0636 N.pl3     1 ATP        -0.8611
     29 C2         -2.2653    2.8370   -3.8811 C.ar      1 ATP         0.6141
     30 N3         -1.5123    2.7429   -2.8189 N.2       1 ATP        -0.5913
     31 C4         -0.5429    1.8121   -3.0273 C.ar      1 ATP         0.0067
     32 HOG3        2.4961    2.4105    3.3741 H         1 ATP         0.4313
     33 HOB2        7.0404    3.4835    4.6460 H         1 ATP         0.4716
     34 H5'1        4.3180    1.3550   -0.6470 H         1 ATP         0.0452
     35 H5'2        4.6084    1.5739    1.0983 H         1 ATP         0.0452
     36 H4'         2.3751    2.7029    1.3156 H         1 ATP         0.0998
     37 H3'         2.4336   -0.1217   -0.0015 H         1 ATP         0.0544
     38 HO3'        1.7160   -0.6716    2.0397 H         1 ATP         0.3961
     39 H2'         0.0316    0.0155   -0.0339 H         1 ATP         0.0499
     40 HO2'       -0.1608    0.7921    2.1351 H         1 ATP         0.4045
     41 H1'        -0.1474    2.7798   -0.6651 H         1 ATP         0.0912
     42 H8          2.0323    0.0251   -2.2492 H         1 ATP         0.1090
     43 HN62       -1.6261    0.6558   -7.0707 H         1 ATP         0.3694
     44 H2         -3.1123    3.5402   -3.9130 H         1 ATP         0.0371
     45 H45        -2.7975    2.2966   -5.8068 H         1 ATP         0.4283
@<TRIPOS>BOND
     1    1    2 2
     2    1    3 1
     3    1    4 1
     4    1    8 1
     5    4   32 1
     6    5    6 2
     7    5    7 1
     8    5    8 1
     9    5   12 1
    10    7   33 1
    11    9   10 2
    12    9   11 1
    13    9   12 1
    14    9   13 1
    15   13   14 1
    16   14   15 1
    17   14   34 1
    18   14   35 1
    19   15   16 1
    20   15   17 1
    21   15   36 1
    22   16   21 1
    23   17   18 1
    24   17   19 1
    25   17   37 1
    26   18   38 1
    27   19   20 1
    28   19   21 1
    29   19   39 1
    30   20   40 1
    31   21   22 1
    32   21   41 1
    33   22   23 ar
    34   22   31 ar
    35   23   24 ar
    36   23   42 1
    37   24   25 ar
    38   25   26 ar
    39   25   31 ar
    40   26   27 2
    41   26   28 ar
    42   27   43 1
    43   28   29 ar
    44   28   45 1
    45   29   30 ar
    46   29   44 1
    47   30   31 ar
@<TRIPOS>SUBSTRUCTURE
     1 ATP         1 GROUP 0 A     ****
@<TRIPOS>MOLECULE
[[[3,4-dihydroxy-5-(6-imino-1~{H}-purin-9-yl)tetrahydrofuran-2-yl]methoxy-oxido-phosphoryl]oxy-hydroxy-phosphoryl] hydrogen phosphate
   45    47     1     0     0
SMALL
USER_CHARGES

@<TRIPOS>ATOM
      1 PG          9.0528    4.4937    4.6134 P.3       1 ATP         1.5496
      2 O1G        10.4201    3.8784    4.4146 O.co2     1 ATP        -0.8494
      3 O2G         8.3702    4.4510    5.9623 O.co2     1 ATP        -0.8494
      4 O3G         9.1042    6.0453    4.1073 O.3       1 ATP        -0.7845
      5 PB          7.4611    2.4038    3.2730 P.3       1 ATP         1.9068
      6 O1B         8.4988    1.3455    3.0415 O.2       1 ATP        -0.8942
      7 O2B         6.5200    2.1694    4.5664 O.3       1 ATP        -0.8166
      8 O3B         8.0370    3.8993    3.4843 O.3       1 ATP        -0.8194
      9 PA          5.1606    3.6754    1.9344 P.3       1 ATP         1.5903
     10 O1A         5.6995    5.0893    1.9155 O.co2     1 ATP        -0.8519
     11 O2A         4.0977    3.2662    2.9308 O.co2     1 ATP        -0.8519
     12 O3A         6.4132    2.6363    2.0658 O.3       1 ATP        -0.8093
     13 O5'         4.6405    3.2701    0.4379 O.3       1 ATP        -0.5649
     14 C5'         4.0922    1.9801    0.2227 C.3       1 ATP         0.1979
     15 C4'         2.5944    2.0310    0.4653 C.3       1 ATP         0.1179
     16 O4'         1.9327    2.5740   -0.6889 O.3       1 ATP        -0.3878
     17 C3'         1.9685    0.6634    0.6767 C.3       1 ATP         0.1185
     18 O3'         2.1425    0.1975    1.9977 O.3       1 ATP        -0.5544
     19 C2'         0.5176    0.9128    0.3099 C.3       1 ATP         0.0542
     20 O2'        -0.2103    1.4454    1.4152 O.3       1 ATP        -0.5831
     21 C1'         0.6219    1.9765   -0.7844 C.3       1 ATP         0.2222
     22 N9          0.4237    1.4496   -2.1357 N.pl3     1 ATP        -0.1887
     23 C8          1.4069    0.9710   -2.9662 C.ar      1 ATP         0.4447
     24 N7          0.9316    0.5623   -4.1260 N.2       1 ATP        -0.6159
     25 C5         -0.4120    0.7884   -4.0344 C.ar      1 ATP         0.2195
     26 C6         -1.4353    0.5283   -5.0204 C.ar      1 ATP         0.6144
     27 N6         -1.1199    0.0176   -6.1586 N.2       1 ATP        -0.8160
     28 N1         -2.6704    0.9095   -4.5147 N.pl3     1 ATP        -0.8611
     29 C2         -2.8863    1.4571   -3.2520 C.ar      1 ATP         0.6141
     30 N3         -1.9805    1.7017   -2.3442 N.2       1 ATP        -0.5913
     31 C4         -0.7561    1.3381   -2.8112 C.ar      1 ATP         0.0067
     32 HOG3        8.2873    6.5845    4.1716 H         1 ATP         0.4313
     33 HOB2        5.9729    1.3565    4.6142 H         1 ATP         0.4716
     34 H5'1        4.3029    1.6730   -0.8066 H         1 ATP         0.0452
     35 H5'2        4.5678    1.2739    0.9106 H         1 ATP         0.0452
     36 H4'         2.3751    2.7029    1.3156 H         1 ATP         0.0998
     37 H3'         2.4336   -0.1217   -0.0015 H         1 ATP         0.0544
     38 HO3'        1.7160   -0.6716    2.0397 H         1 ATP         0.3961
     39 H2'         0.0316    0.0155   -0.0339 H         1 ATP         0.0499
     40 HO2'       -1.1270    1.5823    1.1180 H         1 ATP         0.4045
     41 H1'        -0.1474    2.7798   -0.6651 H         1 ATP         0.0912
     42 H8          2.4466    0.9468   -2.6694 H         1 ATP         0.1090
     43 HN62       -1.9661   -0.0965   -6.7275 H         1 ATP         0.3694
     44 H2         -3.9481    1.6825   -3.0660 H         1 ATP         0.0371
     45 H45        -3.4814    0.7753   -5.1133 H         1 ATP         0.4283
@<TRIPOS>BOND
     1    1    2 2
     2    1    3 1
     3    1    4 1
     4    1    8 1
     5    4   32 1
     6    5    6 2
     7    5    7 1
     8    5    8 1
     9    5   12 1
    10    7   33 1
    11    9   10 2
    12    9   11 1
    13    9   12 1
    14    9   13 1
    15   13   14 1
    16   14   15 1
    17   14   34 1
    18   14   35 1
    19   15   16 1
    20   15   17 1
    21   15   36 1
    22   16   21 1
    23   17   18 1
    24   17   19 1
    25   17   37 1
    26   18   38 1
    27   19   20 1
    28   19   21 1
    29   19   39 1
    30   20   40 1
    31   21   22 1
    32   21   41 1
    33   22   23 ar
    34   22   31 ar
    35   23   24 ar
    36   23   42 1
    37   24   25 ar
    38   25   26 ar
    39   25   31 ar
    40   26   27 2
    41   26   28 ar
    42   27   43 1
    43   28   29 ar
    44   28   45 1
    45   29   30 ar
    46   29   44 1
    47   30   31 ar
@<TRIPOS>SUBSTRUCTURE
     1 ATP         1 GROUP 0 A     ****
@<TRIPOS>MOLECULE
[[[3,4-dihydroxy-5-(6-imino-1~{H}-purin-9-yl)tetrahydrofuran-2-yl]methoxy-oxido-phosphoryl]oxy-hydroxy-phosphoryl] hydrogen phosphate
   45    47     1     0     0
SMALL
USER_CHARGES

@<TRIPOS>ATOM
      1 PG          3.5664    8.3685    3.4604 P.3       1 ATP         1.5496
      2 O1G         4.3952    8.3726    4.7256 O.co2     1 ATP        -0.8494
      3 O2G         2.1026    8.7477    3.4893 O.co2     1 ATP        -0.8494
      4 O3G         4.3195    9.2926    2.3446 O.3       1 ATP        -0.7845
      5 PB          3.2371    5.4500    3.1925 P.3       1 ATP         1.9068
      6 O1B         3.8043    4.9682    4.4950 O.2       1 ATP        -0.8942
      7 O2B         1.6243    5.5495    3.1424 O.3       1 ATP        -0.8166
      8 O3B         3.7261    6.9194    2.7292 O.3       1 ATP        -0.8194
      9 PA          5.0662    4.2077    1.2400 P.3       1 ATP         1.5903
     10 O1A         5.8385    3.3445    2.2138 O.co2     1 ATP        -0.8519
     11 O2A         5.6685    5.4824    0.6904 O.co2     1 ATP        -0.8519
     12 O3A         3.6135    4.5674    1.8929 O.3       1 ATP        -0.8093
     13 O5'         4.5669    3.2939   -0.0211 O.3       1 ATP        -0.5649
     14 C5'         4.0922    1.9801    0.2227 C.3       1 ATP         0.1979
     15 C4'         2.5944    2.0310    0.4653 C.3       1 ATP         0.1179
     16 O4'         1.9327    2.5740   -0.6889 O.3       1 ATP        -0.3878
     17 C3'         1.9685    0.6634    0.6767 C.3       1 ATP         0.1185
     18 O3'         2.1425    0.1975    1.9977 O.3       1 ATP        -0.5544
     19 C2'         0.5176    0.9128    0.3099 C.3       1 ATP         0.0542
     20 O2'        -0.2103    1.4454    1.4152 O.3       1 ATP        -0.5831
     21 C1'         0.6219    1.9765   -0.7844 C.3       1 ATP         0.2222
     22 N9          0.4237    1.4496   -2.1357 N.pl3     1 ATP        -0.1887
     23 C8          1.4069    0.9710   -2.9662 C.ar      1 ATP         0.4447
     24 N7          0.9316    0.5623   -4.1260 N.2       1 ATP        -0.6159
     25 C5         -0.4120    0.7884   -4.0344 C.ar      1 ATP         0.2195
     26 C6         -1.4353    0.5283   -5.0204 C.ar      1 ATP         0.6144
     27 N6         -1.1199    0.0176   -6.1586 N.2       1 ATP        -0.8160
     28 N1         -2.6704    0.9095   -4.5147 N.pl3     1 ATP        -0.8611
     29 C2         -2.8863    1.4571   -3.2520 C.ar      1 ATP         0.6141
     30 N3         -1.9805    1.7017   -2.3442 N.2       1 ATP        -0.5913
     31 C4         -0.7561    1.3381   -2.8112 C.ar      1 ATP         0.0067
     32 HOG3        3.9030    9.3908    1.4619 H         1 ATP         0.4313
     33 HOB2        1.1654    6.1403    3.7769 H         1 ATP         0.4716
     34 H5'1        4.3180    1.3550   -0.6470 H         1 ATP         0.0452
     35 H5'2        4.6084    1.5739    1.0983 H         1 ATP         0.0452
     36 H4'         2.3751    2.7029    1.3156 H         1 ATP         0.0998
     37 H3'         2.4336   -0.1217   -0.0015 H         1 ATP         0.0544
     38 HO3'        1.7160   -0.6716    2.0397 H         1 ATP         0.3961
     39 H2'         0.0316    0.0155   -0.0339 H         1 ATP         0.0499
     40 HO2'       -1.1270    1.5823    1.1180 H         1 ATP         0.4045
     41 H1'        -0.1474    2.7798   -0.6651 H         1 ATP         0.0912
     42 H8          2.4466    0.9468   -2.6694 H         1 ATP         0.1090
     43 HN62       -1.9661   -0.0965   -6.7275 H         1 ATP         0.3694
     44 H2         -3.9481    1.6825   -3.0660 H         1 ATP         0.0371
     45 H45        -3.4814    0.7753   -5.1133 H         1 ATP         0.4283
@<TRIPOS>BOND
     1    1    2 2
     2    1    3 1
     3    1    4 1
     4    1    8 1
     5    4   32 1
     6    5    6 2
     7    5    7 1
     8    5    8 1
     9    5   12 1
    10    7   33 1
    11    9   10 2
    12    9   11 1
    13    9   12 1
    14    9   13 1
    15   13   14 1
    16   14   15 1
    17   14   34 1
    18   14   35 1
    19   15   16 1
    20   15   17 1
    21   15   36 1
    22   16   21 1
    23   17   18 1
    24   17   19 1
    25   17   37 1
    26   18   38 1
    27   19   20 1
    28   19   21 1
    29   19   39 1
    30   20   40 1
    31   21   22 1
    32   21   41 1
    33   22   23 ar
    34   22   31 ar
    35   23   24 ar
    36   23   42 1
    37   24   25 ar
    38   25   26 ar
    39   25   31 ar
    40   26   27 2
    41   26   28 ar
    42   27   43 1
    43   28   29 ar
    44   28   45 1
    45   29   30 ar
    46   29   44 1
    47   30   31 ar
@<TRIPOS>SUBSTRUCTURE
     1 ATP         1 GROUP 0 A     ****
@<TRIPOS>MOLECULE
[[[3,4-dihydroxy-5-(6-imino-1~{H}-purin-9-yl)tetrahydrofuran-2-yl]methoxy-oxido-phosphoryl]oxy-hydroxy-phosphoryl] hydrogen phosphate
   45    47     1     0     0
SMALL
USER_CHARGES

@<TRIPOS>ATOM
      1 PG          8.2579    6.7134    0.2821 P.3       1 ATP         1.5496
      2 O1G         9.6567    6.6405    0.8527 O.co2     1 ATP        -0.8494
      3 O2G         7.3664    7.9030    0.5602 O.co2     1 ATP        -0.8494
      4 O3G         8.3456    6.4978   -1.3341 O.3       1 ATP        -0.7845
      5 PB          6.9674    4.7883    2.1060 P.3       1 ATP         1.9068
      6 O1B         8.0594    4.5527    3.1071 O.2       1 ATP        -0.8942
      7 O2B         5.8355    5.8482    2.5632 O.3       1 ATP        -0.8166
      8 O3B         7.4572    5.3465    0.6703 O.3       1 ATP        -0.8194
      9 PA          5.2200    2.4550    2.5568 P.3       1 ATP         1.5903
     10 O1A         4.0258    3.2052    3.1054 O.co2     1 ATP        -0.8519
     11 O2A         6.1426    1.6889    3.4796 O.co2     1 ATP        -0.8519
     12 O3A         6.1236    3.4828    1.6663 O.3       1 ATP        -0.8093
     13 O5'         4.7294    1.4426    1.3698 O.3       1 ATP        -0.5649
     14 C5'         4.0922    1.9801    0.2227 C.3       1 ATP         0.1979
     15 C4'         2.5944    2.0310    0.4653 C.3       1 ATP         0.1179
     16 O4'         1.9327    2.5740   -0.6889 O.3       1 ATP        -0.3878
     17 C3'         1.9685    0.6634    0.6767 C.3       1 ATP         0.1185
     18 O3'         2.1425    0.1975    1.9977 O.3       1 ATP        -0.5544
     19 C2'         0.5176    0.9128    0.3099 C.3       1 ATP         0.0542
     20 O2'        -0.2103    1.4454    1.4152 O.3       1 ATP        -0.5831
     21 C1'         0.6219    1.9765   -0.7844 C.3       1 ATP         0.2222
     22 N9          0.4237    1.4496   -2.1357 N.pl3     1 ATP        -0.1887
     23 C8          1.4069    0.9710   -2.9662 C.ar      1 ATP         0.4447
     24 N7          0.9316    0.5623   -4.1260 N.2       1 ATP        -0.6159
     25 C5         -0.4120    0.7884   -4.0344 C.ar      1 ATP         0.2195
     26 C6         -1.4353    0.5283   -5.0204 C.ar      1 ATP         0.6144
     27 N6         -1.1199    0.0176   -6.1586 N.2       1 ATP        -0.8160
     28 N1         -2.6704    0.9095   -4.5147 N.pl3     1 ATP        -0.8611
     29 C2         -2.8863    1.4571   -3.2520 C.ar      1 ATP         0.6141
     30 N3         -1.9805    1.7017   -2.3442 N.2       1 ATP        -0.5913
     31 C4         -0.7561    1.3381   -2.8112 C.ar      1 ATP         0.0067
     32 HOG3        7.5138    6.5182   -1.8535 H         1 ATP         0.4313
     33 HOB2        5.3120    5.6640    3.3720 H         1 ATP         0.4716
     34 H5'1        4.4844    2.9853    0.0382 H         1 ATP         0.0452
     35 H5'2        4.3192    1.3445   -0.6391 H         1 ATP         0.0452
     36 H4'         2.3751    2.7029    1.3156 H         1 ATP         0.0998
     37 H3'         2.4336   -0.1217   -0.0015 H         1 ATP         0.0544
     38 HO3'        1.7160   -0.6716    2.0397 H         1 ATP         0.3961
     39 H2'         0.0316    0.0155   -0.0339 H         1 ATP         0.0499
     40 HO2'       -0.1608    0.7921    2.1351 H         1 ATP         0.4045
     41 H1'        -0.1474    2.7798   -0.6651 H         1 ATP         0.0912
     42 H8          2.4466    0.9468   -2.6694 H         1 ATP         0.1090
     43 HN62       -1.9661   -0.0965   -6.7275 H         1 ATP         0.3694
     44 H2         -3.9481    1.6825   -3.0660 H         1 ATP         0.0371
     45 H45        -3.4814    0.7753   -5.1133 H         1 ATP         0.4283
@<TRIPOS>BOND
     1    1    2 2
     2    1    3 1
     3    1    4 1
     4    1    8 1
     5    4   32 1
     6    5    6 2
     7    5    7 1
     8    5    8 1
     9    5   12 1
    10    7   33 1
    11    9   10 2
    12    9   11 1
    13    9   12 1
    14    9   13 1
    15   13   14 1
    16   14   15 1
    17   14   34 1
    18   14   35 1
    19   15   16 1
    20   15   17 1
    21   15   36 1
    22   16   21 1
    23   17   18 1
    24   17   19 1
    25   17   37 1
    26   18   38 1
    27   19   20 1
    28   19   21 1
    29   19   39 1
    30   20   40 1
    31   21   22 1
    32   21   41 1
    33   22   23 ar
    34   22   31 ar
    35   23   24 ar
    36   23   42 1
    37   24   25 ar
    38   25   26 ar
    39   25   31 ar
    40   26   27 2
    41   26   28 ar
    42   27   43 1
    43   28   29 ar
    44   28   45 1
    45   29   30 ar
    46   29   44 1
    47   30   31 ar
@<TRIPOS>SUBSTRUCTURE
     1 ATP         1 GROUP 0 A     ****
@<TRIPOS>MOLECULE
[[[3,4-dihydroxy-5-(6-imino-1~{H}-purin-9-yl)tetrahydrofuran-2-yl]methoxy-oxido-phosphoryl]oxy-hydroxy-phosphoryl] hydrogen phosphate
   45    47     1     0     0
SMALL
USER_CHARGES

@<TRIPOS>ATOM
      1 PG          0.6581    4.5873    5.2363 P.3       1 ATP         1.5496
      2 O1G         0.6653    6.0871    5.0407 O.co2     1 ATP        -0.8494
      3 O2G         0.8070    3.9828    6.6147 O.co2     1 ATP        -0.8494
      4 O3G        -0.6927    3.9813    4.5477 O.3       1 ATP        -0.7845
      5 PB          3.3765    4.0280    4.2385 P.3       1 ATP         1.9068
      6 O1B         3.9240    5.4156    4.0802 O.2       1 ATP        -0.8942
      7 O2B         3.8130    3.2700    5.5981 O.3       1 ATP        -0.8166
      8 O3B         1.7637    3.9195    4.2404 O.3       1 ATP        -0.8194
      9 PA          5.2200    2.4550    2.5568 P.3       1 ATP         1.5903
     10 O1A         5.8666    1.6551    3.6668 O.co2     1 ATP        -0.8519
     11 O2A         5.9474    3.6169    1.9159 O.co2     1 ATP        -0.8519
     12 O3A         3.7621    2.9828    3.0688 O.3       1 ATP        -0.8093
     13 O5'         4.7294    1.4426    1.3698 O.3       1 ATP        -0.5649
     14 C5'         4.0922    1.9801    0.2227 C.3       1 ATP         0.1979
     15 C4'         2.5944    2.0310    0.4653 C.3       1 ATP         0.1179
     16 O4'         1.9327    2.5740   -0.6889 O.3       1 ATP        -0.3878
     17 C3'         1.9685    0.6634    0.6767 C.3       1 ATP         0.1185
     18 O3'         2.1425    0.1975    1.9977 O.3       1 ATP        -0.5544
     19 C2'         0.5176    0.9128    0.3099 C.3       1 ATP         0.0542
     20 O2'        -0.2103    1.4454    1.4152 O.3       1 ATP        -0.5831
     21 C1'         0.6219    1.9765   -0.7844 C.3       1 ATP         0.2222
     22 N9          0.4237    1.4496   -2.1357 N.pl3     1 ATP        -0.1887
     23 C8          1.4069    0.9710   -2.9662 C.ar      1 ATP         0.4447
     24 N7          0.9316    0.5623   -4.1260 N.2       1 ATP        -0.6159
     25 C5         -0.4120    0.7884   -4.0344 C.ar      1 ATP         0.2195
     26 C6         -1.4353    0.5283   -5.0204 C.ar      1 ATP         0.6144
     27 N6         -1.1199    0.0176   -6.1586 N.2       1 ATP        -0.8160
     28 N1         -2.6704    0.9095   -4.5147 N.pl3     1 ATP        -0.8611
     29 C2         -2.8863    1.4571   -3.2520 C.ar      1 ATP         0.6141
     30 N3         -1.9805    1.7017   -2.3442 N.2       1 ATP        -0.5913
     31 C4         -0.7561    1.3381   -2.8112 C.ar      1 ATP         0.0067
     32 HOG3       -0.8443    3.0131    4.5903 H         1 ATP         0.4313
     33 HOB2        4.7664    3.1163    5.7705 H         1 ATP         0.4716
     34 H5'1        4.4844    2.9853    0.0382 H         1 ATP         0.0452
     35 H5'2        4.3192    1.3445   -0.6391 H         1 ATP         0.0452
     36 H4'         2.3751    2.7029    1.3156 H         1 ATP         0.0998
     37 H3'         2.4336   -0.1217   -0.0015 H         1 ATP         0.0544
     38 HO3'        3.0987    0.1465    2.1461 H         1 ATP         0.3961
     39 H2'         0.0316    0.0155   -0.0339 H         1 ATP         0.0499
     40 HO2'       -0.1608    0.7921    2.1351 H         1 ATP         0.4045
     41 H1'        -0.1474    2.7798   -0.6651 H         1 ATP         0.0912
     42 H8          2.4466    0.9468   -2.6694 H         1 ATP         0.1090
     43 HN62       -1.9661   -0.0965   -6.7275 H         1 ATP         0.3694
     44 H2         -3.9481    1.6825   -3.0660 H         1 ATP         0.0371
     45 H45        -3.4814    0.7753   -5.1133 H         1 ATP         0.4283
@<TRIPOS>BOND
     1    1    2 2
     2    1    3 1
     3    1    4 1
     4    1    8 1
     5    4   32 1
     6    5    6 2
     7    5    7 1
     8    5    8 1
     9    5   12 1
    10    7   33 1
    11    9   10 2
    12    9   11 1
    13    9   12 1
    14    9   13 1
    15   13   14 1
    16   14   15 1
    17   14   34 1
    18   14   35 1
    19   15   16 1
    20   15   17 1
    21   15   36 1
    22   16   21 1
    23   17   18 1
    24   17   19 1
    25   17   37 1
    26   18   38 1
    27   19   20 1
    28   19   21 1
    29   19   39 1
    30   20   40 1
    31   21   22 1
    32   21   41 1
    33   22   23 ar
    34   22   31 ar
    35   23   24 ar
    36   23   42 1
    37   24   25 ar
    38   25   26 ar
    39   25   31 ar
    40   26   27 2
    41   26   28 ar
    42   27   43 1
    43   28   29 ar
    44   28   45 1
    45   29   30 ar
    46   29   44 1
    47   30   31 ar
@<TRIPOS>SUBSTRUCTURE
     1 ATP         1 GROUP 0 A     ****
@<TRIPOS>MOLECULE
[[[3,4-dihydroxy-5-(6-imino-1~{H}-purin-9-yl)tetrahydrofuran-2-yl]methoxy-oxido-phosphoryl]oxy-hydroxy-phosphoryl] hydrogen phosphate
   45    47     1     0     0
SMALL
USER_CHARGES

@<TRIPOS>ATOM
      1 PG         -3.4568   -2.1851    5.5964 P.3       1 ATP         1.5496
      2 O1G        -4.4325   -1.7963    6.6848 O.co2     1 ATP        -0.8494
      3 O2G        -2.1676   -2.9028    5.9289 O.co2     1 ATP        -0.8494
      4 O3G        -4.2573   -3.0532    4.4687 O.3       1 ATP        -0.7845
      5 PB         -4.0972    0.1725    3.9444 P.3       1 ATP         1.9068
      6 O1B        -4.9908   -0.4317    2.9018 O.2       1 ATP        -0.8942
      7 O2B        -4.8647    0.9201    5.1550 O.3       1 ATP        -0.8166
      8 O3B        -3.1156   -0.8677    4.6976 O.3       1 ATP        -0.8194
      9 PA         -3.2889    2.7003    2.6568 P.3       1 ATP         1.5903
     10 O1A        -3.9939    3.6416    3.6091 O.co2     1 ATP        -0.8519
     11 O2A        -3.8600    2.4177    1.2843 O.co2     1 ATP        -0.8519
     12 O3A        -3.0422    1.2742    3.4127 O.3       1 ATP        -0.8093
     13 O5'        -1.7337    3.1724    2.4752 O.3       1 ATP        -0.5649
     14 C5'        -0.8811    2.4285    1.6206 C.3       1 ATP         0.1979
     15 C4'        -0.1994    1.3333    2.4288 C.3       1 ATP         0.1179
     16 O4'        -1.1285    0.2356    2.5840 O.3       1 ATP        -0.3878
     17 C3'         1.0324    0.7610    1.7344 C.3       1 ATP         0.1185
     18 O3'         1.9175    0.2377    2.7247 O.3       1 ATP        -0.5544
     19 C2'         0.4468   -0.3802    0.9263 C.3       1 ATP         0.0542
     20 O2'         1.3993   -1.3703    0.5961 O.3       1 ATP        -0.5831
     21 C1'        -0.6159   -0.9100    1.8769 C.3       1 ATP         0.2222
     22 N9         -1.7127   -1.6108    1.2130 N.pl3     1 ATP        -0.1887
     23 C8         -2.5485   -1.0808    0.2609 C.ar      1 ATP         0.4447
     24 N7         -3.4476   -1.9486   -0.1593 N.2       1 ATP        -0.6159
     25 C5         -3.1762   -3.0816    0.5530 C.ar      1 ATP         0.2195
     26 C6         -3.8510   -4.3579    0.5006 C.ar      1 ATP         0.6144
     27 N6         -4.8468   -4.5293   -0.2961 N.2       1 ATP        -0.8160
     28 N1         -3.2499   -5.2342    1.3937 N.pl3     1 ATP        -0.8611
     29 C2         -2.1646   -4.9275    2.2116 C.ar      1 ATP         0.6141
     30 N3         -1.5382   -3.7840    2.2778 N.2       1 ATP        -0.5913
     31 C4         -2.1054   -2.9018    1.4120 C.ar      1 ATP         0.0067
     32 HOG3       -5.0119   -2.6320    4.0044 H         1 ATP         0.4313
     33 HOB2       -5.4840    0.4046    5.7144 H         1 ATP         0.4716
     34 H5'1       -1.4801    1.9928    0.8147 H         1 ATP         0.0452
     35 H5'2       -0.1369    3.1041    1.1872 H         1 ATP         0.0452
     36 H4'         0.0403    1.7078    3.4343 H         1 ATP         0.0998
     37 H3'         1.5906    1.4859    1.1353 H         1 ATP         0.0544
     38 HO3'        2.1521    0.9800    3.3017 H         1 ATP         0.3961
     39 H2'        -0.0017    0.0018    0.0005 H         1 ATP         0.0499
     40 HO2'        2.0953   -0.9375    0.0709 H         1 ATP         0.4045
     41 H1'        -0.1998   -1.6319    2.6178 H         1 ATP         0.0912
     42 H8         -2.4515   -0.0599   -0.0829 H         1 ATP         0.1090
     43 HN62       -5.1990   -5.4882   -0.2004 H         1 ATP         0.3694
     44 H2         -1.8555   -5.7783    2.8388 H         1 ATP         0.0371
     45 H45        -3.6312   -6.1750    1.4526 H         1 ATP         0.4283
@<TRIPOS>BOND
     1    1    2 2
     2    1    3 1
     3    1    4 1
     4    1    8 1
     5    4   32 1
     6    5    6 2
     7    5    7 1
     8    5    8 1
     9    5   12 1
    10    7   33 1
    11    9   10 2
    12    9   11 1
    13    9   12 1
    14    9   13 1
    15   13   14 1
    16   14   15 1
    17   14   34 1
    18   14   35 1
    19   15   16 1
    20   15   17 1
    21   15   36 1
    22   16   21 1
    23   17   18 1
    24   17   19 1
    25   17   37 1
    26   18   38 1
    27   19   20 1
    28   19   21 1
    29   19   39 1
    30   20   40 1
    31   21   22 1
    32   21   41 1
    33   22   23 ar
    34   22   31 ar
    35   23   24 ar
    36   23   42 1
    37   24   25 ar
    38   25   26 ar
    39   25   31 ar
    40   26   27 2
    41   26   28 ar
    42   27   43 1
    43   28   29 ar
    44   28   45 1
    45   29   30 ar
    46   29   44 1
    47   30   31 ar
@<TRIPOS>SUBSTRUCTURE
     1 ATP         1 GROUP 0 A     ****
@<TRIPOS>MOLECULE
[[[3,4-dihydroxy-5-(6-imino-1~{H}-purin-9-yl)tetrahydrofuran-2-yl]methoxy-oxido-phosphoryl]oxy-hydroxy-phosphoryl] hydrogen phosphate
   45    47     1     0     0
SMALL
USER_CHARGES

@<TRIPOS>ATOM
      1 PG          4.3732    5.1278    5.8950 P.3       1 ATP         1.5496
      2 O1G         3.0740    4.9708    6.6533 O.co2     1 ATP        -0.8494
      3 O2G         5.1560    6.4205    5.9540 O.co2     1 ATP        -0.8494
      4 O3G         5.3671    3.9005    6.3099 O.3       1 ATP        -0.7845
      5 PB          3.2371    5.4500    3.1925 P.3       1 ATP         1.9068
      6 O1B         1.7735    5.5676    3.4998 O.2       1 ATP        -0.8942
      7 O2B         4.0003    6.8535    2.9449 O.3       1 ATP        -0.8166
      8 O3B         4.1250    4.7272    4.3335 O.3       1 ATP        -0.8194
      9 PA          5.0662    4.2077    1.2400 P.3       1 ATP         1.5903
     10 O1A         5.8385    3.3445    2.2138 O.co2     1 ATP        -0.8519
     11 O2A         5.6685    5.4824    0.6904 O.co2     1 ATP        -0.8519
     12 O3A         3.6135    4.5674    1.8929 O.3       1 ATP        -0.8093
     13 O5'         4.5669    3.2939   -0.0211 O.3       1 ATP        -0.5649
     14 C5'         4.0922    1.9801    0.2227 C.3       1 ATP         0.1979
     15 C4'         2.5944    2.0310    0.4653 C.3       1 ATP         0.1179
     16 O4'         1.9327    2.5740   -0.6889 O.3       1 ATP        -0.3878
     17 C3'         1.9685    0.6634    0.6767 C.3       1 ATP         0.1185
     18 O3'         2.1425    0.1975    1.9977 O.3       1 ATP        -0.5544
     19 C2'         0.5176    0.9128    0.3099 C.3       1 ATP         0.0542
     20 O2'        -0.2103    1.4454    1.4152 O.3       1 ATP        -0.5831
     21 C1'         0.6219    1.9765   -0.7844 C.3       1 ATP         0.2222
     22 N9          0.4237    1.4496   -2.1357 N.pl3     1 ATP        -0.1887
     23 C8          1.4069    0.9710   -2.9662 C.ar      1 ATP         0.4447
     24 N7          0.9316    0.5623   -4.1260 N.2       1 ATP        -0.6159
     25 C5         -0.4120    0.7884   -4.0344 C.ar      1 ATP         0.2195
     26 C6         -1.4353    0.5283   -5.0204 C.ar      1 ATP         0.6144
     27 N6         -1.1199    0.0176   -6.1586 N.2       1 ATP        -0.8160
     28 N1         -2.6704    0.9095   -4.5147 N.pl3     1 ATP        -0.8611
     29 C2         -2.8863    1.4571   -3.2520 C.ar      1 ATP         0.6141
     30 N3         -1.9805    1.7017   -2.3442 N.2       1 ATP        -0.5913
     31 C4         -0.7561    1.3381   -2.8112 C.ar      1 ATP         0.0067
     32 HOG3        6.2569    3.8612    5.8990 H         1 ATP         0.4313
     33 HOB2        4.0126    7.5203    3.6643 H         1 ATP         0.4716
     34 H5'1        4.3180    1.3550   -0.6470 H         1 ATP         0.0452
     35 H5'2        4.6084    1.5739    1.0983 H         1 ATP         0.0452
     36 H4'         2.3751    2.7029    1.3156 H         1 ATP         0.0998
     37 H3'         2.4336   -0.1217   -0.0015 H         1 ATP         0.0544
     38 HO3'        1.7160   -0.6716    2.0397 H         1 ATP         0.3961
     39 H2'         0.0316    0.0155   -0.0339 H         1 ATP         0.0499
     40 HO2'       -0.1608    0.7921    2.1351 H         1 ATP         0.4045
     41 H1'        -0.1474    2.7798   -0.6651 H         1 ATP         0.0912
     42 H8          2.4466    0.9468   -2.6694 H         1 ATP         0.1090
     43 HN62       -1.9661   -0.0965   -6.7275 H         1 ATP         0.3694
     44 H2         -3.9481    1.6825   -3.0660 H         1 ATP         0.0371
     45 H45        -3.4814    0.7753   -5.1133 H         1 ATP         0.4283
@<TRIPOS>BOND
     1    1    2 2
     2    1    3 1
     3    1    4 1
     4    1    8 1
     5    4   32 1
     6    5    6 2
     7    5    7 1
     8    5    8 1
     9    5   12 1
    10    7   33 1
    11    9   10 2
    12    9   11 1
    13    9   12 1
    14    9   13 1
    15   13   14 1
    16   14   15 1
    17   14   34 1
    18   14   35 1
    19   15   16 1
    20   15   17 1
    21   15   36 1
    22   16   21 1
    23   17   18 1
    24   17   19 1
    25   17   37 1
    26   18   38 1
    27   19   20 1
    28   19   21 1
    29   19   39 1
    30   20   40 1
    31   21   22 1
    32   21   41 1
    33   22   23 ar
    34   22   31 ar
    35   23   24 ar
    36   23   42 1
    37   24   25 ar
    38   25   26 ar
    39   25   31 ar
    40   26   27 2
    41   26   28 ar
    42   27   43 1
    43   28   29 ar
    44   28   45 1
    45   29   30 ar
    46   29   44 1
    47   30   31 ar
@<TRIPOS>SUBSTRUCTURE
     1 ATP         1 GROUP 0 A     ****
@<TRIPOS>MOLECULE
[[[3,4-dihydroxy-5-(6-imino-1~{H}-purin-9-yl)tetrahydrofuran-2-yl]methoxy-oxido-phosphoryl]oxy-hydroxy-phosphoryl] hydrogen phosphate
   45    47     1     0     0
SMALL
USER_CHARGES

@<TRIPOS>ATOM
      1 PG          2.5409    6.6365    6.1797 P.3       1 ATP         1.5496
      2 O1G         3.4930    5.9037    7.0986 O.co2     1 ATP        -0.8494
      3 O2G         1.4370    7.5063    6.7384 O.co2     1 ATP        -0.8494
      4 O3G         3.4175    7.5242    5.1263 O.3       1 ATP        -0.7845
      5 PB          0.8887    4.3304    5.3734 P.3       1 ATP         1.9068
      6 O1B         1.3995    3.2642    6.2968 O.2       1 ATP        -0.8942
      7 O2B        -0.4858    5.0413    5.8413 O.3       1 ATP        -0.8166
      8 O3B         1.8966    5.5700    5.1274 O.3       1 ATP        -0.8194
      9 PA          0.0330    4.7082    2.5759 P.3       1 ATP         1.5903
     10 O1A         1.0662    5.7448    2.1912 O.co2     1 ATP        -0.8519
     11 O2A        -1.3985    5.1102    2.8567 O.co2     1 ATP        -0.8519
     12 O3A         0.5883    3.8617    3.8570 O.3       1 ATP        -0.8093
     13 O5'         0.0180    3.5131    1.4595 O.3       1 ATP        -0.5649
     14 C5'        -0.8811    2.4285    1.6206 C.3       1 ATP         0.1979
     15 C4'        -0.1994    1.3333    2.4288 C.3       1 ATP         0.1179
     16 O4'        -1.1285    0.2356    2.5840 O.3       1 ATP        -0.3878
     17 C3'         1.0324    0.7610    1.7344 C.3       1 ATP         0.1185
     18 O3'         1.9175    0.2377    2.7247 O.3       1 ATP        -0.5544
     19 C2'         0.4468   -0.3802    0.9263 C.3       1 ATP         0.0542
     20 O2'         1.3993   -1.3703    0.5961 O.3       1 ATP        -0.5831
     21 C1'        -0.6159   -0.9100    1.8769 C.3       1 ATP         0.2222
     22 N9         -1.7127   -1.6108    1.2130 N.pl3     1 ATP        -0.1887
     23 C8         -2.8662   -1.0361    0.7388 C.ar      1 ATP         0.4447
     24 N7         -3.6774   -1.9166    0.1867 N.2       1 ATP        -0.6159
     25 C5         -3.0159   -3.1045    0.3123 C.ar      1 ATP         0.2195
     26 C6         -3.4377   -4.4169   -0.1199 C.ar      1 ATP         0.6144
     27 N6         -4.5720   -4.5691   -0.7080 N.2       1 ATP        -0.8160
     28 N1         -2.4600   -5.3463    0.2071 N.pl3     1 ATP        -0.8611
     29 C2         -1.2595   -5.0554    0.8515 C.ar      1 ATP         0.6141
     30 N3         -0.8555   -3.8803    1.2516 N.2       1 ATP        -0.5913
     31 C4         -1.7946   -2.9457    0.9448 C.ar      1 ATP         0.0067
     32 HOG3        2.9403    8.0618    4.4588 H         1 ATP         0.4313
     33 HOB2       -0.8703    5.7470    5.2788 H         1 ATP         0.4716
     34 H5'1       -1.7770    2.7851    2.1387 H         1 ATP         0.0452
     35 H5'2       -1.1653    2.0543    0.6320 H         1 ATP         0.0452
     36 H4'         0.0403    1.7078    3.4343 H         1 ATP         0.0998
     37 H3'         1.5906    1.4859    1.1353 H         1 ATP         0.0544
     38 HO3'        2.1521    0.9800    3.3017 H         1 ATP         0.3961
     39 H2'        -0.0017    0.0018    0.0005 H         1 ATP         0.0499
     40 HO2'        0.9369   -2.0558    0.0825 H         1 ATP         0.4045
     41 H1'        -0.1998   -1.6319    2.6178 H         1 ATP         0.0912
     42 H8         -3.0558    0.0252    0.8256 H         1 ATP         0.1090
     43 HN62       -4.7047   -5.5592   -0.9421 H         1 ATP         0.3694
     44 H2         -0.6372   -5.9505    1.0077 H         1 ATP         0.0371
     45 H45        -2.6338   -6.3155   -0.0469 H         1 ATP         0.4283
@<TRIPOS>BOND
     1    1    2 2
     2    1    3 1
     3    1    4 1
     4    1    8 1
     5    4   32 1
     6    5    6 2
     7    5    7 1
     8    5    8 1
     9    5   12 1
    10    7   33 1
    11    9   10 2
    12    9   11 1
    13    9   12 1
    14    9   13 1
    15   13   14 1
    16   14   15 1
    17   14   34 1
    18   14   35 1
    19   15   16 1
    20   15   17 1
    21   15   36 1
    22   16   21 1
    23   17   18 1
    24   17   19 1
    25   17   37 1
    26   18   38 1
    27   19   20 1
    28   19   21 1
    29   19   39 1
    30   20   40 1
    31   21   22 1
    32   21   41 1
    33   22   23 ar
    34   22   31 ar
    35   23   24 ar
    36   23   42 1
    37   24   25 ar
    38   25   26 ar
    39   25   31 ar
    40   26   27 2
    41   26   28 ar
    42   27   43 1
    43   28   29 ar
    44   28   45 1
    45   29   30 ar
    46   29   44 1
    47   30   31 ar
@<TRIPOS>SUBSTRUCTURE
     1 ATP         1 GROUP 0 A     ****
@<TRIPOS>MOLECULE
[[[3,4-dihydroxy-5-(6-imino-1~{H}-purin-9-yl)tetrahydrofuran-2-yl]methoxy-oxido-phosphoryl]oxy-hydroxy-phosphoryl] hydrogen phosphate
   45    47     1     0     0
SMALL
USER_CHARGES

@<TRIPOS>ATOM
      1 PG          1.7667    4.1695    5.7828 P.3       1 ATP         1.5496
      2 O1G         1.9916    4.9709    4.5199 O.co2     1 ATP        -0.8494
      3 O2G         2.2750    2.7502    5.9031 O.co2     1 ATP        -0.8494
      4 O3G         2.3299    5.0310    7.0504 O.3       1 ATP        -0.7845
      5 PB         -1.0902    3.5580    5.3802 P.3       1 ATP         1.9068
      6 O1B        -1.0526    2.0674    5.2157 O.2       1 ATP        -0.8942
      7 O2B        -2.3630    4.1251    6.1999 O.3       1 ATP        -0.8166
      8 O3B         0.1781    4.1986    6.1509 O.3       1 ATP        -0.8194
      9 PA         -2.1560    4.4277    2.7709 P.3       1 ATP         1.5903
     10 O1A        -1.6129    5.3159    1.6726 O.co2     1 ATP        -0.8519
     11 O2A        -3.5422    4.6538    3.3339 O.co2     1 ATP        -0.8519
     12 O3A        -1.0946    4.4160    4.0116 O.3       1 ATP        -0.8093
     13 O5'        -2.0402    2.8619    2.3130 O.3       1 ATP        -0.5649
     14 C5'        -0.8811    2.4285    1.6206 C.3       1 ATP         0.1979
     15 C4'        -0.1994    1.3333    2.4288 C.3       1 ATP         0.1179
     16 O4'        -1.1285    0.2356    2.5840 O.3       1 ATP        -0.3878
     17 C3'         1.0324    0.7610    1.7344 C.3       1 ATP         0.1185
     18 O3'         1.9175    0.2377    2.7247 O.3       1 ATP        -0.5544
     19 C2'         0.4468   -0.3802    0.9263 C.3       1 ATP         0.0542
     20 O2'         1.3993   -1.3703    0.5961 O.3       1 ATP        -0.5831
     21 C1'        -0.6159   -0.9100    1.8769 C.3       1 ATP         0.2222
     22 N9         -1.7127   -1.6108    1.2130 N.pl3     1 ATP        -0.1887
     23 C8         -2.8662   -1.0361    0.7388 C.ar      1 ATP         0.4447
     24 N7         -3.6774   -1.9166    0.1867 N.2       1 ATP        -0.6159
     25 C5         -3.0159   -3.1045    0.3123 C.ar      1 ATP         0.2195
     26 C6         -3.4377   -4.4169   -0.1199 C.ar      1 ATP         0.6144
     27 N6         -4.5720   -4.5691   -0.7080 N.2       1 ATP        -0.8160
     28 N1         -2.4600   -5.3463    0.2071 N.pl3     1 ATP        -0.8611
     29 C2         -1.2595   -5.0554    0.8515 C.ar      1 ATP         0.6141
     30 N3         -0.8555   -3.8803    1.2516 N.2       1 ATP        -0.5913
     31 C4         -1.7946   -2.9457    0.9448 C.ar      1 ATP         0.0067
     32 HOG3        2.2560    4.6429    7.9482 H         1 ATP         0.4313
     33 HOB2       -3.2649    3.9515    5.8554 H         1 ATP         0.4716
     34 H5'1       -1.1769    2.0503    0.6369 H         1 ATP         0.0452
     35 H5'2       -0.2081    3.2815    1.4877 H         1 ATP         0.0452
     36 H4'         0.0403    1.7078    3.4343 H         1 ATP         0.0998
     37 H3'         1.5906    1.4859    1.1353 H         1 ATP         0.0544
     38 HO3'        2.6839   -0.1150    2.2479 H         1 ATP         0.3961
     39 H2'        -0.0017    0.0018    0.0005 H         1 ATP         0.0499
     40 HO2'        2.0953   -0.9375    0.0709 H         1 ATP         0.4045
     41 H1'        -0.1998   -1.6319    2.6178 H         1 ATP         0.0912
     42 H8         -3.0558    0.0252    0.8256 H         1 ATP         0.1090
     43 HN62       -4.7047   -5.5592   -0.9421 H         1 ATP         0.3694
     44 H2         -0.6372   -5.9505    1.0077 H         1 ATP         0.0371
     45 H45        -2.6338   -6.3155   -0.0469 H         1 ATP         0.4283
@<TRIPOS>BOND
     1    1    2 2
     2    1    3 1
     3    1    4 1
     4    1    8 1
     5    4   32 1
     6    5    6 2
     7    5    7 1
     8    5    8 1
     9    5   12 1
    10    7   33 1
    11    9   10 2
    12    9   11 1
    13    9   12 1
    14    9   13 1
    15   13   14 1
    16   14   15 1
    17   14   34 1
    18   14   35 1
    19   15   16 1
    20   15   17 1
    21   15   36 1
    22   16   21 1
    23   17   18 1
    24   17   19 1
    25   17   37 1
    26   18   38 1
    27   19   20 1
    28   19   21 1
    29   19   39 1
    30   20   40 1
    31   21   22 1
    32   21   41 1
    33   22   23 ar
    34   22   31 ar
    35   23   24 ar
    36   23   42 1
    37   24   25 ar
    38   25   26 ar
    39   25   31 ar
    40   26   27 2
    41   26   28 ar
    42   27   43 1
    43   28   29 ar
    44   28   45 1
    45   29   30 ar
    46   29   44 1
    47   30   31 ar
@<TRIPOS>SUBSTRUCTURE
     1 ATP         1 GROUP 0 A     ****
@<TRIPOS>MOLECULE
[[[3,4-dihydroxy-5-(6-imino-1~{H}-purin-9-yl)tetrahydrofuran-2-yl]methoxy-oxido-phosphoryl]oxy-hydroxy-phosphoryl] hydrogen phosphate
   45    47     1     0     0
SMALL
USER_CHARGES

@<TRIPOS>ATOM
      1 PG         -2.8129    2.0908   -2.5362 P.3       1 ATP         1.5496
      2 O1G        -4.2579    2.5169   -2.4015 O.co2     1 ATP        -0.8494
      3 O2G        -2.1164    1.3425   -1.4216 O.co2     1 ATP        -0.8494
      4 O3G        -2.6521    1.2328   -3.9161 O.3       1 ATP        -0.7845
      5 PB         -1.5637    4.7287   -2.1133 P.3       1 ATP         1.9068
      6 O1B        -0.6947    5.7190   -2.8307 O.2       1 ATP        -0.8942
      7 O2B        -3.0108    5.2889   -1.6598 O.3       1 ATP        -0.8166
      8 O3B        -1.9155    3.3893   -2.9470 O.3       1 ATP        -0.8194
      9 PA         -0.4664    4.8322    0.6228 P.3       1 ATP         1.5903
     10 O1A        -1.6757    5.4417    1.2980 O.co2     1 ATP        -0.8519
     11 O2A         0.7544    5.6725    0.3175 O.co2     1 ATP        -0.8519
     12 O3A        -0.9456    4.1040   -0.7578 O.3       1 ATP        -0.8093
     13 O5'         0.0180    3.5131    1.4595 O.3       1 ATP        -0.5649
     14 C5'        -0.8811    2.4285    1.6206 C.3       1 ATP         0.1979
     15 C4'        -0.1994    1.3333    2.4288 C.3       1 ATP         0.1179
     16 O4'        -1.1285    0.2356    2.5840 O.3       1 ATP        -0.3878
     17 C3'         1.0324    0.7610    1.7344 C.3       1 ATP         0.1185
     18 O3'         1.9175    0.2377    2.7247 O.3       1 ATP        -0.5544
     19 C2'         0.4468   -0.3802    0.9263 C.3       1 ATP         0.0542
     20 O2'         1.3993   -1.3703    0.5961 O.3       1 ATP        -0.5831
     21 C1'        -0.6159   -0.9100    1.8769 C.3       1 ATP         0.2222
     22 N9         -1.7127   -1.6108    1.2130 N.pl3     1 ATP        -0.1887
     23 C8         -1.7690   -2.9583    0.9549 C.ar      1 ATP         0.4447
     24 N7         -2.8827   -3.3076    0.3418 N.2       1 ATP        -0.6159
     25 C5         -3.5683   -2.1351    0.2017 C.ar      1 ATP         0.2195
     26 C6         -4.8617   -1.9185   -0.4044 C.ar      1 ATP         0.6144
     27 N6         -5.5166   -2.9094   -0.8994 N.2       1 ATP        -0.8160
     28 N1         -5.1836   -0.5701   -0.3344 N.pl3     1 ATP        -0.8611
     29 C2         -4.3821    0.4180    0.2330 C.ar      1 ATP         0.6141
     30 N3         -3.2117    0.2488    0.7860 N.2       1 ATP        -0.5913
     31 C4         -2.8672   -1.0657    0.7327 C.ar      1 ATP         0.0067
     32 HOG3       -1.7654    0.8830   -4.1476 H         1 ATP         0.4313
     33 HOB2       -3.6249    4.6883   -1.1861 H         1 ATP         0.4716
     34 H5'1       -1.7770    2.7851    2.1387 H         1 ATP         0.0452
     35 H5'2       -1.1653    2.0543    0.6320 H         1 ATP         0.0452
     36 H4'         0.0403    1.7078    3.4343 H         1 ATP         0.0998
     37 H3'         1.5906    1.4859    1.1353 H         1 ATP         0.0544
     38 HO3'        2.6839   -0.1150    2.2479 H         1 ATP         0.3961
     39 H2'        -0.0017    0.0018    0.0005 H         1 ATP         0.0499
     40 HO2'        0.9369   -2.0558    0.0825 H         1 ATP         0.4045
     41 H1'        -0.1998   -1.6319    2.6178 H         1 ATP         0.0912
     42 H8         -0.9697   -3.6300    1.2371 H         1 ATP         0.1090
     43 HN62       -6.4060   -2.5723   -1.2840 H         1 ATP         0.3694
     44 H2         -4.8409    1.4176    0.1757 H         1 ATP         0.0371
     45 H45        -6.0768   -0.2826   -0.7263 H         1 ATP         0.4283
@<TRIPOS>BOND
     1    1    2 2
     2    1    3 1
     3    1    4 1
     4    1    8 1
     5    4   32 1
     6    5    6 2
     7    5    7 1
     8    5    8 1
     9    5   12 1
    10    7   33 1
    11    9   10 2
    12    9   11 1
    13    9   12 1
    14    9   13 1
    15   13   14 1
    16   14   15 1
    17   14   34 1
    18   14   35 1
    19   15   16 1
    20   15   17 1
    21   15   36 1
    22   16   21 1
    23   17   18 1
    24   17   19 1
    25   17   37 1
    26   18   38 1
    27   19   20 1
    28   19   21 1
    29   19   39 1
    30   20   40 1
    31   21   22 1
    32   21   41 1
    33   22   23 ar
    34   22   31 ar
    35   23   24 ar
    36   23   42 1
    37   24   25 ar
    38   25   26 ar
    39   25   31 ar
    40   26   27 2
    41   26   28 ar
    42   27   43 1
    43   28   29 ar
    44   28   45 1
    45   29   30 ar
    46   29   44 1
    47   30   31 ar
@<TRIPOS>SUBSTRUCTURE
     1 ATP         1 GROUP 0 A     ****
@<TRIPOS>MOLECULE
[[[3,4-dihydroxy-5-(6-imino-1~{H}-purin-9-yl)tetrahydrofuran-2-yl]methoxy-oxido-phosphoryl]oxy-hydroxy-phosphoryl] hydrogen phosphate
   45    47     1     0     0
SMALL
USER_CHARGES

@<TRIPOS>ATOM
      1 PG          2.5409    6.6365    6.1797 P.3       1 ATP         1.5496
      2 O1G         3.4930    5.9037    7.0986 O.co2     1 ATP        -0.8494
      3 O2G         1.4370    7.5063    6.7384 O.co2     1 ATP        -0.8494
      4 O3G         3.4175    7.5242    5.1263 O.3       1 ATP        -0.7845
      5 PB          0.8887    4.3304    5.3734 P.3       1 ATP         1.9068
      6 O1B         1.3995    3.2642    6.2968 O.2       1 ATP        -0.8942
      7 O2B        -0.4858    5.0413    5.8413 O.3       1 ATP        -0.8166
      8 O3B         1.8966    5.5700    5.1274 O.3       1 ATP        -0.8194
      9 PA          0.0330    4.7082    2.5759 P.3       1 ATP         1.5903
     10 O1A         1.0662    5.7448    2.1912 O.co2     1 ATP        -0.8519
     11 O2A        -1.3985    5.1102    2.8567 O.co2     1 ATP        -0.8519
     12 O3A         0.5883    3.8617    3.8570 O.3       1 ATP        -0.8093
     13 O5'         0.0180    3.5131    1.4595 O.3       1 ATP        -0.5649
     14 C5'        -0.8811    2.4285    1.6206 C.3       1 ATP         0.1979
     15 C4'        -0.1994    1.3333    2.4288 C.3       1 ATP         0.1179
     16 O4'        -1.1285    0.2356    2.5840 O.3       1 ATP        -0.3878
     17 C3'         1.0324    0.7610    1.7344 C.3       1 ATP         0.1185
     18 O3'         1.9175    0.2377    2.7247 O.3       1 ATP        -0.5544
     19 C2'         0.4468   -0.3802    0.9263 C.3       1 ATP         0.0542
     20 O2'         1.3993   -1.3703    0.5961 O.3       1 ATP        -0.5831
     21 C1'        -0.6159   -0.9100    1.8769 C.3       1 ATP         0.2222
     22 N9         -1.7127   -1.6108    1.2130 N.pl3     1 ATP        -0.1887
     23 C8         -1.7690   -2.9583    0.9549 C.ar      1 ATP         0.4447
     24 N7         -2.8827   -3.3076    0.3418 N.2       1 ATP        -0.6159
     25 C5         -3.5683   -2.1351    0.2017 C.ar      1 ATP         0.2195
     26 C6         -4.8617   -1.9185   -0.4044 C.ar      1 ATP         0.6144
     27 N6         -5.5166   -2.9094   -0.8994 N.2       1 ATP        -0.8160
     28 N1         -5.1836   -0.5701   -0.3344 N.pl3     1 ATP        -0.8611
     29 C2         -4.3821    0.4180    0.2330 C.ar      1 ATP         0.6141
     30 N3         -3.2117    0.2488    0.7860 N.2       1 ATP        -0.5913
     31 C4         -2.8672   -1.0657    0.7327 C.ar      1 ATP         0.0067
     32 HOG3        2.9403    8.0618    4.4588 H         1 ATP         0.4313
     33 HOB2       -0.5076    5.5120    6.7017 H         1 ATP         0.4716
     34 H5'1       -1.7770    2.7851    2.1387 H         1 ATP         0.0452
     35 H5'2       -1.1653    2.0543    0.6320 H         1 ATP         0.0452
     36 H4'         0.0403    1.7078    3.4343 H         1 ATP         0.0998
     37 H3'         1.5906    1.4859    1.1353 H         1 ATP         0.0544
     38 HO3'        2.6839   -0.1150    2.2479 H         1 ATP         0.3961
     39 H2'        -0.0017    0.0018    0.0005 H         1 ATP         0.0499
     40 HO2'        1.7495   -1.7243    1.4324 H         1 ATP         0.4045
     41 H1'        -0.1998   -1.6319    2.6178 H         1 ATP         0.0912
     42 H8         -0.9697   -3.6300    1.2371 H         1 ATP         0.1090
     43 HN62       -6.4060   -2.5723   -1.2840 H         1 ATP         0.3694
     44 H2         -4.8409    1.4176    0.1757 H         1 ATP         0.0371
     45 H45        -6.0768   -0.2826   -0.7263 H         1 ATP         0.4283
@<TRIPOS>BOND
     1    1    2 2
     2    1    3 1
     3    1    4 1
     4    1    8 1
     5    4   32 1
     6    5    6 2
     7    5    7 1
     8    5    8 1
     9    5   12 1
    10    7   33 1
    11    9   10 2
    12    9   11 1
    13    9   12 1
    14    9   13 1
    15   13   14 1
    16   14   15 1
    17   14   34 1
    18   14   35 1
    19   15   16 1
    20   15   17 1
    21   15   36 1
    22   16   21 1
    23   17   18 1
    24   17   19 1
    25   17   37 1
    26   18   38 1
    27   19   20 1
    28   19   21 1
    29   19   39 1
    30   20   40 1
    31   21   22 1
    32   21   41 1
    33   22   23 ar
    34   22   31 ar
    35   23   24 ar
    36   23   42 1
    37   24   25 ar
    38   25   26 ar
    39   25   31 ar
    40   26   27 2
    41   26   28 ar
    42   27   43 1
    43   28   29 ar
    44   28   45 1
    45   29   30 ar
    46   29   44 1
    47   30   31 ar
@<TRIPOS>SUBSTRUCTURE
     1 ATP         1 GROUP 0 A     ****
@<TRIPOS>MOLECULE
[[[3,4-dihydroxy-5-(6-imino-1~{H}-purin-9-yl)tetrahydrofuran-2-yl]methoxy-oxido-phosphoryl]oxy-hydroxy-phosphoryl] hydrogen phosphate
   45    47     1     0     0
SMALL
USER_CHARGES

@<TRIPOS>ATOM
      1 PG         -5.6106    0.8974    3.1353 P.3       1 ATP         1.5496
      2 O1G        -6.1985    1.1038    4.5135 O.co2     1 ATP        -0.8494
      3 O2G        -4.2655    0.2295    2.9565 O.co2     1 ATP        -0.8494
      4 O3G        -6.7069    0.1093    2.2170 O.3       1 ATP        -0.7845
      5 PB         -5.2378    2.6715    0.8091 P.3       1 ATP         1.9068
      6 O1B        -6.0854    1.9875   -0.2225 O.2       1 ATP        -0.8942
      7 O2B        -5.2731    4.2871    0.7634 O.3       1 ATP        -0.8166
      8 O3B        -5.6056    2.3236    2.3442 O.3       1 ATP        -0.8194
      9 PA         -2.5569    2.5164   -0.4114 P.3       1 ATP         1.5903
     10 O1A        -2.3624    3.9979   -0.6505 O.co2     1 ATP        -0.8519
     11 O2A        -2.9100    1.5885   -1.5534 O.co2     1 ATP        -0.8519
     12 O3A        -3.6627    2.3151    0.7730 O.3       1 ATP        -0.8093
     13 O5'        -1.2434    1.9102    0.3514 O.3       1 ATP        -0.5649
     14 C5'        -0.8811    2.4285    1.6206 C.3       1 ATP         0.1979
     15 C4'        -0.1994    1.3333    2.4288 C.3       1 ATP         0.1179
     16 O4'        -1.1285    0.2356    2.5840 O.3       1 ATP        -0.3878
     17 C3'         1.0324    0.7610    1.7344 C.3       1 ATP         0.1185
     18 O3'         1.9175    0.2377    2.7247 O.3       1 ATP        -0.5544
     19 C2'         0.4468   -0.3802    0.9263 C.3       1 ATP         0.0542
     20 O2'         1.3993   -1.3703    0.5961 O.3       1 ATP        -0.5831
     21 C1'        -0.6159   -0.9100    1.8769 C.3       1 ATP         0.2222
     22 N9         -1.7127   -1.6108    1.2130 N.pl3     1 ATP        -0.1887
     23 C8         -2.8662   -1.0361    0.7388 C.ar      1 ATP         0.4447
     24 N7         -3.6774   -1.9166    0.1867 N.2       1 ATP        -0.6159
     25 C5         -3.0159   -3.1045    0.3123 C.ar      1 ATP         0.2195
     26 C6         -3.4377   -4.4169   -0.1199 C.ar      1 ATP         0.6144
     27 N6         -4.5720   -4.5691   -0.7080 N.2       1 ATP        -0.8160
     28 N1         -2.4600   -5.3463    0.2071 N.pl3     1 ATP        -0.8611
     29 C2         -1.2595   -5.0554    0.8515 C.ar      1 ATP         0.6141
     30 N3         -0.8555   -3.8803    1.2516 N.2       1 ATP        -0.5913
     31 C4         -1.7946   -2.9457    0.9448 C.ar      1 ATP         0.0067
     32 HOG3       -6.4728   -0.1008    1.2879 H         1 ATP         0.4313
     33 HOB2       -4.9808    4.7452   -0.0533 H         1 ATP         0.4716
     34 H5'1       -0.2034    3.2760    1.4767 H         1 ATP         0.0452
     35 H5'2       -1.7842    2.7761    2.1322 H         1 ATP         0.0452
     36 H4'         0.0403    1.7078    3.4343 H         1 ATP         0.0998
     37 H3'         1.5906    1.4859    1.1353 H         1 ATP         0.0544
     38 HO3'        2.6839   -0.1150    2.2479 H         1 ATP         0.3961
     39 H2'        -0.0017    0.0018    0.0005 H         1 ATP         0.0499
     40 HO2'        2.0953   -0.9375    0.0709 H         1 ATP         0.4045
     41 H1'        -0.1998   -1.6319    2.6178 H         1 ATP         0.0912
     42 H8         -3.0558    0.0252    0.8256 H         1 ATP         0.1090
     43 HN62       -4.7047   -5.5592   -0.9421 H         1 ATP         0.3694
     44 H2         -0.6372   -5.9505    1.0077 H         1 ATP         0.0371
     45 H45        -2.6338   -6.3155   -0.0469 H         1 ATP         0.4283
@<TRIPOS>BOND
     1    1    2 2
     2    1    3 1
     3    1    4 1
     4    1    8 1
     5    4   32 1
     6    5    6 2
     7    5    7 1
     8    5    8 1
     9    5   12 1
    10    7   33 1
    11    9   10 2
    12    9   11 1
    13    9   12 1
    14    9   13 1
    15   13   14 1
    16   14   15 1
    17   14   34 1
    18   14   35 1
    19   15   16 1
    20   15   17 1
    21   15   36 1
    22   16   21 1
    23   17   18 1
    24   17   19 1
    25   17   37 1
    26   18   38 1
    27   19   20 1
    28   19   21 1
    29   19   39 1
    30   20   40 1
    31   21   22 1
    32   21   41 1
    33   22   23 ar
    34   22   31 ar
    35   23   24 ar
    36   23   42 1
    37   24   25 ar
    38   25   26 ar
    39   25   31 ar
    40   26   27 2
    41   26   28 ar
    42   27   43 1
    43   28   29 ar
    44   28   45 1
    45   29   30 ar
    46   29   44 1
    47   30   31 ar
@<TRIPOS>SUBSTRUCTURE
     1 ATP         1 GROUP 0 A     ****
@<TRIPOS>MOLECULE
[[[3,4-dihydroxy-5-(6-imino-1~{H}-purin-9-yl)tetrahydrofuran-2-yl]methoxy-oxido-phosphoryl]oxy-hydroxy-phosphoryl] hydrogen phosphate
   45    47     1     0     0
SMALL
USER_CHARGES

@<TRIPOS>ATOM
      1 PG          2.2185    2.7185    7.4546 P.3       1 ATP         1.5496
      2 O1G         3.2893    3.7584    7.6989 O.co2     1 ATP        -0.8494
      3 O2G         2.5224    1.2433    7.5914 O.co2     1 ATP        -0.8494
      4 O3G         0.9297    3.0715    8.3931 O.3       1 ATP        -0.7845
      5 PB          0.8887    4.3304    5.3734 P.3       1 ATP         1.9068
      6 O1B        -0.2834    4.8810    6.1305 O.2       1 ATP        -0.8942
      7 O2B         2.1451    5.3374    5.2284 O.3       1 ATP        -0.8166
      8 O3B         1.5425    2.9892    5.9952 O.3       1 ATP        -0.8194
      9 PA          0.0330    4.7082    2.5759 P.3       1 ATP         1.5903
     10 O1A         1.0662    5.7448    2.1912 O.co2     1 ATP        -0.8519
     11 O2A        -1.3985    5.1102    2.8567 O.co2     1 ATP        -0.8519
     12 O3A         0.5883    3.8617    3.8570 O.3       1 ATP        -0.8093
     13 O5'         0.0180    3.5131    1.4595 O.3       1 ATP        -0.5649
     14 C5'        -0.8811    2.4285    1.6206 C.3       1 ATP         0.1979
     15 C4'        -0.1994    1.3333    2.4288 C.3       1 ATP         0.1179
     16 O4'        -1.1285    0.2356    2.5840 O.3       1 ATP        -0.3878
     17 C3'         1.0324    0.7610    1.7344 C.3       1 ATP         0.1185
     18 O3'         1.9175    0.2377    2.7247 O.3       1 ATP        -0.5544
     19 C2'         0.4468   -0.3802    0.9263 C.3       1 ATP         0.0542
     20 O2'         1.3993   -1.3703    0.5961 O.3       1 ATP        -0.5831
     21 C1'        -0.6159   -0.9100    1.8769 C.3       1 ATP         0.2222
     22 N9         -1.7127   -1.6108    1.2130 N.pl3     1 ATP        -0.1887
     23 C8         -1.7690   -2.9583    0.9549 C.ar      1 ATP         0.4447
     24 N7         -2.8827   -3.3076    0.3418 N.2       1 ATP        -0.6159
     25 C5         -3.5683   -2.1351    0.2017 C.ar      1 ATP         0.2195
     26 C6         -4.8617   -1.9185   -0.4044 C.ar      1 ATP         0.6144
     27 N6         -5.5166   -2.9094   -0.8994 N.2       1 ATP        -0.8160
     28 N1         -5.1836   -0.5701   -0.3344 N.pl3     1 ATP        -0.8611
     29 C2         -4.3821    0.4180    0.2330 C.ar      1 ATP         0.6141
     30 N3         -3.2117    0.2488    0.7860 N.2       1 ATP        -0.5913
     31 C4         -2.8672   -1.0657    0.7327 C.ar      1 ATP         0.0067
     32 HOG3        0.4856    3.9374    8.2697 H         1 ATP         0.4313
     33 HOB2        2.5848    5.6676    6.0408 H         1 ATP         0.4716
     34 H5'1       -1.7770    2.7851    2.1387 H         1 ATP         0.0452
     35 H5'2       -1.1653    2.0543    0.6320 H         1 ATP         0.0452
     36 H4'         0.0403    1.7078    3.4343 H         1 ATP         0.0998
     37 H3'         1.5906    1.4859    1.1353 H         1 ATP         0.0544
     38 HO3'        2.6839   -0.1150    2.2479 H         1 ATP         0.3961
     39 H2'        -0.0017    0.0018    0.0005 H         1 ATP         0.0499
     40 HO2'        2.0953   -0.9375    0.0709 H         1 ATP         0.4045
     41 H1'        -0.1998   -1.6319    2.6178 H         1 ATP         0.0912
     42 H8         -0.9697   -3.6300    1.2371 H         1 ATP         0.1090
     43 HN62       -6.4060   -2.5723   -1.2840 H         1 ATP         0.3694
     44 H2         -4.8409    1.4176    0.1757 H         1 ATP         0.0371
     45 H45        -6.0768   -0.2826   -0.7263 H         1 ATP         0.4283
@<TRIPOS>BOND
     1    1    2 2
     2    1    3 1
     3    1    4 1
     4    1    8 1
     5    4   32 1
     6    5    6 2
     7    5    7 1
     8    5    8 1
     9    5   12 1
    10    7   33 1
    11    9   10 2
    12    9   11 1
    13    9   12 1
    14    9   13 1
    15   13   14 1
    16   14   15 1
    17   14   34 1
    18   14   35 1
    19   15   16 1
    20   15   17 1
    21   15   36 1
    22   16   21 1
    23   17   18 1
    24   17   19 1
    25   17   37 1
    26   18   38 1
    27   19   20 1
    28   19   21 1
    29   19   39 1
    30   20   40 1
    31   21   22 1
    32   21   41 1
    33   22   23 ar
    34   22   31 ar
    35   23   24 ar
    36   23   42 1
    37   24   25 ar
    38   25   26 ar
    39   25   31 ar
    40   26   27 2
    41   26   28 ar
    42   27   43 1
    43   28   29 ar
    44   28   45 1
    45   29   30 ar
    46   29   44 1
    47   30   31 ar
@<TRIPOS>SUBSTRUCTURE
     1 ATP         1 GROUP 0 A     ****
@<TRIPOS>MOLECULE
[[[3,4-dihydroxy-5-(6-imino-1~{H}-purin-9-yl)tetrahydrofuran-2-yl]methoxy-oxido-phosphoryl]oxy-hydroxy-phosphoryl] hydrogen phosphate
   45    47     1     0     0
SMALL
USER_CHARGES

@<TRIPOS>ATOM
      1 PG          5.0442    5.6142   -0.8919 P.3       1 ATP         1.5496
      2 O1G         4.8178    6.0690   -2.3165 O.co2     1 ATP        -0.8494
      3 O2G         6.2225    4.7358   -0.5347 O.co2     1 ATP        -0.8494
      4 O3G         5.0665    6.9299    0.0749 O.3       1 ATP        -0.7845
      5 PB          2.9368    3.5542   -0.7767 P.3       1 ATP         1.9068
      6 O1B         2.5013    3.4971   -2.2110 O.2       1 ATP        -0.8942
      7 O2B         3.9724    2.3965   -0.3284 O.3       1 ATP        -0.8166
      8 O3B         3.6765    4.9218   -0.3349 O.3       1 ATP        -0.8194
      9 PA          0.4656    4.4360    0.5711 P.3       1 ATP         1.5903
     10 O1A        -0.4569    4.3401   -0.6246 O.co2     1 ATP        -0.8519
     11 O2A         0.9689    5.7789    1.0538 O.co2     1 ATP        -0.8519
     12 O3A         1.7547    3.4656    0.3206 O.3       1 ATP        -0.8093
     13 O5'        -0.2061    3.6558    1.8418 O.3       1 ATP        -0.5649
     14 C5'        -0.8811    2.4285    1.6206 C.3       1 ATP         0.1979
     15 C4'        -0.1994    1.3333    2.4288 C.3       1 ATP         0.1179
     16 O4'        -1.1285    0.2356    2.5840 O.3       1 ATP        -0.3878
     17 C3'         1.0324    0.7610    1.7344 C.3       1 ATP         0.1185
     18 O3'         1.9175    0.2377    2.7247 O.3       1 ATP        -0.5544
     19 C2'         0.4468   -0.3802    0.9263 C.3       1 ATP         0.0542
     20 O2'         1.3993   -1.3703    0.5961 O.3       1 ATP        -0.5831
     21 C1'        -0.6159   -0.9100    1.8769 C.3       1 ATP         0.2222
     22 N9         -1.7127   -1.6108    1.2130 N.pl3     1 ATP        -0.1887
     23 C8         -2.8662   -1.0361    0.7388 C.ar      1 ATP         0.4447
     24 N7         -3.6774   -1.9166    0.1867 N.2       1 ATP        -0.6159
     25 C5         -3.0159   -3.1045    0.3123 C.ar      1 ATP         0.2195
     26 C6         -3.4377   -4.4169   -0.1199 C.ar      1 ATP         0.6144
     27 N6         -4.5720   -4.5691   -0.7080 N.2       1 ATP        -0.8160
     28 N1         -2.4600   -5.3463    0.2071 N.pl3     1 ATP        -0.8611
     29 C2         -1.2595   -5.0554    0.8515 C.ar      1 ATP         0.6141
     30 N3         -0.8555   -3.8803    1.2516 N.2       1 ATP        -0.5913
     31 C4         -1.7946   -2.9457    0.9448 C.ar      1 ATP         0.0067
     32 HOG3        5.2051    6.7997    1.0372 H         1 ATP         0.4313
     33 HOB2        4.8382    2.3315   -0.7849 H         1 ATP         0.4716
     34 H5'1       -1.9255    2.5382    1.9293 H         1 ATP         0.0452
     35 H5'2       -0.8473    2.1932    0.5521 H         1 ATP         0.0452
     36 H4'         0.0403    1.7078    3.4343 H         1 ATP         0.0998
     37 H3'         1.5906    1.4859    1.1353 H         1 ATP         0.0544
     38 HO3'        2.6839   -0.1150    2.2479 H         1 ATP         0.3961
     39 H2'        -0.0017    0.0018    0.0005 H         1 ATP         0.0499
     40 HO2'        0.9369   -2.0558    0.0825 H         1 ATP         0.4045
     41 H1'        -0.1998   -1.6319    2.6178 H         1 ATP         0.0912
     42 H8         -3.0558    0.0252    0.8256 H         1 ATP         0.1090
     43 HN62       -4.7047   -5.5592   -0.9421 H         1 ATP         0.3694
     44 H2         -0.6372   -5.9505    1.0077 H         1 ATP         0.0371
     45 H45        -2.6338   -6.3155   -0.0469 H         1 ATP         0.4283
@<TRIPOS>BOND
     1    1    2 2
     2    1    3 1
     3    1    4 1
     4    1    8 1
     5    4   32 1
     6    5    6 2
     7    5    7 1
     8    5    8 1
     9    5   12 1
    10    7   33 1
    11    9   10 2
    12    9   11 1
    13    9   12 1
    14    9   13 1
    15   13   14 1
    16   14   15 1
    17   14   34 1
    18   14   35 1
    19   15   16 1
    20   15   17 1
    21   15   36 1
    22   16   21 1
    23   17   18 1
    24   17   19 1
    25   17   37 1
    26   18   38 1
    27   19   20 1
    28   19   21 1
    29   19   39 1
    30   20   40 1
    31   21   22 1
    32   21   41 1
    33   22   23 ar
    34   22   31 ar
    35   23   24 ar
    36   23   42 1
    37   24   25 ar
    38   25   26 ar
    39   25   31 ar
    40   26   27 2
    41   26   28 ar
    42   27   43 1
    43   28   29 ar
    44   28   45 1
    45   29   30 ar
    46   29   44 1
    47   30   31 ar
@<TRIPOS>SUBSTRUCTURE
     1 ATP         1 GROUP 0 A     ****
@<TRIPOS>MOLECULE
[[[3,4-dihydroxy-5-(6-imino-1~{H}-purin-9-yl)tetrahydrofuran-2-yl]methoxy-oxido-phosphoryl]oxy-hydroxy-phosphoryl] hydrogen phosphate
   45    47     1     0     0
SMALL
USER_CHARGES

@<TRIPOS>ATOM
      1 PG          3.9066    6.9291    4.2149 P.3       1 ATP         1.5496
      2 O1G         2.4517    7.2850    4.4257 O.co2     1 ATP        -0.8494
      3 O2G         4.8108    7.8142    3.3864 O.co2     1 ATP        -0.8494
      4 O3G         4.6010    6.7005    5.6750 O.3       1 ATP        -0.7845
      5 PB          3.3765    4.0280    4.2385 P.3       1 ATP         1.9068
      6 O1B         3.8280    3.6568    5.6201 O.2       1 ATP        -0.8942
      7 O2B         1.7814    4.2305    4.0701 O.3       1 ATP        -0.8166
      8 O3B         4.0005    5.4001    3.6549 O.3       1 ATP        -0.8194
      9 PA          5.2200    2.4550    2.5568 P.3       1 ATP         1.5903
     10 O1A         5.8666    1.6551    3.6668 O.co2     1 ATP        -0.8519
     11 O2A         5.9474    3.6169    1.9159 O.co2     1 ATP        -0.8519
     12 O3A         3.7621    2.9828    3.0688 O.3       1 ATP        -0.8093
     13 O5'         4.7294    1.4426    1.3698 O.3       1 ATP        -0.5649
     14 C5'         4.0922    1.9801    0.2227 C.3       1 ATP         0.1979
     15 C4'         2.5944    2.0310    0.4653 C.3       1 ATP         0.1179
     16 O4'         1.9327    2.5740   -0.6889 O.3       1 ATP        -0.3878
     17 C3'         1.9685    0.6634    0.6767 C.3       1 ATP         0.1185
     18 O3'         2.1425    0.1975    1.9977 O.3       1 ATP        -0.5544
     19 C2'         0.5176    0.9128    0.3099 C.3       1 ATP         0.0542
     20 O2'        -0.2103    1.4454    1.4152 O.3       1 ATP        -0.5831
     21 C1'         0.6219    1.9765   -0.7844 C.3       1 ATP         0.2222
     22 N9          0.4237    1.4496   -2.1357 N.pl3     1 ATP        -0.1887
     23 C8          1.4069    0.9710   -2.9662 C.ar      1 ATP         0.4447
     24 N7          0.9316    0.5623   -4.1260 N.2       1 ATP        -0.6159
     25 C5         -0.4120    0.7884   -4.0344 C.ar      1 ATP         0.2195
     26 C6         -1.4353    0.5283   -5.0204 C.ar      1 ATP         0.6144
     27 N6         -1.1199    0.0176   -6.1586 N.2       1 ATP        -0.8160
     28 N1         -2.6704    0.9095   -4.5147 N.pl3     1 ATP        -0.8611
     29 C2         -2.8863    1.4571   -3.2520 C.ar      1 ATP         0.6141
     30 N3         -1.9805    1.7017   -2.3442 N.2       1 ATP        -0.5913
     31 C4         -0.7561    1.3381   -2.8112 C.ar      1 ATP         0.0067
     32 HOG3        5.5518    6.4616    5.7073 H         1 ATP         0.4313
     33 HOB2        1.3312    4.9180    4.6057 H         1 ATP         0.4716
     34 H5'1        4.4844    2.9853    0.0382 H         1 ATP         0.0452
     35 H5'2        4.3192    1.3445   -0.6391 H         1 ATP         0.0452
     36 H4'         2.3751    2.7029    1.3156 H         1 ATP         0.0998
     37 H3'         2.4336   -0.1217   -0.0015 H         1 ATP         0.0544
     38 HO3'        3.0987    0.1465    2.1461 H         1 ATP         0.3961
     39 H2'         0.0316    0.0155   -0.0339 H         1 ATP         0.0499
     40 HO2'       -0.1608    0.7921    2.1351 H         1 ATP         0.4045
     41 H1'        -0.1474    2.7798   -0.6651 H         1 ATP         0.0912
     42 H8          2.4466    0.9468   -2.6694 H         1 ATP         0.1090
     43 HN62       -1.9661   -0.0965   -6.7275 H         1 ATP         0.3694
     44 H2         -3.9481    1.6825   -3.0660 H         1 ATP         0.0371
     45 H45        -3.4814    0.7753   -5.1133 H         1 ATP         0.4283
@<TRIPOS>BOND
     1    1    2 2
     2    1    3 1
     3    1    4 1
     4    1    8 1
     5    4   32 1
     6    5    6 2
     7    5    7 1
     8    5    8 1
     9    5   12 1
    10    7   33 1
    11    9   10 2
    12    9   11 1
    13    9   12 1
    14    9   13 1
    15   13   14 1
    16   14   15 1
    17   14   34 1
    18   14   35 1
    19   15   16 1
    20   15   17 1
    21   15   36 1
    22   16   21 1
    23   17   18 1
    24   17   19 1
    25   17   37 1
    26   18   38 1
    27   19   20 1
    28   19   21 1
    29   19   39 1
    30   20   40 1
    31   21   22 1
    32   21   41 1
    33   22   23 ar
    34   22   31 ar
    35   23   24 ar
    36   23   42 1
    37   24   25 ar
    38   25   26 ar
    39   25   31 ar
    40   26   27 2
    41   26   28 ar
    42   27   43 1
    43   28   29 ar
    44   28   45 1
    45   29   30 ar
    46   29   44 1
    47   30   31 ar
@<TRIPOS>SUBSTRUCTURE
     1 ATP         1 GROUP 0 A     ****
@<TRIPOS>MOLECULE
[[[3,4-dihydroxy-5-(6-imino-1~{H}-purin-9-yl)tetrahydrofuran-2-yl]methoxy-oxido-phosphoryl]oxy-hydroxy-phosphoryl] hydrogen phosphate
   45    47     1     0     0
SMALL
USER_CHARGES

@<TRIPOS>ATOM
      1 PG          4.9923    1.5000   -1.2798 P.3       1 ATP         1.5496
      2 O1G         6.2133    2.3766   -1.1111 O.co2     1 ATP        -0.8494
      3 O2G         4.5307    1.0666   -2.6533 O.co2     1 ATP        -0.8494
      4 O3G         5.1773    0.1696   -0.3514 O.3       1 ATP        -0.7845
      5 PB          2.9368    3.5542   -0.7767 P.3       1 ATP         1.9068
      6 O1B         3.7692    4.8017   -0.7398 O.2       1 ATP        -0.8942
      7 O2B         2.1872    3.2717   -2.1809 O.3       1 ATP        -0.8166
      8 O3B         3.7396    2.1812   -0.4881 O.3       1 ATP        -0.8194
      9 PA          0.4656    4.4360    0.5711 P.3       1 ATP         1.5903
     10 O1A        -0.4569    4.3401   -0.6246 O.co2     1 ATP        -0.8519
     11 O2A         0.9689    5.7789    1.0538 O.co2     1 ATP        -0.8519
     12 O3A         1.7547    3.4656    0.3206 O.3       1 ATP        -0.8093
     13 O5'        -0.2061    3.6558    1.8418 O.3       1 ATP        -0.5649
     14 C5'        -0.8811    2.4285    1.6206 C.3       1 ATP         0.1979
     15 C4'        -0.1994    1.3333    2.4288 C.3       1 ATP         0.1179
     16 O4'        -1.1285    0.2356    2.5840 O.3       1 ATP        -0.3878
     17 C3'         1.0324    0.7610    1.7344 C.3       1 ATP         0.1185
     18 O3'         1.9175    0.2377    2.7247 O.3       1 ATP        -0.5544
     19 C2'         0.4468   -0.3802    0.9263 C.3       1 ATP         0.0542
     20 O2'         1.3993   -1.3703    0.5961 O.3       1 ATP        -0.5831
     21 C1'        -0.6159   -0.9100    1.8769 C.3       1 ATP         0.2222
     22 N9         -1.7127   -1.6108    1.2130 N.pl3     1 ATP        -0.1887
     23 C8         -1.7690   -2.9583    0.9549 C.ar      1 ATP         0.4447
     24 N7         -2.8827   -3.3076    0.3418 N.2       1 ATP        -0.6159
     25 C5         -3.5683   -2.1351    0.2017 C.ar      1 ATP         0.2195
     26 C6         -4.8617   -1.9185   -0.4044 C.ar      1 ATP         0.6144
     27 N6         -5.5166   -2.9094   -0.8994 N.2       1 ATP        -0.8160
     28 N1         -5.1836   -0.5701   -0.3344 N.pl3     1 ATP        -0.8611
     29 C2         -4.3821    0.4180    0.2330 C.ar      1 ATP         0.6141
     30 N3         -3.2117    0.2488    0.7860 N.2       1 ATP        -0.5913
     31 C4         -2.8672   -1.0657    0.7327 C.ar      1 ATP         0.0067
     32 HOG3        4.4630   -0.5027   -0.3516 H         1 ATP         0.4313
     33 HOB2        1.5475    3.9342   -2.5190 H         1 ATP         0.4716
     34 H5'1       -1.9255    2.5382    1.9293 H         1 ATP         0.0452
     35 H5'2       -0.8473    2.1932    0.5521 H         1 ATP         0.0452
     36 H4'         0.0403    1.7078    3.4343 H         1 ATP         0.0998
     37 H3'         1.5906    1.4859    1.1353 H         1 ATP         0.0544
     38 HO3'        2.6839   -0.1150    2.2479 H         1 ATP         0.3961
     39 H2'        -0.0017    0.0018    0.0005 H         1 ATP         0.0499
     40 HO2'        2.0953   -0.9375    0.0709 H         1 ATP         0.4045
     41 H1'        -0.1998   -1.6319    2.6178 H         1 ATP         0.0912
     42 H8         -0.9697   -3.6300    1.2371 H         1 ATP         0.1090
     43 HN62       -6.4060   -2.5723   -1.2840 H         1 ATP         0.3694
     44 H2         -4.8409    1.4176    0.1757 H         1 ATP         0.0371
     45 H45        -6.0768   -0.2826   -0.7263 H         1 ATP         0.4283
@<TRIPOS>BOND
     1    1    2 2
     2    1    3 1
     3    1    4 1
     4    1    8 1
     5    4   32 1
     6    5    6 2
     7    5    7 1
     8    5    8 1
     9    5   12 1
    10    7   33 1
    11    9   10 2
    12    9   11 1
    13    9   12 1
    14    9   13 1
    15   13   14 1
    16   14   15 1
    17   14   34 1
    18   14   35 1
    19   15   16 1
    20   15   17 1
    21   15   36 1
    22   16   21 1
    23   17   18 1
    24   17   19 1
    25   17   37 1
    26   18   38 1
    27   19   20 1
    28   19   21 1
    29   19   39 1
    30   20   40 1
    31   21   22 1
    32   21   41 1
    33   22   23 ar
    34   22   31 ar
    35   23   24 ar
    36   23   42 1
    37   24   25 ar
    38   25   26 ar
    39   25   31 ar
    40   26   27 2
    41   26   28 ar
    42   27   43 1
    43   28   29 ar
    44   28   45 1
    45   29   30 ar
    46   29   44 1
    47   30   31 ar
@<TRIPOS>SUBSTRUCTURE
     1 ATP         1 GROUP 0 A     ****
@<TRIPOS>MOLECULE
[[[3,4-dihydroxy-5-(6-imino-1~{H}-purin-9-yl)tetrahydrofuran-2-yl]methoxy-oxido-phosphoryl]oxy-hydroxy-phosphoryl] hydrogen phosphate
   45    47     1     0     0
SMALL
USER_CHARGES

@<TRIPOS>ATOM
      1 PG          4.9923    1.5000   -1.2798 P.3       1 ATP         1.5496
      2 O1G         6.2133    2.3766   -1.1111 O.co2     1 ATP        -0.8494
      3 O2G         4.5307    1.0666   -2.6533 O.co2     1 ATP        -0.8494
      4 O3G         5.1773    0.1696   -0.3514 O.3       1 ATP        -0.7845
      5 PB          2.9368    3.5542   -0.7767 P.3       1 ATP         1.9068
      6 O1B         3.7692    4.8017   -0.7398 O.2       1 ATP        -0.8942
      7 O2B         2.1872    3.2717   -2.1809 O.3       1 ATP        -0.8166
      8 O3B         3.7396    2.1812   -0.4881 O.3       1 ATP        -0.8194
      9 PA          0.4656    4.4360    0.5711 P.3       1 ATP         1.5903
     10 O1A        -0.4569    4.3401   -0.6246 O.co2     1 ATP        -0.8519
     11 O2A         0.9689    5.7789    1.0538 O.co2     1 ATP        -0.8519
     12 O3A         1.7547    3.4656    0.3206 O.3       1 ATP        -0.8093
     13 O5'        -0.2061    3.6558    1.8418 O.3       1 ATP        -0.5649
     14 C5'        -0.8811    2.4285    1.6206 C.3       1 ATP         0.1979
     15 C4'        -0.1994    1.3333    2.4288 C.3       1 ATP         0.1179
     16 O4'        -1.1285    0.2356    2.5840 O.3       1 ATP        -0.3878
     17 C3'         1.0324    0.7610    1.7344 C.3       1 ATP         0.1185
     18 O3'         1.9175    0.2377    2.7247 O.3       1 ATP        -0.5544
     19 C2'         0.4468   -0.3802    0.9263 C.3       1 ATP         0.0542
     20 O2'         1.3993   -1.3703    0.5961 O.3       1 ATP        -0.5831
     21 C1'        -0.6159   -0.9100    1.8769 C.3       1 ATP         0.2222
     22 N9         -1.7127   -1.6108    1.2130 N.pl3     1 ATP        -0.1887
     23 C8         -2.5485   -1.0808    0.2609 C.ar      1 ATP         0.4447
     24 N7         -3.4476   -1.9486   -0.1593 N.2       1 ATP        -0.6159
     25 C5         -3.1762   -3.0816    0.5530 C.ar      1 ATP         0.2195
     26 C6         -3.8510   -4.3579    0.5006 C.ar      1 ATP         0.6144
     27 N6         -4.8468   -4.5293   -0.2961 N.2       1 ATP        -0.8160
     28 N1         -3.2499   -5.2342    1.3937 N.pl3     1 ATP        -0.8611
     29 C2         -2.1646   -4.9275    2.2116 C.ar      1 ATP         0.6141
     30 N3         -1.5382   -3.7840    2.2778 N.2       1 ATP        -0.5913
     31 C4         -2.1054   -2.9018    1.4120 C.ar      1 ATP         0.0067
     32 HOG3        4.4630   -0.5027   -0.3516 H         1 ATP         0.4313
     33 HOB2        1.5475    3.9342   -2.5190 H         1 ATP         0.4716
     34 H5'1       -1.9255    2.5382    1.9293 H         1 ATP         0.0452
     35 H5'2       -0.8473    2.1932    0.5521 H         1 ATP         0.0452
     36 H4'         0.0403    1.7078    3.4343 H         1 ATP         0.0998
     37 H3'         1.5906    1.4859    1.1353 H         1 ATP         0.0544
     38 HO3'        2.1521    0.9800    3.3017 H         1 ATP         0.3961
     39 H2'        -0.0017    0.0018    0.0005 H         1 ATP         0.0499
     40 HO2'        2.0953   -0.9375    0.0709 H         1 ATP         0.4045
     41 H1'        -0.1998   -1.6319    2.6178 H         1 ATP         0.0912
     42 H8         -2.4515   -0.0599   -0.0829 H         1 ATP         0.1090
     43 HN62       -5.1990   -5.4882   -0.2004 H         1 ATP         0.3694
     44 H2         -1.8555   -5.7783    2.8388 H         1 ATP         0.0371
     45 H45        -3.6312   -6.1750    1.4526 H         1 ATP         0.4283
@<TRIPOS>BOND
     1    1    2 2
     2    1    3 1
     3    1    4 1
     4    1    8 1
     5    4   32 1
     6    5    6 2
     7    5    7 1
     8    5    8 1
     9    5   12 1
    10    7   33 1
    11    9   10 2
    12    9   11 1
    13    9   12 1
    14    9   13 1
    15   13   14 1
    16   14   15 1
    17   14   34 1
    18   14   35 1
    19   15   16 1
    20   15   17 1
    21   15   36 1
    22   16   21 1
    23   17   18 1
    24   17   19 1
    25   17   37 1
    26   18   38 1
    27   19   20 1
    28   19   21 1
    29   19   39 1
    30   20   40 1
    31   21   22 1
    32   21   41 1
    33   22   23 ar
    34   22   31 ar
    35   23   24 ar
    36   23   42 1
    37   24   25 ar
    38   25   26 ar
    39   25   31 ar
    40   26   27 2
    41   26   28 ar
    42   27   43 1
    43   28   29 ar
    44   28   45 1
    45   29   30 ar
    46   29   44 1
    47   30   31 ar
@<TRIPOS>SUBSTRUCTURE
     1 ATP         1 GROUP 0 A     ****
@<TRIPOS>MOLECULE
[[[3,4-dihydroxy-5-(6-imino-1~{H}-purin-9-yl)tetrahydrofuran-2-yl]methoxy-oxido-phosphoryl]oxy-hydroxy-phosphoryl] hydrogen phosphate
   45    47     1     0     0
SMALL
USER_CHARGES

@<TRIPOS>ATOM
      1 PG          2.5345    2.7817    7.2757 P.3       1 ATP         1.5496
      2 O1G         1.9876    3.2190    8.6164 O.co2     1 ATP        -0.8494
      3 O2G         3.8385    3.3386    6.7495 O.co2     1 ATP        -0.8494
      4 O3G         2.6227    1.1514    7.2587 O.3       1 ATP        -0.7845
      5 PB          0.6982    4.3234    5.5584 P.3       1 ATP         1.9068
      6 O1B        -0.0059    5.1773    6.5710 O.2       1 ATP        -0.8942
      7 O2B         1.9077    5.0512    4.7704 O.3       1 ATP        -0.8166
      8 O3B         1.3770    2.9782    6.1436 O.3       1 ATP        -0.8194
      9 PA         -1.1367    4.4807    3.2541 P.3       1 ATP         1.5903
     10 O1A        -0.2214    5.2471    2.3243 O.co2     1 ATP        -0.8519
     11 O2A        -2.2825    5.1752    3.9574 O.co2     1 ATP        -0.8519
     12 O3A        -0.2287    3.7225    4.3797 O.3       1 ATP        -0.8093
     13 O5'        -1.7337    3.1724    2.4752 O.3       1 ATP        -0.5649
     14 C5'        -0.8811    2.4285    1.6206 C.3       1 ATP         0.1979
     15 C4'        -0.1994    1.3333    2.4288 C.3       1 ATP         0.1179
     16 O4'        -1.1285    0.2356    2.5840 O.3       1 ATP        -0.3878
     17 C3'         1.0324    0.7610    1.7344 C.3       1 ATP         0.1185
     18 O3'         1.9175    0.2377    2.7247 O.3       1 ATP        -0.5544
     19 C2'         0.4468   -0.3802    0.9263 C.3       1 ATP         0.0542
     20 O2'         1.3993   -1.3703    0.5961 O.3       1 ATP        -0.5831
     21 C1'        -0.6159   -0.9100    1.8769 C.3       1 ATP         0.2222
     22 N9         -1.7127   -1.6108    1.2130 N.pl3     1 ATP        -0.1887
     23 C8         -3.0370   -1.2489    1.2455 C.ar      1 ATP         0.4447
     24 N7         -3.8008   -2.0709    0.5534 N.2       1 ATP        -0.6159
     25 C5         -2.9295   -2.9976    0.0567 C.ar      1 ATP         0.2195
     26 C6         -3.2152   -4.1411   -0.7786 C.ar      1 ATP         0.6144
     27 N6         -4.4238   -4.3865   -1.1456 N.2       1 ATP        -0.8160
     28 N1         -2.0349   -4.8186   -1.0521 N.pl3     1 ATP        -0.8611
     29 C2         -0.7728   -4.4501   -0.5916 C.ar      1 ATP         0.6141
     30 N3         -0.4885   -3.4234    0.1630 N.2       1 ATP        -0.5913
     31 C4         -1.6274   -2.7377    0.4492 C.ar      1 ATP         0.0067
     32 HOG3        2.9612    0.7107    6.4504 H         1 ATP         0.4313
     33 HOB2        1.7133    5.8519    4.2380 H         1 ATP         0.4716
     34 H5'1       -1.4801    1.9928    0.8147 H         1 ATP         0.0452
     35 H5'2       -0.1369    3.1041    1.1872 H         1 ATP         0.0452
     36 H4'         0.0403    1.7078    3.4343 H         1 ATP         0.0998
     37 H3'         1.5906    1.4859    1.1353 H         1 ATP         0.0544
     38 HO3'        2.1521    0.9800    3.3017 H         1 ATP         0.3961
     39 H2'        -0.0017    0.0018    0.0005 H         1 ATP         0.0499
     40 HO2'        2.0953   -0.9375    0.0709 H         1 ATP         0.4045
     41 H1'        -0.1998   -1.6319    2.6178 H         1 ATP         0.0912
     42 H8         -3.3806   -0.3795    1.7893 H         1 ATP         0.1090
     43 HN62       -4.4384   -5.2300   -1.7295 H         1 ATP         0.3694
     44 H2          0.0180   -5.1355   -0.9348 H         1 ATP         0.0371
     45 H45        -2.0977   -5.6477   -1.6374 H         1 ATP         0.4283
@<TRIPOS>BOND
     1    1    2 2
     2    1    3 1
     3    1    4 1
     4    1    8 1
     5    4   32 1
     6    5    6 2
     7    5    7 1
     8    5    8 1
     9    5   12 1
    10    7   33 1
    11    9   10 2
    12    9   11 1
    13    9   12 1
    14    9   13 1
    15   13   14 1
    16   14   15 1
    17   14   34 1
    18   14   35 1
    19   15   16 1
    20   15   17 1
    21   15   36 1
    22   16   21 1
    23   17   18 1
    24   17   19 1
    25   17   37 1
    26   18   38 1
    27   19   20 1
    28   19   21 1
    29   19   39 1
    30   20   40 1
    31   21   22 1
    32   21   41 1
    33   22   23 ar
    34   22   31 ar
    35   23   24 ar
    36   23   42 1
    37   24   25 ar
    38   25   26 ar
    39   25   31 ar
    40   26   27 2
    41   26   28 ar
    42   27   43 1
    43   28   29 ar
    44   28   45 1
    45   29   30 ar
    46   29   44 1
    47   30   31 ar
@<TRIPOS>SUBSTRUCTURE
     1 ATP         1 GROUP 0 A     ****
@<TRIPOS>MOLECULE
[[[3,4-dihydroxy-5-(6-imino-1~{H}-purin-9-yl)tetrahydrofuran-2-yl]methoxy-oxido-phosphoryl]oxy-hydroxy-phosphoryl] hydrogen phosphate
   45    47     1     0     0
SMALL
USER_CHARGES

@<TRIPOS>ATOM
      1 PG         -7.7431    4.5441    1.5378 P.3       1 ATP         1.5496
      2 O1G        -8.0177    5.1440    0.1767 O.co2     1 ATP        -0.8494
      3 O2G        -8.0573    5.3113    2.8027 O.co2     1 ATP        -0.8494
      4 O3G        -8.4759    3.0873    1.6195 O.3       1 ATP        -0.7845
      5 PB         -5.3678    3.0705    0.5972 P.3       1 ATP         1.9068
      6 O1B        -5.9171    1.6812    0.4615 O.2       1 ATP        -0.8942
      7 O2B        -5.2843    3.9121   -0.7806 O.3       1 ATP        -0.8166
      8 O3B        -6.1918    4.0434    1.5909 O.3       1 ATP        -0.8194
      9 PA         -3.2889    2.7003    2.6568 P.3       1 ATP         1.5903
     10 O1A        -3.3521    1.1903    2.7325 O.co2     1 ATP        -0.8519
     11 O2A        -3.9194    3.5557    3.7341 O.co2     1 ATP        -0.8519
     12 O3A        -3.8778    3.1801    1.2115 O.3       1 ATP        -0.8093
     13 O5'        -1.7337    3.1724    2.4752 O.3       1 ATP        -0.5649
     14 C5'        -0.8811    2.4285    1.6206 C.3       1 ATP         0.1979
     15 C4'        -0.1994    1.3333    2.4288 C.3       1 ATP         0.1179
     16 O4'        -1.1285    0.2356    2.5840 O.3       1 ATP        -0.3878
     17 C3'         1.0324    0.7610    1.7344 C.3       1 ATP         0.1185
     18 O3'         1.9175    0.2377    2.7247 O.3       1 ATP        -0.5544
     19 C2'         0.4468   -0.3802    0.9263 C.3       1 ATP         0.0542
     20 O2'         1.3993   -1.3703    0.5961 O.3       1 ATP        -0.5831
     21 C1'        -0.6159   -0.9100    1.8769 C.3       1 ATP         0.2222
     22 N9         -1.7127   -1.6108    1.2130 N.pl3     1 ATP        -0.1887
     23 C8         -2.5485   -1.0808    0.2609 C.ar      1 ATP         0.4447
     24 N7         -3.4476   -1.9486   -0.1593 N.2       1 ATP        -0.6159
     25 C5         -3.1762   -3.0816    0.5530 C.ar      1 ATP         0.2195
     26 C6         -3.8510   -4.3579    0.5006 C.ar      1 ATP         0.6144
     27 N6         -4.8468   -4.5293   -0.2961 N.2       1 ATP        -0.8160
     28 N1         -3.2499   -5.2342    1.3937 N.pl3     1 ATP        -0.8611
     29 C2         -2.1646   -4.9275    2.2116 C.ar      1 ATP         0.6141
     30 N3         -1.5382   -3.7840    2.2778 N.2       1 ATP        -0.5913
     31 C4         -2.1054   -2.9018    1.4120 C.ar      1 ATP         0.0067
     32 HOG3       -8.3905    2.5676    2.4470 H         1 ATP         0.4313
     33 HOB2       -6.1096    4.0848   -1.2819 H         1 ATP         0.4716
     34 H5'1       -1.4801    1.9928    0.8147 H         1 ATP         0.0452
     35 H5'2       -0.1369    3.1041    1.1872 H         1 ATP         0.0452
     36 H4'         0.0403    1.7078    3.4343 H         1 ATP         0.0998
     37 H3'         1.5906    1.4859    1.1353 H         1 ATP         0.0544
     38 HO3'        2.6839   -0.1150    2.2479 H         1 ATP         0.3961
     39 H2'        -0.0017    0.0018    0.0005 H         1 ATP         0.0499
     40 HO2'        2.0953   -0.9375    0.0709 H         1 ATP         0.4045
     41 H1'        -0.1998   -1.6319    2.6178 H         1 ATP         0.0912
     42 H8         -2.4515   -0.0599   -0.0829 H         1 ATP         0.1090
     43 HN62       -5.1990   -5.4882   -0.2004 H         1 ATP         0.3694
     44 H2         -1.8555   -5.7783    2.8388 H         1 ATP         0.0371
     45 H45        -3.6312   -6.1750    1.4526 H         1 ATP         0.4283
@<TRIPOS>BOND
     1    1    2 2
     2    1    3 1
     3    1    4 1
     4    1    8 1
     5    4   32 1
     6    5    6 2
     7    5    7 1
     8    5    8 1
     9    5   12 1
    10    7   33 1
    11    9   10 2
    12    9   11 1
    13    9   12 1
    14    9   13 1
    15   13   14 1
    16   14   15 1
    17   14   34 1
    18   14   35 1
    19   15   16 1
    20   15   17 1
    21   15   36 1
    22   16   21 1
    23   17   18 1
    24   17   19 1
    25   17   37 1
    26   18   38 1
    27   19   20 1
    28   19   21 1
    29   19   39 1
    30   20   40 1
    31   21   22 1
    32   21   41 1
    33   22   23 ar
    34   22   31 ar
    35   23   24 ar
    36   23   42 1
    37   24   25 ar
    38   25   26 ar
    39   25   31 ar
    40   26   27 2
    41   26   28 ar
    42   27   43 1
    43   28   29 ar
    44   28   45 1
    45   29   30 ar
    46   29   44 1
    47   30   31 ar
@<TRIPOS>SUBSTRUCTURE
     1 ATP         1 GROUP 0 A     ****
@<TRIPOS>MOLECULE
[[[3,4-dihydroxy-5-(6-imino-1~{H}-purin-9-yl)tetrahydrofuran-2-yl]methoxy-oxido-phosphoryl]oxy-hydroxy-phosphoryl] hydrogen phosphate
   45    47     1     0     0
SMALL
USER_CHARGES

@<TRIPOS>ATOM
      1 PG         -5.3611    5.3560   -1.9465 P.3       1 ATP         1.5496
      2 O1G        -4.1970    5.9775   -2.6857 O.co2     1 ATP        -0.8494
      3 O2G        -6.4436    6.2183   -1.3365 O.co2     1 ATP        -0.8494
      4 O3G        -6.0656    4.2530   -2.9228 O.3       1 ATP        -0.7845
      5 PB         -3.9406    4.6475    0.5391 P.3       1 ATP         1.9068
      6 O1B        -2.6191    5.3252    0.3272 O.2       1 ATP        -0.8942
      7 O2B        -4.9851    5.4582    1.4694 O.3       1 ATP        -0.8166
      8 O3B        -4.7827    4.3430   -0.8066 O.3       1 ATP        -0.8194
      9 PA         -3.2889    2.7003    2.6568 P.3       1 ATP         1.5903
     10 O1A        -3.3521    1.1903    2.7325 O.co2     1 ATP        -0.8519
     11 O2A        -3.9194    3.5557    3.7341 O.co2     1 ATP        -0.8519
     12 O3A        -3.8778    3.1801    1.2115 O.3       1 ATP        -0.8093
     13 O5'        -1.7337    3.1724    2.4752 O.3       1 ATP        -0.5649
     14 C5'        -0.8811    2.4285    1.6206 C.3       1 ATP         0.1979
     15 C4'        -0.1994    1.3333    2.4288 C.3       1 ATP         0.1179
     16 O4'        -1.1285    0.2356    2.5840 O.3       1 ATP        -0.3878
     17 C3'         1.0324    0.7610    1.7344 C.3       1 ATP         0.1185
     18 O3'         1.9175    0.2377    2.7247 O.3       1 ATP        -0.5544
     19 C2'         0.4468   -0.3802    0.9263 C.3       1 ATP         0.0542
     20 O2'         1.3993   -1.3703    0.5961 O.3       1 ATP        -0.5831
     21 C1'        -0.6159   -0.9100    1.8769 C.3       1 ATP         0.2222
     22 N9         -1.7127   -1.6108    1.2130 N.pl3     1 ATP        -0.1887
     23 C8         -2.5485   -1.0808    0.2609 C.ar      1 ATP         0.4447
     24 N7         -3.4476   -1.9486   -0.1593 N.2       1 ATP        -0.6159
     25 C5         -3.1762   -3.0816    0.5530 C.ar      1 ATP         0.2195
     26 C6         -3.8510   -4.3579    0.5006 C.ar      1 ATP         0.6144
     27 N6         -4.8468   -4.5293   -0.2961 N.2       1 ATP        -0.8160
     28 N1         -3.2499   -5.2342    1.3937 N.pl3     1 ATP        -0.8611
     29 C2         -2.1646   -4.9275    2.2116 C.ar      1 ATP         0.6141
     30 N3         -1.5382   -3.7840    2.2778 N.2       1 ATP        -0.5913
     31 C4         -2.1054   -2.9018    1.4120 C.ar      1 ATP         0.0067
     32 HOG3       -6.8425    3.7589   -2.5846 H         1 ATP         0.4313
     33 HOB2       -4.7324    5.6698    2.3933 H         1 ATP         0.4716
     34 H5'1       -1.4801    1.9928    0.8147 H         1 ATP         0.0452
     35 H5'2       -0.1369    3.1041    1.1872 H         1 ATP         0.0452
     36 H4'         0.0403    1.7078    3.4343 H         1 ATP         0.0998
     37 H3'         1.5906    1.4859    1.1353 H         1 ATP         0.0544
     38 HO3'        2.6839   -0.1150    2.2479 H         1 ATP         0.3961
     39 H2'        -0.0017    0.0018    0.0005 H         1 ATP         0.0499
     40 HO2'        2.0953   -0.9375    0.0709 H         1 ATP         0.4045
     41 H1'        -0.1998   -1.6319    2.6178 H         1 ATP         0.0912
     42 H8         -2.4515   -0.0599   -0.0829 H         1 ATP         0.1090
     43 HN62       -5.1990   -5.4882   -0.2004 H         1 ATP         0.3694
     44 H2         -1.8555   -5.7783    2.8388 H         1 ATP         0.0371
     45 H45        -3.6312   -6.1750    1.4526 H         1 ATP         0.4283
@<TRIPOS>BOND
     1    1    2 2
     2    1    3 1
     3    1    4 1
     4    1    8 1
     5    4   32 1
     6    5    6 2
     7    5    7 1
     8    5    8 1
     9    5   12 1
    10    7   33 1
    11    9   10 2
    12    9   11 1
    13    9   12 1
    14    9   13 1
    15   13   14 1
    16   14   15 1
    17   14   34 1
    18   14   35 1
    19   15   16 1
    20   15   17 1
    21   15   36 1
    22   16   21 1
    23   17   18 1
    24   17   19 1
    25   17   37 1
    26   18   38 1
    27   19   20 1
    28   19   21 1
    29   19   39 1
    30   20   40 1
    31   21   22 1
    32   21   41 1
    33   22   23 ar
    34   22   31 ar
    35   23   24 ar
    36   23   42 1
    37   24   25 ar
    38   25   26 ar
    39   25   31 ar
    40   26   27 2
    41   26   28 ar
    42   27   43 1
    43   28   29 ar
    44   28   45 1
    45   29   30 ar
    46   29   44 1
    47   30   31 ar
@<TRIPOS>SUBSTRUCTURE
     1 ATP         1 GROUP 0 A     ****
@<TRIPOS>MOLECULE
[[[3,4-dihydroxy-5-(6-imino-1~{H}-purin-9-yl)tetrahydrofuran-2-yl]methoxy-oxido-phosphoryl]oxy-hydroxy-phosphoryl] hydrogen phosphate
   45    47     1     0     0
SMALL
USER_CHARGES

@<TRIPOS>ATOM
      1 PG          1.7667    4.1695    5.7828 P.3       1 ATP         1.5496
      2 O1G         1.9916    4.9709    4.5199 O.co2     1 ATP        -0.8494
      3 O2G         2.2750    2.7502    5.9031 O.co2     1 ATP        -0.8494
      4 O3G         2.3299    5.0310    7.0504 O.3       1 ATP        -0.7845
      5 PB         -1.0902    3.5580    5.3802 P.3       1 ATP         1.9068
      6 O1B        -1.0526    2.0674    5.2157 O.2       1 ATP        -0.8942
      7 O2B        -2.3630    4.1251    6.1999 O.3       1 ATP        -0.8166
      8 O3B         0.1781    4.1986    6.1509 O.3       1 ATP        -0.8194
      9 PA         -2.1560    4.4277    2.7709 P.3       1 ATP         1.5903
     10 O1A        -1.6129    5.3159    1.6726 O.co2     1 ATP        -0.8519
     11 O2A        -3.5422    4.6538    3.3339 O.co2     1 ATP        -0.8519
     12 O3A        -1.0946    4.4160    4.0116 O.3       1 ATP        -0.8093
     13 O5'        -2.0402    2.8619    2.3130 O.3       1 ATP        -0.5649
     14 C5'        -0.8811    2.4285    1.6206 C.3       1 ATP         0.1979
     15 C4'        -0.1994    1.3333    2.4288 C.3       1 ATP         0.1179
     16 O4'        -1.1285    0.2356    2.5840 O.3       1 ATP        -0.3878
     17 C3'         1.0324    0.7610    1.7344 C.3       1 ATP         0.1185
     18 O3'         1.9175    0.2377    2.7247 O.3       1 ATP        -0.5544
     19 C2'         0.4468   -0.3802    0.9263 C.3       1 ATP         0.0542
     20 O2'         1.3993   -1.3703    0.5961 O.3       1 ATP        -0.5831
     21 C1'        -0.6159   -0.9100    1.8769 C.3       1 ATP         0.2222
     22 N9         -1.7127   -1.6108    1.2130 N.pl3     1 ATP        -0.1887
     23 C8         -1.7690   -2.9583    0.9549 C.ar      1 ATP         0.4447
     24 N7         -2.8827   -3.3076    0.3418 N.2       1 ATP        -0.6159
     25 C5         -3.5683   -2.1351    0.2017 C.ar      1 ATP         0.2195
     26 C6         -4.8617   -1.9185   -0.4044 C.ar      1 ATP         0.6144
     27 N6         -5.5166   -2.9094   -0.8994 N.2       1 ATP        -0.8160
     28 N1         -5.1836   -0.5701   -0.3344 N.pl3     1 ATP        -0.8611
     29 C2         -4.3821    0.4180    0.2330 C.ar      1 ATP         0.6141
     30 N3         -3.2117    0.2488    0.7860 N.2       1 ATP        -0.5913
     31 C4         -2.8672   -1.0657    0.7327 C.ar      1 ATP         0.0067
     32 HOG3        2.2560    4.6429    7.9482 H         1 ATP         0.4313
     33 HOB2       -3.2649    3.9515    5.8554 H         1 ATP         0.4716
     34 H5'1       -1.1769    2.0503    0.6369 H         1 ATP         0.0452
     35 H5'2       -0.2081    3.2815    1.4877 H         1 ATP         0.0452
     36 H4'         0.0403    1.7078    3.4343 H         1 ATP         0.0998
     37 H3'         1.5906    1.4859    1.1353 H         1 ATP         0.0544
     38 HO3'        2.6839   -0.1150    2.2479 H         1 ATP         0.3961
     39 H2'        -0.0017    0.0018    0.0005 H         1 ATP         0.0499
     40 HO2'        2.0953   -0.9375    0.0709 H         1 ATP         0.4045
     41 H1'        -0.1998   -1.6319    2.6178 H         1 ATP         0.0912
     42 H8         -0.9697   -3.6300    1.2371 H         1 ATP         0.1090
     43 HN62       -6.4060   -2.5723   -1.2840 H         1 ATP         0.3694
     44 H2         -4.8409    1.4176    0.1757 H         1 ATP         0.0371
     45 H45        -6.0768   -0.2826   -0.7263 H         1 ATP         0.4283
@<TRIPOS>BOND
     1    1    2 2
     2    1    3 1
     3    1    4 1
     4    1    8 1
     5    4   32 1
     6    5    6 2
     7    5    7 1
     8    5    8 1
     9    5   12 1
    10    7   33 1
    11    9   10 2
    12    9   11 1
    13    9   12 1
    14    9   13 1
    15   13   14 1
    16   14   15 1
    17   14   34 1
    18   14   35 1
    19   15   16 1
    20   15   17 1
    21   15   36 1
    22   16   21 1
    23   17   18 1
    24   17   19 1
    25   17   37 1
    26   18   38 1
    27   19   20 1
    28   19   21 1
    29   19   39 1
    30   20   40 1
    31   21   22 1
    32   21   41 1
    33   22   23 ar
    34   22   31 ar
    35   23   24 ar
    36   23   42 1
    37   24   25 ar
    38   25   26 ar
    39   25   31 ar
    40   26   27 2
    41   26   28 ar
    42   27   43 1
    43   28   29 ar
    44   28   45 1
    45   29   30 ar
    46   29   44 1
    47   30   31 ar
@<TRIPOS>SUBSTRUCTURE
     1 ATP         1 GROUP 0 A     ****
@<TRIPOS>MOLECULE
[[[3,4-dihydroxy-5-(6-imino-1~{H}-purin-9-yl)tetrahydrofuran-2-yl]methoxy-oxido-phosphoryl]oxy-hydroxy-phosphoryl] hydrogen phosphate
   45    47     1     0     0
SMALL
USER_CHARGES

@<TRIPOS>ATOM
      1 PG          7.9024    1.3954   -3.2627 P.3       1 ATP         1.5496
      2 O1G         8.1108    0.1787   -4.1367 O.co2     1 ATP        -0.8494
      3 O2G         7.7833    1.2619   -1.7609 O.co2     1 ATP        -0.8494
      4 O3G         9.0770    2.4798   -3.5952 O.3       1 ATP        -0.7845
      5 PB          6.0400    3.6788   -3.3856 P.3       1 ATP         1.9068
      6 O1B         6.9918    4.8280   -3.5401 O.2       1 ATP        -0.8942
      7 O2B         4.6661    3.8090   -4.2276 O.3       1 ATP        -0.8166
      8 O3B         6.6234    2.2368   -3.8249 O.3       1 ATP        -0.8194
      9 PA          4.7365    4.3145   -0.8169 P.3       1 ATP         1.5903
     10 O1A         3.3491    4.5801   -1.3595 O.co2     1 ATP        -0.8519
     11 O2A         5.6403    5.4584   -0.4112 O.co2     1 ATP        -0.8519
     12 O3A         5.5457    3.3738   -1.8782 O.3       1 ATP        -0.8093
     13 O5'         4.6405    3.2701    0.4379 O.3       1 ATP        -0.5649
     14 C5'         4.0922    1.9801    0.2227 C.3       1 ATP         0.1979
     15 C4'         2.5944    2.0310    0.4653 C.3       1 ATP         0.1179
     16 O4'         1.9327    2.5740   -0.6889 O.3       1 ATP        -0.3878
     17 C3'         1.9685    0.6634    0.6767 C.3       1 ATP         0.1185
     18 O3'         2.1425    0.1975    1.9977 O.3       1 ATP        -0.5544
     19 C2'         0.5176    0.9128    0.3099 C.3       1 ATP         0.0542
     20 O2'        -0.2103    1.4454    1.4152 O.3       1 ATP        -0.5831
     21 C1'         0.6219    1.9765   -0.7844 C.3       1 ATP         0.2222
     22 N9          0.4237    1.4496   -2.1357 N.pl3     1 ATP        -0.1887
     23 C8          1.4069    0.9710   -2.9662 C.ar      1 ATP         0.4447
     24 N7          0.9316    0.5623   -4.1260 N.2       1 ATP        -0.6159
     25 C5         -0.4120    0.7884   -4.0344 C.ar      1 ATP         0.2195
     26 C6         -1.4353    0.5283   -5.0204 C.ar      1 ATP         0.6144
     27 N6         -1.1199    0.0176   -6.1586 N.2       1 ATP        -0.8160
     28 N1         -2.6704    0.9095   -4.5147 N.pl3     1 ATP        -0.8611
     29 C2         -2.8863    1.4571   -3.2520 C.ar      1 ATP         0.6141
     30 N3         -1.9805    1.7017   -2.3442 N.2       1 ATP        -0.5913
     31 C4         -0.7561    1.3381   -2.8112 C.ar      1 ATP         0.0067
     32 HOG3        9.0797    3.3298   -3.1057 H         1 ATP         0.4313
     33 HOB2        4.0721    4.5696   -4.0518 H         1 ATP         0.4716
     34 H5'1        4.3029    1.6730   -0.8066 H         1 ATP         0.0452
     35 H5'2        4.5678    1.2739    0.9106 H         1 ATP         0.0452
     36 H4'         2.3751    2.7029    1.3156 H         1 ATP         0.0998
     37 H3'         2.4336   -0.1217   -0.0015 H         1 ATP         0.0544
     38 HO3'        1.7160   -0.6716    2.0397 H         1 ATP         0.3961
     39 H2'         0.0316    0.0155   -0.0339 H         1 ATP         0.0499
     40 HO2'       -0.1608    0.7921    2.1351 H         1 ATP         0.4045
     41 H1'        -0.1474    2.7798   -0.6651 H         1 ATP         0.0912
     42 H8          2.4466    0.9468   -2.6694 H         1 ATP         0.1090
     43 HN62       -1.9661   -0.0965   -6.7275 H         1 ATP         0.3694
     44 H2         -3.9481    1.6825   -3.0660 H         1 ATP         0.0371
     45 H45        -3.4814    0.7753   -5.1133 H         1 ATP         0.4283
@<TRIPOS>BOND
     1    1    2 2
     2    1    3 1
     3    1    4 1
     4    1    8 1
     5    4   32 1
     6    5    6 2
     7    5    7 1
     8    5    8 1
     9    5   12 1
    10    7   33 1
    11    9   10 2
    12    9   11 1
    13    9   12 1
    14    9   13 1
    15   13   14 1
    16   14   15 1
    17   14   34 1
    18   14   35 1
    19   15   16 1
    20   15   17 1
    21   15   36 1
    22   16   21 1
    23   17   18 1
    24   17   19 1
    25   17   37 1
    26   18   38 1
    27   19   20 1
    28   19   21 1
    29   19   39 1
    30   20   40 1
    31   21   22 1
    32   21   41 1
    33   22   23 ar
    34   22   31 ar
    35   23   24 ar
    36   23   42 1
    37   24   25 ar
    38   25   26 ar
    39   25   31 ar
    40   26   27 2
    41   26   28 ar
    42   27   43 1
    43   28   29 ar
    44   28   45 1
    45   29   30 ar
    46   29   44 1
    47   30   31 ar
@<TRIPOS>SUBSTRUCTURE
     1 ATP         1 GROUP 0 A     ****
@<TRIPOS>MOLECULE
[[[3,4-dihydroxy-5-(6-imino-1~{H}-purin-9-yl)tetrahydrofuran-2-yl]methoxy-oxido-phosphoryl]oxy-hydroxy-phosphoryl] hydrogen phosphate
   45    47     1     0     0
SMALL
USER_CHARGES

@<TRIPOS>ATOM
      1 PG          5.0442    5.6142   -0.8919 P.3       1 ATP         1.5496
      2 O1G         4.8178    6.0690   -2.3165 O.co2     1 ATP        -0.8494
      3 O2G         6.2225    4.7358   -0.5347 O.co2     1 ATP        -0.8494
      4 O3G         5.0665    6.9299    0.0749 O.3       1 ATP        -0.7845
      5 PB          2.9368    3.5542   -0.7767 P.3       1 ATP         1.9068
      6 O1B         2.5013    3.4971   -2.2110 O.2       1 ATP        -0.8942
      7 O2B         3.9724    2.3965   -0.3284 O.3       1 ATP        -0.8166
      8 O3B         3.6765    4.9218   -0.3349 O.3       1 ATP        -0.8194
      9 PA          0.4656    4.4360    0.5711 P.3       1 ATP         1.5903
     10 O1A        -0.4569    4.3401   -0.6246 O.co2     1 ATP        -0.8519
     11 O2A         0.9689    5.7789    1.0538 O.co2     1 ATP        -0.8519
     12 O3A         1.7547    3.4656    0.3206 O.3       1 ATP        -0.8093
     13 O5'        -0.2061    3.6558    1.8418 O.3       1 ATP        -0.5649
     14 C5'        -0.8811    2.4285    1.6206 C.3       1 ATP         0.1979
     15 C4'        -0.1994    1.3333    2.4288 C.3       1 ATP         0.1179
     16 O4'        -1.1285    0.2356    2.5840 O.3       1 ATP        -0.3878
     17 C3'         1.0324    0.7610    1.7344 C.3       1 ATP         0.1185
     18 O3'         1.9175    0.2377    2.7247 O.3       1 ATP        -0.5544
     19 C2'         0.4468   -0.3802    0.9263 C.3       1 ATP         0.0542
     20 O2'         1.3993   -1.3703    0.5961 O.3       1 ATP        -0.5831
     21 C1'        -0.6159   -0.9100    1.8769 C.3       1 ATP         0.2222
     22 N9         -1.7127   -1.6108    1.2130 N.pl3     1 ATP        -0.1887
     23 C8         -1.7690   -2.9583    0.9549 C.ar      1 ATP         0.4447
     24 N7         -2.8827   -3.3076    0.3418 N.2       1 ATP        -0.6159
     25 C5         -3.5683   -2.1351    0.2017 C.ar      1 ATP         0.2195
     26 C6         -4.8617   -1.9185   -0.4044 C.ar      1 ATP         0.6144
     27 N6         -5.5166   -2.9094   -0.8994 N.2       1 ATP        -0.8160
     28 N1         -5.1836   -0.5701   -0.3344 N.pl3     1 ATP        -0.8611
     29 C2         -4.3821    0.4180    0.2330 C.ar      1 ATP         0.6141
     30 N3         -3.2117    0.2488    0.7860 N.2       1 ATP        -0.5913
     31 C4         -2.8672   -1.0657    0.7327 C.ar      1 ATP         0.0067
     32 HOG3        5.2051    6.7997    1.0372 H         1 ATP         0.4313
     33 HOB2        4.8382    2.3315   -0.7849 H         1 ATP         0.4716
     34 H5'1       -1.9255    2.5382    1.9293 H         1 ATP         0.0452
     35 H5'2       -0.8473    2.1932    0.5521 H         1 ATP         0.0452
     36 H4'         0.0403    1.7078    3.4343 H         1 ATP         0.0998
     37 H3'         1.5906    1.4859    1.1353 H         1 ATP         0.0544
     38 HO3'        2.6839   -0.1150    2.2479 H         1 ATP         0.3961
     39 H2'        -0.0017    0.0018    0.0005 H         1 ATP         0.0499
     40 HO2'        2.0953   -0.9375    0.0709 H         1 ATP         0.4045
     41 H1'        -0.1998   -1.6319    2.6178 H         1 ATP         0.0912
     42 H8         -0.9697   -3.6300    1.2371 H         1 ATP         0.1090
     43 HN62       -6.4060   -2.5723   -1.2840 H         1 ATP         0.3694
     44 H2         -4.8409    1.4176    0.1757 H         1 ATP         0.0371
     45 H45        -6.0768   -0.2826   -0.7263 H         1 ATP         0.4283
@<TRIPOS>BOND
     1    1    2 2
     2    1    3 1
     3    1    4 1
     4    1    8 1
     5    4   32 1
     6    5    6 2
     7    5    7 1
     8    5    8 1
     9    5   12 1
    10    7   33 1
    11    9   10 2
    12    9   11 1
    13    9   12 1
    14    9   13 1
    15   13   14 1
    16   14   15 1
    17   14   34 1
    18   14   35 1
    19   15   16 1
    20   15   17 1
    21   15   36 1
    22   16   21 1
    23   17   18 1
    24   17   19 1
    25   17   37 1
    26   18   38 1
    27   19   20 1
    28   19   21 1
    29   19   39 1
    30   20   40 1
    31   21   22 1
    32   21   41 1
    33   22   23 ar
    34   22   31 ar
    35   23   24 ar
    36   23   42 1
    37   24   25 ar
    38   25   26 ar
    39   25   31 ar
    40   26   27 2
    41   26   28 ar
    42   27   43 1
    43   28   29 ar
    44   28   45 1
    45   29   30 ar
    46   29   44 1
    47   30   31 ar
@<TRIPOS>SUBSTRUCTURE
     1 ATP         1 GROUP 0 A     ****
@<TRIPOS>MOLECULE
[[[3,4-dihydroxy-5-(6-imino-1~{H}-purin-9-yl)tetrahydrofuran-2-yl]methoxy-oxido-phosphoryl]oxy-hydroxy-phosphoryl] hydrogen phosphate
   45    47     1     0     0
SMALL
USER_CHARGES

@<TRIPOS>ATOM
      1 PG          7.1898    1.7166   -5.2632 P.3       1 ATP         1.5496
      2 O1G         8.4724    2.4531   -5.5799 O.co2     1 ATP        -0.8494
      3 O2G         6.0505    1.6778   -6.2571 O.co2     1 ATP        -0.8494
      4 O3G         7.5628    0.1837   -4.8421 O.3       1 ATP        -0.7845
      5 PB          6.0400    3.6788   -3.3856 P.3       1 ATP         1.9068
      6 O1B         6.9918    4.8280   -3.5401 O.2       1 ATP        -0.8942
      7 O2B         4.6661    3.8090   -4.2276 O.3       1 ATP        -0.8166
      8 O3B         6.6234    2.2368   -3.8249 O.3       1 ATP        -0.8194
      9 PA          4.7365    4.3145   -0.8169 P.3       1 ATP         1.5903
     10 O1A         3.3491    4.5801   -1.3595 O.co2     1 ATP        -0.8519
     11 O2A         5.6403    5.4584   -0.4112 O.co2     1 ATP        -0.8519
     12 O3A         5.5457    3.3738   -1.8782 O.3       1 ATP        -0.8093
     13 O5'         4.6405    3.2701    0.4379 O.3       1 ATP        -0.5649
     14 C5'         4.0922    1.9801    0.2227 C.3       1 ATP         0.1979
     15 C4'         2.5944    2.0310    0.4653 C.3       1 ATP         0.1179
     16 O4'         1.9327    2.5740   -0.6889 O.3       1 ATP        -0.3878
     17 C3'         1.9685    0.6634    0.6767 C.3       1 ATP         0.1185
     18 O3'         2.1425    0.1975    1.9977 O.3       1 ATP        -0.5544
     19 C2'         0.5176    0.9128    0.3099 C.3       1 ATP         0.0542
     20 O2'        -0.2103    1.4454    1.4152 O.3       1 ATP        -0.5831
     21 C1'         0.6219    1.9765   -0.7844 C.3       1 ATP         0.2222
     22 N9          0.4237    1.4496   -2.1357 N.pl3     1 ATP        -0.1887
     23 C8          1.4069    0.9710   -2.9662 C.ar      1 ATP         0.4447
     24 N7          0.9316    0.5623   -4.1260 N.2       1 ATP        -0.6159
     25 C5         -0.4120    0.7884   -4.0344 C.ar      1 ATP         0.2195
     26 C6         -1.4353    0.5283   -5.0204 C.ar      1 ATP         0.6144
     27 N6         -1.1199    0.0176   -6.1586 N.2       1 ATP        -0.8160
     28 N1         -2.6704    0.9095   -4.5147 N.pl3     1 ATP        -0.8611
     29 C2         -2.8863    1.4571   -3.2520 C.ar      1 ATP         0.6141
     30 N3         -1.9805    1.7017   -2.3442 N.2       1 ATP        -0.5913
     31 C4         -0.7561    1.3381   -2.8112 C.ar      1 ATP         0.0067
     32 HOG3        6.8320   -0.4263   -4.6057 H         1 ATP         0.4313
     33 HOB2        4.0721    4.5696   -4.0518 H         1 ATP         0.4716
     34 H5'1        4.3029    1.6730   -0.8066 H         1 ATP         0.0452
     35 H5'2        4.5678    1.2739    0.9106 H         1 ATP         0.0452
     36 H4'         2.3751    2.7029    1.3156 H         1 ATP         0.0998
     37 H3'         2.4336   -0.1217   -0.0015 H         1 ATP         0.0544
     38 HO3'        1.7160   -0.6716    2.0397 H         1 ATP         0.3961
     39 H2'         0.0316    0.0155   -0.0339 H         1 ATP         0.0499
     40 HO2'       -0.1608    0.7921    2.1351 H         1 ATP         0.4045
     41 H1'        -0.1474    2.7798   -0.6651 H         1 ATP         0.0912
     42 H8          2.4466    0.9468   -2.6694 H         1 ATP         0.1090
     43 HN62       -1.9661   -0.0965   -6.7275 H         1 ATP         0.3694
     44 H2         -3.9481    1.6825   -3.0660 H         1 ATP         0.0371
     45 H45        -3.4814    0.7753   -5.1133 H         1 ATP         0.4283
@<TRIPOS>BOND
     1    1    2 2
     2    1    3 1
     3    1    4 1
     4    1    8 1
     5    4   32 1
     6    5    6 2
     7    5    7 1
     8    5    8 1
     9    5   12 1
    10    7   33 1
    11    9   10 2
    12    9   11 1
    13    9   12 1
    14    9   13 1
    15   13   14 1
    16   14   15 1
    17   14   34 1
    18   14   35 1
    19   15   16 1
    20   15   17 1
    21   15   36 1
    22   16   21 1
    23   17   18 1
    24   17   19 1
    25   17   37 1
    26   18   38 1
    27   19   20 1
    28   19   21 1
    29   19   39 1
    30   20   40 1
    31   21   22 1
    32   21   41 1
    33   22   23 ar
    34   22   31 ar
    35   23   24 ar
    36   23   42 1
    37   24   25 ar
    38   25   26 ar
    39   25   31 ar
    40   26   27 2
    41   26   28 ar
    42   27   43 1
    43   28   29 ar
    44   28   45 1
    45   29   30 ar
    46   29   44 1
    47   30   31 ar
@<TRIPOS>SUBSTRUCTURE
     1 ATP         1 GROUP 0 A     ****
@<TRIPOS>MOLECULE
[[[3,4-dihydroxy-5-(6-imino-1~{H}-purin-9-yl)tetrahydrofuran-2-yl]methoxy-oxido-phosphoryl]oxy-hydroxy-phosphoryl] hydrogen phosphate
   45    47     1     0     0
SMALL
USER_CHARGES

@<TRIPOS>ATOM
      1 PG         -5.6450    1.9170   -2.4786 P.3       1 ATP         1.5496
      2 O1G        -6.7882    2.8975   -2.6179 O.co2     1 ATP        -0.8494
      3 O2G        -5.8969    0.4257   -2.4715 O.co2     1 ATP        -0.8494
      4 O3G        -4.5340    2.2496   -3.6281 O.3       1 ATP        -0.7845
      5 PB         -5.1473    2.2708    0.4067 P.3       1 ATP         1.9068
      6 O1B        -6.3150    3.1241    0.8051 O.2       1 ATP        -0.8942
      7 O2B        -5.3140    0.6930    0.7170 O.3       1 ATP        -0.8166
      8 O3B        -4.7659    2.3142   -1.1635 O.3       1 ATP        -0.8194
      9 PA         -3.2889    2.7003    2.6568 P.3       1 ATP         1.5903
     10 O1A        -3.3273    1.2948    3.2162 O.co2     1 ATP        -0.8519
     11 O2A        -4.0474    3.8223    3.3318 O.co2     1 ATP        -0.8519
     12 O3A        -3.7328    2.6541    1.0862 O.3       1 ATP        -0.8093
     13 O5'        -1.7337    3.1724    2.4752 O.3       1 ATP        -0.5649
     14 C5'        -0.8811    2.4285    1.6206 C.3       1 ATP         0.1979
     15 C4'        -0.1994    1.3333    2.4288 C.3       1 ATP         0.1179
     16 O4'        -1.1285    0.2356    2.5840 O.3       1 ATP        -0.3878
     17 C3'         1.0324    0.7610    1.7344 C.3       1 ATP         0.1185
     18 O3'         1.9175    0.2377    2.7247 O.3       1 ATP        -0.5544
     19 C2'         0.4468   -0.3802    0.9263 C.3       1 ATP         0.0542
     20 O2'         1.3993   -1.3703    0.5961 O.3       1 ATP        -0.5831
     21 C1'        -0.6159   -0.9100    1.8769 C.3       1 ATP         0.2222
     22 N9         -1.7127   -1.6108    1.2130 N.pl3     1 ATP        -0.1887
     23 C8         -2.8662   -1.0361    0.7388 C.ar      1 ATP         0.4447
     24 N7         -3.6774   -1.9166    0.1867 N.2       1 ATP        -0.6159
     25 C5         -3.0159   -3.1045    0.3123 C.ar      1 ATP         0.2195
     26 C6         -3.4377   -4.4169   -0.1199 C.ar      1 ATP         0.6144
     27 N6         -4.5720   -4.5691   -0.7080 N.2       1 ATP        -0.8160
     28 N1         -2.4600   -5.3463    0.2071 N.pl3     1 ATP        -0.8611
     29 C2         -1.2595   -5.0554    0.8515 C.ar      1 ATP         0.6141
     30 N3         -0.8555   -3.8803    1.2516 N.2       1 ATP        -0.5913
     31 C4         -1.7946   -2.9457    0.9448 C.ar      1 ATP         0.0067
     32 HOG3       -3.7253    1.6961   -3.6695 H         1 ATP         0.4313
     33 HOB2       -5.4501    0.4035    1.6444 H         1 ATP         0.4716
     34 H5'1       -1.4801    1.9928    0.8147 H         1 ATP         0.0452
     35 H5'2       -0.1369    3.1041    1.1872 H         1 ATP         0.0452
     36 H4'         0.0403    1.7078    3.4343 H         1 ATP         0.0998
     37 H3'         1.5906    1.4859    1.1353 H         1 ATP         0.0544
     38 HO3'        2.6839   -0.1150    2.2479 H         1 ATP         0.3961
     39 H2'        -0.0017    0.0018    0.0005 H         1 ATP         0.0499
     40 HO2'        0.9369   -2.0558    0.0825 H         1 ATP         0.4045
     41 H1'        -0.1998   -1.6319    2.6178 H         1 ATP         0.0912
     42 H8         -3.0558    0.0252    0.8256 H         1 ATP         0.1090
     43 HN62       -4.7047   -5.5592   -0.9421 H         1 ATP         0.3694
     44 H2         -0.6372   -5.9505    1.0077 H         1 ATP         0.0371
     45 H45        -2.6338   -6.3155   -0.0469 H         1 ATP         0.4283
@<TRIPOS>BOND
     1    1    2 2
     2    1    3 1
     3    1    4 1
     4    1    8 1
     5    4   32 1
     6    5    6 2
     7    5    7 1
     8    5    8 1
     9    5   12 1
    10    7   33 1
    11    9   10 2
    12    9   11 1
    13    9   12 1
    14    9   13 1
    15   13   14 1
    16   14   15 1
    17   14   34 1
    18   14   35 1
    19   15   16 1
    20   15   17 1
    21   15   36 1
    22   16   21 1
    23   17   18 1
    24   17   19 1
    25   17   37 1
    26   18   38 1
    27   19   20 1
    28   19   21 1
    29   19   39 1
    30   20   40 1
    31   21   22 1
    32   21   41 1
    33   22   23 ar
    34   22   31 ar
    35   23   24 ar
    36   23   42 1
    37   24   25 ar
    38   25   26 ar
    39   25   31 ar
    40   26   27 2
    41   26   28 ar
    42   27   43 1
    43   28   29 ar
    44   28   45 1
    45   29   30 ar
    46   29   44 1
    47   30   31 ar
@<TRIPOS>SUBSTRUCTURE
     1 ATP         1 GROUP 0 A     ****
@<TRIPOS>MOLECULE
[[[3,4-dihydroxy-5-(6-imino-1~{H}-purin-9-yl)tetrahydrofuran-2-yl]methoxy-oxido-phosphoryl]oxy-hydroxy-phosphoryl] hydrogen phosphate
   45    47     1     0     0
SMALL
USER_CHARGES

@<TRIPOS>ATOM
      1 PG         -1.6313    6.2268   -0.3940 P.3       1 ATP         1.5496
      2 O1G        -1.9040    7.4875    0.3959 O.co2     1 ATP        -0.8494
      3 O2G        -1.9140    6.1637   -1.8784 O.co2     1 ATP        -0.8494
      4 O3G        -0.0802    5.7829   -0.1424 O.3       1 ATP        -0.7845
      5 PB         -3.9406    4.6475    0.5391 P.3       1 ATP         1.9068
      6 O1B        -4.7169    5.6812    1.3001 O.2       1 ATP        -0.8942
      7 O2B        -4.4651    4.3656   -0.9639 O.3       1 ATP        -0.8166
      8 O3B        -2.3695    4.9724    0.3419 O.3       1 ATP        -0.8194
      9 PA         -3.2889    2.7003    2.6568 P.3       1 ATP         1.5903
     10 O1A        -3.3521    1.1903    2.7325 O.co2     1 ATP        -0.8519
     11 O2A        -3.9194    3.5557    3.7341 O.co2     1 ATP        -0.8519
     12 O3A        -3.8778    3.1801    1.2115 O.3       1 ATP        -0.8093
     13 O5'        -1.7337    3.1724    2.4752 O.3       1 ATP        -0.5649
     14 C5'        -0.8811    2.4285    1.6206 C.3       1 ATP         0.1979
     15 C4'        -0.1994    1.3333    2.4288 C.3       1 ATP         0.1179
     16 O4'        -1.1285    0.2356    2.5840 O.3       1 ATP        -0.3878
     17 C3'         1.0324    0.7610    1.7344 C.3       1 ATP         0.1185
     18 O3'         1.9175    0.2377    2.7247 O.3       1 ATP        -0.5544
     19 C2'         0.4468   -0.3802    0.9263 C.3       1 ATP         0.0542
     20 O2'         1.3993   -1.3703    0.5961 O.3       1 ATP        -0.5831
     21 C1'        -0.6159   -0.9100    1.8769 C.3       1 ATP         0.2222
     22 N9         -1.7127   -1.6108    1.2130 N.pl3     1 ATP        -0.1887
     23 C8         -2.0868   -2.9137    1.4327 C.ar      1 ATP         0.4447
     24 N7         -3.1125   -3.2756    0.6878 N.2       1 ATP        -0.6159
     25 C5         -3.4079   -2.1580   -0.0391 C.ar      1 ATP         0.2195
     26 C6         -4.4483   -1.9775   -1.0249 C.ar      1 ATP         0.6144
     27 N6         -5.2418   -2.9492   -1.3113 N.2       1 ATP        -0.8160
     28 N1         -4.3937   -0.6823   -1.5211 N.pl3     1 ATP        -0.8611
     29 C2         -3.4770    0.2901   -1.1271 C.ar      1 ATP         0.6141
     30 N3         -2.5289    0.1525   -0.2403 N.2       1 ATP        -0.5913
     31 C4         -2.5564   -1.1096    0.2655 C.ar      1 ATP         0.0067
     32 HOG3        0.2529    4.9763   -0.5902 H         1 ATP         0.4313
     33 HOB2       -4.4763    5.1044   -1.6090 H         1 ATP         0.4716
     34 H5'1       -1.4801    1.9928    0.8147 H         1 ATP         0.0452
     35 H5'2       -0.1369    3.1041    1.1872 H         1 ATP         0.0452
     36 H4'         0.0403    1.7078    3.4343 H         1 ATP         0.0998
     37 H3'         1.5906    1.4859    1.1353 H         1 ATP         0.0544
     38 HO3'        2.6839   -0.1150    2.2479 H         1 ATP         0.3961
     39 H2'        -0.0017    0.0018    0.0005 H         1 ATP         0.0499
     40 HO2'        2.0953   -0.9375    0.0709 H         1 ATP         0.4045
     41 H1'        -0.1998   -1.6319    2.6178 H         1 ATP         0.0912
     42 H8         -1.5740   -3.5449    2.1457 H         1 ATP         0.1090
     43 HN62       -5.9117   -2.6433   -2.0256 H         1 ATP         0.3694
     44 H2         -3.6225    1.2454   -1.6553 H         1 ATP         0.0371
     45 H45        -5.0794   -0.4231   -2.2258 H         1 ATP         0.4283
@<TRIPOS>BOND
     1    1    2 2
     2    1    3 1
     3    1    4 1
     4    1    8 1
     5    4   32 1
     6    5    6 2
     7    5    7 1
     8    5    8 1
     9    5   12 1
    10    7   33 1
    11    9   10 2
    12    9   11 1
    13    9   12 1
    14    9   13 1
    15   13   14 1
    16   14   15 1
    17   14   34 1
    18   14   35 1
    19   15   16 1
    20   15   17 1
    21   15   36 1
    22   16   21 1
    23   17   18 1
    24   17   19 1
    25   17   37 1
    26   18   38 1
    27   19   20 1
    28   19   21 1
    29   19   39 1
    30   20   40 1
    31   21   22 1
    32   21   41 1
    33   22   23 ar
    34   22   31 ar
    35   23   24 ar
    36   23   42 1
    37   24   25 ar
    38   25   26 ar
    39   25   31 ar
    40   26   27 2
    41   26   28 ar
    42   27   43 1
    43   28   29 ar
    44   28   45 1
    45   29   30 ar
    46   29   44 1
    47   30   31 ar
@<TRIPOS>SUBSTRUCTURE
     1 ATP         1 GROUP 0 A     ****
@<TRIPOS>MOLECULE
[[[3,4-dihydroxy-5-(6-imino-1~{H}-purin-9-yl)tetrahydrofuran-2-yl]methoxy-oxido-phosphoryl]oxy-hydroxy-phosphoryl] hydrogen phosphate
   45    47     1     0     0
SMALL
USER_CHARGES

@<TRIPOS>ATOM
      1 PG         -3.4568   -2.1851    5.5964 P.3       1 ATP         1.5496
      2 O1G        -4.0696   -3.2416    4.7042 O.co2     1 ATP        -0.8494
      3 O2G        -4.1462   -1.7484    6.8698 O.co2     1 ATP        -0.8494
      4 O3G        -1.9308   -2.6369    5.9618 O.3       1 ATP        -0.7845
      5 PB         -4.0972    0.1725    3.9444 P.3       1 ATP         1.9068
      6 O1B        -4.9908   -0.4317    2.9018 O.2       1 ATP        -0.8942
      7 O2B        -4.8647    0.9201    5.1550 O.3       1 ATP        -0.8166
      8 O3B        -3.1156   -0.8677    4.6976 O.3       1 ATP        -0.8194
      9 PA         -3.2889    2.7003    2.6568 P.3       1 ATP         1.5903
     10 O1A        -3.9939    3.6416    3.6091 O.co2     1 ATP        -0.8519
     11 O2A        -3.8600    2.4177    1.2843 O.co2     1 ATP        -0.8519
     12 O3A        -3.0422    1.2742    3.4127 O.3       1 ATP        -0.8093
     13 O5'        -1.7337    3.1724    2.4752 O.3       1 ATP        -0.5649
     14 C5'        -0.8811    2.4285    1.6206 C.3       1 ATP         0.1979
     15 C4'        -0.1994    1.3333    2.4288 C.3       1 ATP         0.1179
     16 O4'        -1.1285    0.2356    2.5840 O.3       1 ATP        -0.3878
     17 C3'         1.0324    0.7610    1.7344 C.3       1 ATP         0.1185
     18 O3'         1.9175    0.2377    2.7247 O.3       1 ATP        -0.5544
     19 C2'         0.4468   -0.3802    0.9263 C.3       1 ATP         0.0542
     20 O2'         1.3993   -1.3703    0.5961 O.3       1 ATP        -0.5831
     21 C1'        -0.6159   -0.9100    1.8769 C.3       1 ATP         0.2222
     22 N9         -1.7127   -1.6108    1.2130 N.pl3     1 ATP        -0.1887
     23 C8         -2.0868   -2.9137    1.4327 C.ar      1 ATP         0.4447
     24 N7         -3.1125   -3.2756    0.6878 N.2       1 ATP        -0.6159
     25 C5         -3.4079   -2.1580   -0.0391 C.ar      1 ATP         0.2195
     26 C6         -4.4483   -1.9775   -1.0249 C.ar      1 ATP         0.6144
     27 N6         -5.2418   -2.9492   -1.3113 N.2       1 ATP        -0.8160
     28 N1         -4.3937   -0.6823   -1.5211 N.pl3     1 ATP        -0.8611
     29 C2         -3.4770    0.2901   -1.1271 C.ar      1 ATP         0.6141
     30 N3         -2.5289    0.1525   -0.2403 N.2       1 ATP        -0.5913
     31 C4         -2.5564   -1.1096    0.2655 C.ar      1 ATP         0.0067
     32 HOG3       -1.3959   -2.0507    6.5384 H         1 ATP         0.4313
     33 HOB2       -5.4840    0.4046    5.7144 H         1 ATP         0.4716
     34 H5'1       -1.4801    1.9928    0.8147 H         1 ATP         0.0452
     35 H5'2       -0.1369    3.1041    1.1872 H         1 ATP         0.0452
     36 H4'         0.0403    1.7078    3.4343 H         1 ATP         0.0998
     37 H3'         1.5906    1.4859    1.1353 H         1 ATP         0.0544
     38 HO3'        2.6839   -0.1150    2.2479 H         1 ATP         0.3961
     39 H2'        -0.0017    0.0018    0.0005 H         1 ATP         0.0499
     40 HO2'        2.0953   -0.9375    0.0709 H         1 ATP         0.4045
     41 H1'        -0.1998   -1.6319    2.6178 H         1 ATP         0.0912
     42 H8         -1.5740   -3.5449    2.1457 H         1 ATP         0.1090
     43 HN62       -5.9117   -2.6433   -2.0256 H         1 ATP         0.3694
     44 H2         -3.6225    1.2454   -1.6553 H         1 ATP         0.0371
     45 H45        -5.0794   -0.4231   -2.2258 H         1 ATP         0.4283
@<TRIPOS>BOND
     1    1    2 2
     2    1    3 1
     3    1    4 1
     4    1    8 1
     5    4   32 1
     6    5    6 2
     7    5    7 1
     8    5    8 1
     9    5   12 1
    10    7   33 1
    11    9   10 2
    12    9   11 1
    13    9   12 1
    14    9   13 1
    15   13   14 1
    16   14   15 1
    17   14   34 1
    18   14   35 1
    19   15   16 1
    20   15   17 1
    21   15   36 1
    22   16   21 1
    23   17   18 1
    24   17   19 1
    25   17   37 1
    26   18   38 1
    27   19   20 1
    28   19   21 1
    29   19   39 1
    30   20   40 1
    31   21   22 1
    32   21   41 1
    33   22   23 ar
    34   22   31 ar
    35   23   24 ar
    36   23   42 1
    37   24   25 ar
    38   25   26 ar
    39   25   31 ar
    40   26   27 2
    41   26   28 ar
    42   27   43 1
    43   28   29 ar
    44   28   45 1
    45   29   30 ar
    46   29   44 1
    47   30   31 ar
@<TRIPOS>SUBSTRUCTURE
     1 ATP         1 GROUP 0 A     ****
@<TRIPOS>MOLECULE
[[[3,4-dihydroxy-5-(6-imino-1~{H}-purin-9-yl)tetrahydrofuran-2-yl]methoxy-oxido-phosphoryl]oxy-hydroxy-phosphoryl] hydrogen phosphate
   45    47     1     0     0
SMALL
USER_CHARGES

@<TRIPOS>ATOM
      1 PG          8.1535    5.5825   -4.1649 P.3       1 ATP         1.5496
      2 O1G         7.3484    6.4010   -5.1495 O.co2     1 ATP        -0.8494
      3 O2G         9.1794    4.5797   -4.6438 O.co2     1 ATP        -0.8494
      4 O3G         8.8760    6.6010   -3.1128 O.3       1 ATP        -0.7845
      5 PB          6.0400    3.6788   -3.3856 P.3       1 ATP         1.9068
      6 O1B         4.9603    4.0173   -4.3704 O.2       1 ATP        -0.8942
      7 O2B         6.9384    2.3908   -3.7694 O.3       1 ATP        -0.8166
      8 O3B         7.1306    4.8444   -3.1309 O.3       1 ATP        -0.8194
      9 PA          4.7365    4.3145   -0.8169 P.3       1 ATP         1.5903
     10 O1A         3.3491    4.5801   -1.3595 O.co2     1 ATP        -0.8519
     11 O2A         5.6403    5.4584   -0.4112 O.co2     1 ATP        -0.8519
     12 O3A         5.5457    3.3738   -1.8782 O.3       1 ATP        -0.8093
     13 O5'         4.6405    3.2701    0.4379 O.3       1 ATP        -0.5649
     14 C5'         4.0922    1.9801    0.2227 C.3       1 ATP         0.1979
     15 C4'         2.5944    2.0310    0.4653 C.3       1 ATP         0.1179
     16 O4'         1.9327    2.5740   -0.6889 O.3       1 ATP        -0.3878
     17 C3'         1.9685    0.6634    0.6767 C.3       1 ATP         0.1185
     18 O3'         2.1425    0.1975    1.9977 O.3       1 ATP        -0.5544
     19 C2'         0.5176    0.9128    0.3099 C.3       1 ATP         0.0542
     20 O2'        -0.2103    1.4454    1.4152 O.3       1 ATP        -0.5831
     21 C1'         0.6219    1.9765   -0.7844 C.3       1 ATP         0.2222
     22 N9          0.4237    1.4496   -2.1357 N.pl3     1 ATP        -0.1887
     23 C8          1.4069    0.9710   -2.9662 C.ar      1 ATP         0.4447
     24 N7          0.9316    0.5623   -4.1260 N.2       1 ATP        -0.6159
     25 C5         -0.4120    0.7884   -4.0344 C.ar      1 ATP         0.2195
     26 C6         -1.4353    0.5283   -5.0204 C.ar      1 ATP         0.6144
     27 N6         -1.1199    0.0176   -6.1586 N.2       1 ATP        -0.8160
     28 N1         -2.6704    0.9095   -4.5147 N.pl3     1 ATP        -0.8611
     29 C2         -2.8863    1.4571   -3.2520 C.ar      1 ATP         0.6141
     30 N3         -1.9805    1.7017   -2.3442 N.2       1 ATP        -0.5913
     31 C4         -0.7561    1.3381   -2.8112 C.ar      1 ATP         0.0067
     32 HOG3        9.4390    6.2196   -2.4059 H         1 ATP         0.4313
     33 HOB2        7.4460    2.3993   -4.6088 H         1 ATP         0.4716
     34 H5'1        4.3029    1.6730   -0.8066 H         1 ATP         0.0452
     35 H5'2        4.5678    1.2739    0.9106 H         1 ATP         0.0452
     36 H4'         2.3751    2.7029    1.3156 H         1 ATP         0.0998
     37 H3'         2.4336   -0.1217   -0.0015 H         1 ATP         0.0544
     38 HO3'        1.7160   -0.6716    2.0397 H         1 ATP         0.3961
     39 H2'         0.0316    0.0155   -0.0339 H         1 ATP         0.0499
     40 HO2'       -0.1608    0.7921    2.1351 H         1 ATP         0.4045
     41 H1'        -0.1474    2.7798   -0.6651 H         1 ATP         0.0912
     42 H8          2.4466    0.9468   -2.6694 H         1 ATP         0.1090
     43 HN62       -1.9661   -0.0965   -6.7275 H         1 ATP         0.3694
     44 H2         -3.9481    1.6825   -3.0660 H         1 ATP         0.0371
     45 H45        -3.4814    0.7753   -5.1133 H         1 ATP         0.4283
@<TRIPOS>BOND
     1    1    2 2
     2    1    3 1
     3    1    4 1
     4    1    8 1
     5    4   32 1
     6    5    6 2
     7    5    7 1
     8    5    8 1
     9    5   12 1
    10    7   33 1
    11    9   10 2
    12    9   11 1
    13    9   12 1
    14    9   13 1
    15   13   14 1
    16   14   15 1
    17   14   34 1
    18   14   35 1
    19   15   16 1
    20   15   17 1
    21   15   36 1
    22   16   21 1
    23   17   18 1
    24   17   19 1
    25   17   37 1
    26   18   38 1
    27   19   20 1
    28   19   21 1
    29   19   39 1
    30   20   40 1
    31   21   22 1
    32   21   41 1
    33   22   23 ar
    34   22   31 ar
    35   23   24 ar
    36   23   42 1
    37   24   25 ar
    38   25   26 ar
    39   25   31 ar
    40   26   27 2
    41   26   28 ar
    42   27   43 1
    43   28   29 ar
    44   28   45 1
    45   29   30 ar
    46   29   44 1
    47   30   31 ar
@<TRIPOS>SUBSTRUCTURE
     1 ATP         1 GROUP 0 A     ****
@<TRIPOS>MOLECULE
[[[3,4-dihydroxy-5-(6-imino-1~{H}-purin-9-yl)tetrahydrofuran-2-yl]methoxy-oxido-phosphoryl]oxy-hydroxy-phosphoryl] hydrogen phosphate
   45    47     1     0     0
SMALL
USER_CHARGES

@<TRIPOS>ATOM
      1 PG          2.5795    3.8335   -3.6908 P.3       1 ATP         1.5496
      2 O1G         3.4006    2.6380   -4.1202 O.co2     1 ATP        -0.8494
      3 O2G         3.1175    5.2392   -3.8391 O.co2     1 ATP        -0.8494
      4 O3G         1.1247    3.7547   -4.4280 O.3       1 ATP        -0.7845
      5 PB          2.9368    3.5542   -0.7767 P.3       1 ATP         1.9068
      6 O1B         3.9725    2.4711   -0.7089 O.2       1 ATP        -0.8942
      7 O2B         3.5067    5.0584   -0.6152 O.3       1 ATP        -0.8166
      8 O3B         2.0885    3.6115   -2.1514 O.3       1 ATP        -0.8194
      9 PA          0.4656    4.4360    0.5711 P.3       1 ATP         1.5903
     10 O1A        -0.4569    4.3401   -0.6246 O.co2     1 ATP        -0.8519
     11 O2A         0.9689    5.7789    1.0538 O.co2     1 ATP        -0.8519
     12 O3A         1.7547    3.4656    0.3206 O.3       1 ATP        -0.8093
     13 O5'        -0.2061    3.6558    1.8418 O.3       1 ATP        -0.5649
     14 C5'        -0.8811    2.4285    1.6206 C.3       1 ATP         0.1979
     15 C4'        -0.1994    1.3333    2.4288 C.3       1 ATP         0.1179
     16 O4'        -1.1285    0.2356    2.5840 O.3       1 ATP        -0.3878
     17 C3'         1.0324    0.7610    1.7344 C.3       1 ATP         0.1185
     18 O3'         1.9175    0.2377    2.7247 O.3       1 ATP        -0.5544
     19 C2'         0.4468   -0.3802    0.9263 C.3       1 ATP         0.0542
     20 O2'         1.3993   -1.3703    0.5961 O.3       1 ATP        -0.5831
     21 C1'        -0.6159   -0.9100    1.8769 C.3       1 ATP         0.2222
     22 N9         -1.7127   -1.6108    1.2130 N.pl3     1 ATP        -0.1887
     23 C8         -2.5485   -1.0808    0.2609 C.ar      1 ATP         0.4447
     24 N7         -3.4476   -1.9486   -0.1593 N.2       1 ATP        -0.6159
     25 C5         -3.1762   -3.0816    0.5530 C.ar      1 ATP         0.2195
     26 C6         -3.8510   -4.3579    0.5006 C.ar      1 ATP         0.6144
     27 N6         -4.8468   -4.5293   -0.2961 N.2       1 ATP        -0.8160
     28 N1         -3.2499   -5.2342    1.3937 N.pl3     1 ATP        -0.8611
     29 C2         -2.1646   -4.9275    2.2116 C.ar      1 ATP         0.6141
     30 N3         -1.5382   -3.7840    2.2778 N.2       1 ATP        -0.5913
     31 C4         -2.1054   -2.9018    1.4120 C.ar      1 ATP         0.0067
     32 HOG3        0.4722    4.4653   -4.2500 H         1 ATP         0.4313
     33 HOB2        4.1658    5.3882   -1.2626 H         1 ATP         0.4716
     34 H5'1       -1.9255    2.5382    1.9293 H         1 ATP         0.0452
     35 H5'2       -0.8473    2.1932    0.5521 H         1 ATP         0.0452
     36 H4'         0.0403    1.7078    3.4343 H         1 ATP         0.0998
     37 H3'         1.5906    1.4859    1.1353 H         1 ATP         0.0544
     38 HO3'        2.6839   -0.1150    2.2479 H         1 ATP         0.3961
     39 H2'        -0.0017    0.0018    0.0005 H         1 ATP         0.0499
     40 HO2'        0.9369   -2.0558    0.0825 H         1 ATP         0.4045
     41 H1'        -0.1998   -1.6319    2.6178 H         1 ATP         0.0912
     42 H8         -2.4515   -0.0599   -0.0829 H         1 ATP         0.1090
     43 HN62       -5.1990   -5.4882   -0.2004 H         1 ATP         0.3694
     44 H2         -1.8555   -5.7783    2.8388 H         1 ATP         0.0371
     45 H45        -3.6312   -6.1750    1.4526 H         1 ATP         0.4283
@<TRIPOS>BOND
     1    1    2 2
     2    1    3 1
     3    1    4 1
     4    1    8 1
     5    4   32 1
     6    5    6 2
     7    5    7 1
     8    5    8 1
     9    5   12 1
    10    7   33 1
    11    9   10 2
    12    9   11 1
    13    9   12 1
    14    9   13 1
    15   13   14 1
    16   14   15 1
    17   14   34 1
    18   14   35 1
    19   15   16 1
    20   15   17 1
    21   15   36 1
    22   16   21 1
    23   17   18 1
    24   17   19 1
    25   17   37 1
    26   18   38 1
    27   19   20 1
    28   19   21 1
    29   19   39 1
    30   20   40 1
    31   21   22 1
    32   21   41 1
    33   22   23 ar
    34   22   31 ar
    35   23   24 ar
    36   23   42 1
    37   24   25 ar
    38   25   26 ar
    39   25   31 ar
    40   26   27 2
    41   26   28 ar
    42   27   43 1
    43   28   29 ar
    44   28   45 1
    45   29   30 ar
    46   29   44 1
    47   30   31 ar
@<TRIPOS>SUBSTRUCTURE
     1 ATP         1 GROUP 0 A     ****
@<TRIPOS>MOLECULE
[[[3,4-dihydroxy-5-(6-imino-1~{H}-purin-9-yl)tetrahydrofuran-2-yl]methoxy-oxido-phosphoryl]oxy-hydroxy-phosphoryl] hydrogen phosphate
   45    47     1     0     0
SMALL
USER_CHARGES

@<TRIPOS>ATOM
      1 PG         -5.8118   -1.5389    2.2623 P.3       1 ATP         1.5496
      2 O1G        -5.2857   -2.8178    2.8749 O.co2     1 ATP        -0.8494
      3 O2G        -6.2264   -1.4869    0.8088 O.co2     1 ATP        -0.8494
      4 O3G        -7.0536   -0.9996    3.1752 O.3       1 ATP        -0.7845
      5 PB         -4.0972    0.1725    3.9444 P.3       1 ATP         1.9068
      6 O1B        -5.0776    0.6515    4.9738 O.2       1 ATP        -0.8942
      7 O2B        -3.1673   -1.0661    4.4077 O.3       1 ATP        -0.8166
      8 O3B        -4.7494   -0.3367    2.5558 O.3       1 ATP        -0.8194
      9 PA         -3.2889    2.7003    2.6568 P.3       1 ATP         1.5903
     10 O1A        -3.9939    3.6416    3.6091 O.co2     1 ATP        -0.8519
     11 O2A        -3.8600    2.4177    1.2843 O.co2     1 ATP        -0.8519
     12 O3A        -3.0422    1.2742    3.4127 O.3       1 ATP        -0.8093
     13 O5'        -1.7337    3.1724    2.4752 O.3       1 ATP        -0.5649
     14 C5'        -0.8811    2.4285    1.6206 C.3       1 ATP         0.1979
     15 C4'        -0.1994    1.3333    2.4288 C.3       1 ATP         0.1179
     16 O4'        -1.1285    0.2356    2.5840 O.3       1 ATP        -0.3878
     17 C3'         1.0324    0.7610    1.7344 C.3       1 ATP         0.1185
     18 O3'         1.9175    0.2377    2.7247 O.3       1 ATP        -0.5544
     19 C2'         0.4468   -0.3802    0.9263 C.3       1 ATP         0.0542
     20 O2'         1.3993   -1.3703    0.5961 O.3       1 ATP        -0.5831
     21 C1'        -0.6159   -0.9100    1.8769 C.3       1 ATP         0.2222
     22 N9         -1.7127   -1.6108    1.2130 N.pl3     1 ATP        -0.1887
     23 C8         -2.5485   -1.0808    0.2609 C.ar      1 ATP         0.4447
     24 N7         -3.4476   -1.9486   -0.1593 N.2       1 ATP        -0.6159
     25 C5         -3.1762   -3.0816    0.5530 C.ar      1 ATP         0.2195
     26 C6         -3.8510   -4.3579    0.5006 C.ar      1 ATP         0.6144
     27 N6         -4.8468   -4.5293   -0.2961 N.2       1 ATP        -0.8160
     28 N1         -3.2499   -5.2342    1.3937 N.pl3     1 ATP        -0.8611
     29 C2         -2.1646   -4.9275    2.2116 C.ar      1 ATP         0.6141
     30 N3         -1.5382   -3.7840    2.2778 N.2       1 ATP        -0.5913
     31 C4         -2.1054   -2.9018    1.4120 C.ar      1 ATP         0.0067
     32 HOG3       -7.5054   -0.1715    2.9062 H         1 ATP         0.4313
     33 HOB2       -3.5952   -1.9101    4.6663 H         1 ATP         0.4716
     34 H5'1       -1.4801    1.9928    0.8147 H         1 ATP         0.0452
     35 H5'2       -0.1369    3.1041    1.1872 H         1 ATP         0.0452
     36 H4'         0.0403    1.7078    3.4343 H         1 ATP         0.0998
     37 H3'         1.5906    1.4859    1.1353 H         1 ATP         0.0544
     38 HO3'        1.4256   -0.4528    3.1940 H         1 ATP         0.3961
     39 H2'        -0.0017    0.0018    0.0005 H         1 ATP         0.0499
     40 HO2'        2.0953   -0.9375    0.0709 H         1 ATP         0.4045
     41 H1'        -0.1998   -1.6319    2.6178 H         1 ATP         0.0912
     42 H8         -2.4515   -0.0599   -0.0829 H         1 ATP         0.1090
     43 HN62       -5.1990   -5.4882   -0.2004 H         1 ATP         0.3694
     44 H2         -1.8555   -5.7783    2.8388 H         1 ATP         0.0371
     45 H45        -3.6312   -6.1750    1.4526 H         1 ATP         0.4283
@<TRIPOS>BOND
     1    1    2 2
     2    1    3 1
     3    1    4 1
     4    1    8 1
     5    4   32 1
     6    5    6 2
     7    5    7 1
     8    5    8 1
     9    5   12 1
    10    7   33 1
    11    9   10 2
    12    9   11 1
    13    9   12 1
    14    9   13 1
    15   13   14 1
    16   14   15 1
    17   14   34 1
    18   14   35 1
    19   15   16 1
    20   15   17 1
    21   15   36 1
    22   16   21 1
    23   17   18 1
    24   17   19 1
    25   17   37 1
    26   18   38 1
    27   19   20 1
    28   19   21 1
    29   19   39 1
    30   20   40 1
    31   21   22 1
    32   21   41 1
    33   22   23 ar
    34   22   31 ar
    35   23   24 ar
    36   23   42 1
    37   24   25 ar
    38   25   26 ar
    39   25   31 ar
    40   26   27 2
    41   26   28 ar
    42   27   43 1
    43   28   29 ar
    44   28   45 1
    45   29   30 ar
    46   29   44 1
    47   30   31 ar
@<TRIPOS>SUBSTRUCTURE
     1 ATP         1 GROUP 0 A     ****
@<TRIPOS>MOLECULE
[[[3,4-dihydroxy-5-(6-imino-1~{H}-purin-9-yl)tetrahydrofuran-2-yl]methoxy-oxido-phosphoryl]oxy-hydroxy-phosphoryl] hydrogen phosphate
   45    47     1     0     0
SMALL
USER_CHARGES

@<TRIPOS>ATOM
      1 PG         -5.3611    5.3560   -1.9465 P.3       1 ATP         1.5496
      2 O1G        -4.1970    5.9775   -2.6857 O.co2     1 ATP        -0.8494
      3 O2G        -6.4436    6.2183   -1.3365 O.co2     1 ATP        -0.8494
      4 O3G        -6.0656    4.2530   -2.9228 O.3       1 ATP        -0.7845
      5 PB         -3.9406    4.6475    0.5391 P.3       1 ATP         1.9068
      6 O1B        -2.6191    5.3252    0.3272 O.2       1 ATP        -0.8942
      7 O2B        -4.9851    5.4582    1.4694 O.3       1 ATP        -0.8166
      8 O3B        -4.7827    4.3430   -0.8066 O.3       1 ATP        -0.8194
      9 PA         -3.2889    2.7003    2.6568 P.3       1 ATP         1.5903
     10 O1A        -3.3521    1.1903    2.7325 O.co2     1 ATP        -0.8519
     11 O2A        -3.9194    3.5557    3.7341 O.co2     1 ATP        -0.8519
     12 O3A        -3.8778    3.1801    1.2115 O.3       1 ATP        -0.8093
     13 O5'        -1.7337    3.1724    2.4752 O.3       1 ATP        -0.5649
     14 C5'        -0.8811    2.4285    1.6206 C.3       1 ATP         0.1979
     15 C4'        -0.1994    1.3333    2.4288 C.3       1 ATP         0.1179
     16 O4'        -1.1285    0.2356    2.5840 O.3       1 ATP        -0.3878
     17 C3'         1.0324    0.7610    1.7344 C.3       1 ATP         0.1185
     18 O3'         1.9175    0.2377    2.7247 O.3       1 ATP        -0.5544
     19 C2'         0.4468   -0.3802    0.9263 C.3       1 ATP         0.0542
     20 O2'         1.3993   -1.3703    0.5961 O.3       1 ATP        -0.5831
     21 C1'        -0.6159   -0.9100    1.8769 C.3       1 ATP         0.2222
     22 N9         -1.7127   -1.6108    1.2130 N.pl3     1 ATP        -0.1887
     23 C8         -2.0868   -2.9137    1.4327 C.ar      1 ATP         0.4447
     24 N7         -3.1125   -3.2756    0.6878 N.2       1 ATP        -0.6159
     25 C5         -3.4079   -2.1580   -0.0391 C.ar      1 ATP         0.2195
     26 C6         -4.4483   -1.9775   -1.0249 C.ar      1 ATP         0.6144
     27 N6         -5.2418   -2.9492   -1.3113 N.2       1 ATP        -0.8160
     28 N1         -4.3937   -0.6823   -1.5211 N.pl3     1 ATP        -0.8611
     29 C2         -3.4770    0.2901   -1.1271 C.ar      1 ATP         0.6141
     30 N3         -2.5289    0.1525   -0.2403 N.2       1 ATP        -0.5913
     31 C4         -2.5564   -1.1096    0.2655 C.ar      1 ATP         0.0067
     32 HOG3       -6.8425    3.7589   -2.5846 H         1 ATP         0.4313
     33 HOB2       -4.7324    5.6698    2.3933 H         1 ATP         0.4716
     34 H5'1       -1.4801    1.9928    0.8147 H         1 ATP         0.0452
     35 H5'2       -0.1369    3.1041    1.1872 H         1 ATP         0.0452
     36 H4'         0.0403    1.7078    3.4343 H         1 ATP         0.0998
     37 H3'         1.5906    1.4859    1.1353 H         1 ATP         0.0544
     38 HO3'        2.6839   -0.1150    2.2479 H         1 ATP         0.3961
     39 H2'        -0.0017    0.0018    0.0005 H         1 ATP         0.0499
     40 HO2'        2.0953   -0.9375    0.0709 H         1 ATP         0.4045
     41 H1'        -0.1998   -1.6319    2.6178 H         1 ATP         0.0912
     42 H8         -1.5740   -3.5449    2.1457 H         1 ATP         0.1090
     43 HN62       -5.9117   -2.6433   -2.0256 H         1 ATP         0.3694
     44 H2         -3.6225    1.2454   -1.6553 H         1 ATP         0.0371
     45 H45        -5.0794   -0.4231   -2.2258 H         1 ATP         0.4283
@<TRIPOS>BOND
     1    1    2 2
     2    1    3 1
     3    1    4 1
     4    1    8 1
     5    4   32 1
     6    5    6 2
     7    5    7 1
     8    5    8 1
     9    5   12 1
    10    7   33 1
    11    9   10 2
    12    9   11 1
    13    9   12 1
    14    9   13 1
    15   13   14 1
    16   14   15 1
    17   14   34 1
    18   14   35 1
    19   15   16 1
    20   15   17 1
    21   15   36 1
    22   16   21 1
    23   17   18 1
    24   17   19 1
    25   17   37 1
    26   18   38 1
    27   19   20 1
    28   19   21 1
    29   19   39 1
    30   20   40 1
    31   21   22 1
    32   21   41 1
    33   22   23 ar
    34   22   31 ar
    35   23   24 ar
    36   23   42 1
    37   24   25 ar
    38   25   26 ar
    39   25   31 ar
    40   26   27 2
    41   26   28 ar
    42   27   43 1
    43   28   29 ar
    44   28   45 1
    45   29   30 ar
    46   29   44 1
    47   30   31 ar
@<TRIPOS>SUBSTRUCTURE
     1 ATP         1 GROUP 0 A     ****
@<TRIPOS>MOLECULE
[[[3,4-dihydroxy-5-(6-imino-1~{H}-purin-9-yl)tetrahydrofuran-2-yl]methoxy-oxido-phosphoryl]oxy-hydroxy-phosphoryl] hydrogen phosphate
   45    47     1     0     0
SMALL
USER_CHARGES

@<TRIPOS>ATOM
      1 PG         -4.3161    3.5637   -2.1103 P.3       1 ATP         1.5496
      2 O1G        -4.2404    3.0890   -3.5444 O.co2     1 ATP        -0.8494
      3 O2G        -3.1483    4.2760   -1.4650 O.co2     1 ATP        -0.8494
      4 O3G        -5.6477    4.4934   -1.9416 O.3       1 ATP        -0.7845
      5 PB         -5.1473    2.2708    0.4067 P.3       1 ATP         1.9068
      6 O1B        -6.3150    3.1241    0.8051 O.2       1 ATP        -0.8942
      7 O2B        -5.3140    0.6930    0.7170 O.3       1 ATP        -0.8166
      8 O3B        -4.7659    2.3142   -1.1635 O.3       1 ATP        -0.8194
      9 PA         -3.2889    2.7003    2.6568 P.3       1 ATP         1.5903
     10 O1A        -3.3273    1.2948    3.2162 O.co2     1 ATP        -0.8519
     11 O2A        -4.0474    3.8223    3.3318 O.co2     1 ATP        -0.8519
     12 O3A        -3.7328    2.6541    1.0862 O.3       1 ATP        -0.8093
     13 O5'        -1.7337    3.1724    2.4752 O.3       1 ATP        -0.5649
     14 C5'        -0.8811    2.4285    1.6206 C.3       1 ATP         0.1979
     15 C4'        -0.1994    1.3333    2.4288 C.3       1 ATP         0.1179
     16 O4'        -1.1285    0.2356    2.5840 O.3       1 ATP        -0.3878
     17 C3'         1.0324    0.7610    1.7344 C.3       1 ATP         0.1185
     18 O3'         1.9175    0.2377    2.7247 O.3       1 ATP        -0.5544
     19 C2'         0.4468   -0.3802    0.9263 C.3       1 ATP         0.0542
     20 O2'         1.3993   -1.3703    0.5961 O.3       1 ATP        -0.5831
     21 C1'        -0.6159   -0.9100    1.8769 C.3       1 ATP         0.2222
     22 N9         -1.7127   -1.6108    1.2130 N.pl3     1 ATP        -0.1887
     23 C8         -2.8662   -1.0361    0.7388 C.ar      1 ATP         0.4447
     24 N7         -3.6774   -1.9166    0.1867 N.2       1 ATP        -0.6159
     25 C5         -3.0159   -3.1045    0.3123 C.ar      1 ATP         0.2195
     26 C6         -3.4377   -4.4169   -0.1199 C.ar      1 ATP         0.6144
     27 N6         -4.5720   -4.5691   -0.7080 N.2       1 ATP        -0.8160
     28 N1         -2.4600   -5.3463    0.2071 N.pl3     1 ATP        -0.8611
     29 C2         -1.2595   -5.0554    0.8515 C.ar      1 ATP         0.6141
     30 N3         -0.8555   -3.8803    1.2516 N.2       1 ATP        -0.5913
     31 C4         -1.7946   -2.9457    0.9448 C.ar      1 ATP         0.0067
     32 HOG3       -5.8384    4.8802   -1.0606 H         1 ATP         0.4313
     33 HOB2       -5.4501    0.4035    1.6444 H         1 ATP         0.4716
     34 H5'1       -1.4801    1.9928    0.8147 H         1 ATP         0.0452
     35 H5'2       -0.1369    3.1041    1.1872 H         1 ATP         0.0452
     36 H4'         0.0403    1.7078    3.4343 H         1 ATP         0.0998
     37 H3'         1.5906    1.4859    1.1353 H         1 ATP         0.0544
     38 HO3'        2.1521    0.9800    3.3017 H         1 ATP         0.3961
     39 H2'        -0.0017    0.0018    0.0005 H         1 ATP         0.0499
     40 HO2'        0.9369   -2.0558    0.0825 H         1 ATP         0.4045
     41 H1'        -0.1998   -1.6319    2.6178 H         1 ATP         0.0912
     42 H8         -3.0558    0.0252    0.8256 H         1 ATP         0.1090
     43 HN62       -4.7047   -5.5592   -0.9421 H         1 ATP         0.3694
     44 H2         -0.6372   -5.9505    1.0077 H         1 ATP         0.0371
     45 H45        -2.6338   -6.3155   -0.0469 H         1 ATP         0.4283
@<TRIPOS>BOND
     1    1    2 2
     2    1    3 1
     3    1    4 1
     4    1    8 1
     5    4   32 1
     6    5    6 2
     7    5    7 1
     8    5    8 1
     9    5   12 1
    10    7   33 1
    11    9   10 2
    12    9   11 1
    13    9   12 1
    14    9   13 1
    15   13   14 1
    16   14   15 1
    17   14   34 1
    18   14   35 1
    19   15   16 1
    20   15   17 1
    21   15   36 1
    22   16   21 1
    23   17   18 1
    24   17   19 1
    25   17   37 1
    26   18   38 1
    27   19   20 1
    28   19   21 1
    29   19   39 1
    30   20   40 1
    31   21   22 1
    32   21   41 1
    33   22   23 ar
    34   22   31 ar
    35   23   24 ar
    36   23   42 1
    37   24   25 ar
    38   25   26 ar
    39   25   31 ar
    40   26   27 2
    41   26   28 ar
    42   27   43 1
    43   28   29 ar
    44   28   45 1
    45   29   30 ar
    46   29   44 1
    47   30   31 ar
@<TRIPOS>SUBSTRUCTURE
     1 ATP         1 GROUP 0 A     ****
@<TRIPOS>MOLECULE
[[[3,4-dihydroxy-5-(6-imino-1~{H}-purin-9-yl)tetrahydrofuran-2-yl]methoxy-oxido-phosphoryl]oxy-hydroxy-phosphoryl] hydrogen phosphate
   45    47     1     0     0
SMALL
USER_CHARGES

@<TRIPOS>ATOM
      1 PG         -0.5084    6.0263   -2.2654 P.3       1 ATP         1.5496
      2 O1G        -0.7659    5.5774   -3.6866 O.co2     1 ATP        -0.8494
      3 O2G        -0.4551    7.4959   -1.9124 O.co2     1 ATP        -0.8494
      4 O3G        -1.5933    5.2971   -1.2869 O.3       1 ATP        -0.7845
      5 PB          2.3864    5.4693   -2.1750 P.3       1 ATP         1.9068
      6 O1B         2.6686    5.1403   -3.6111 O.2       1 ATP        -0.8942
      7 O2B         2.7513    6.9812   -1.7337 O.3       1 ATP        -0.8166
      8 O3B         0.8451    5.2986   -1.7188 O.3       1 ATP        -0.8194
      9 PA          4.7365    4.3145   -0.8169 P.3       1 ATP         1.5903
     10 O1A         5.3511    5.6145   -0.3453 O.co2     1 ATP        -0.8519
     11 O2A         5.3107    3.5739   -2.0050 O.co2     1 ATP        -0.8519
     12 O3A         3.1429    4.5513   -1.0821 O.3       1 ATP        -0.8093
     13 O5'         4.6405    3.2701    0.4379 O.3       1 ATP        -0.5649
     14 C5'         4.0922    1.9801    0.2227 C.3       1 ATP         0.1979
     15 C4'         2.5944    2.0310    0.4653 C.3       1 ATP         0.1179
     16 O4'         1.9327    2.5740   -0.6889 O.3       1 ATP        -0.3878
     17 C3'         1.9685    0.6634    0.6767 C.3       1 ATP         0.1185
     18 O3'         2.1425    0.1975    1.9977 O.3       1 ATP        -0.5544
     19 C2'         0.5176    0.9128    0.3099 C.3       1 ATP         0.0542
     20 O2'        -0.2103    1.4454    1.4152 O.3       1 ATP        -0.5831
     21 C1'         0.6219    1.9765   -0.7844 C.3       1 ATP         0.2222
     22 N9          0.4237    1.4496   -2.1357 N.pl3     1 ATP        -0.1887
     23 C8          1.4069    0.9710   -2.9662 C.ar      1 ATP         0.4447
     24 N7          0.9316    0.5623   -4.1260 N.2       1 ATP        -0.6159
     25 C5         -0.4120    0.7884   -4.0344 C.ar      1 ATP         0.2195
     26 C6         -1.4353    0.5283   -5.0204 C.ar      1 ATP         0.6144
     27 N6         -1.1199    0.0176   -6.1586 N.2       1 ATP        -0.8160
     28 N1         -2.6704    0.9095   -4.5147 N.pl3     1 ATP        -0.8611
     29 C2         -2.8863    1.4571   -3.2520 C.ar      1 ATP         0.6141
     30 N3         -1.9805    1.7017   -2.3442 N.2       1 ATP        -0.5913
     31 C4         -0.7561    1.3381   -2.8112 C.ar      1 ATP         0.0067
     32 HOG3       -1.5566    5.4876   -0.3254 H         1 ATP         0.4313
     33 HOB2        3.6787    7.2894   -1.8181 H         1 ATP         0.4716
     34 H5'1        4.3029    1.6730   -0.8066 H         1 ATP         0.0452
     35 H5'2        4.5678    1.2739    0.9106 H         1 ATP         0.0452
     36 H4'         2.3751    2.7029    1.3156 H         1 ATP         0.0998
     37 H3'         2.4336   -0.1217   -0.0015 H         1 ATP         0.0544
     38 HO3'        3.0987    0.1465    2.1461 H         1 ATP         0.3961
     39 H2'         0.0316    0.0155   -0.0339 H         1 ATP         0.0499
     40 HO2'       -0.1608    0.7921    2.1351 H         1 ATP         0.4045
     41 H1'        -0.1474    2.7798   -0.6651 H         1 ATP         0.0912
     42 H8          2.4466    0.9468   -2.6694 H         1 ATP         0.1090
     43 HN62       -1.9661   -0.0965   -6.7275 H         1 ATP         0.3694
     44 H2         -3.9481    1.6825   -3.0660 H         1 ATP         0.0371
     45 H45        -3.4814    0.7753   -5.1133 H         1 ATP         0.4283
@<TRIPOS>BOND
     1    1    2 2
     2    1    3 1
     3    1    4 1
     4    1    8 1
     5    4   32 1
     6    5    6 2
     7    5    7 1
     8    5    8 1
     9    5   12 1
    10    7   33 1
    11    9   10 2
    12    9   11 1
    13    9   12 1
    14    9   13 1
    15   13   14 1
    16   14   15 1
    17   14   34 1
    18   14   35 1
    19   15   16 1
    20   15   17 1
    21   15   36 1
    22   16   21 1
    23   17   18 1
    24   17   19 1
    25   17   37 1
    26   18   38 1
    27   19   20 1
    28   19   21 1
    29   19   39 1
    30   20   40 1
    31   21   22 1
    32   21   41 1
    33   22   23 ar
    34   22   31 ar
    35   23   24 ar
    36   23   42 1
    37   24   25 ar
    38   25   26 ar
    39   25   31 ar
    40   26   27 2
    41   26   28 ar
    42   27   43 1
    43   28   29 ar
    44   28   45 1
    45   29   30 ar
    46   29   44 1
    47   30   31 ar
@<TRIPOS>SUBSTRUCTURE
     1 ATP         1 GROUP 0 A     ****
@<TRIPOS>MOLECULE
[[[3,4-dihydroxy-5-(6-imino-1~{H}-purin-9-yl)tetrahydrofuran-2-yl]methoxy-oxido-phosphoryl]oxy-hydroxy-phosphoryl] hydrogen phosphate
   45    47     1     0     0
SMALL
USER_CHARGES

@<TRIPOS>ATOM
      1 PG          5.0442    5.6142   -0.8919 P.3       1 ATP         1.5496
      2 O1G         6.1626    4.5971   -0.8440 O.co2     1 ATP        -0.8494
      3 O2G         5.2039    6.9753   -0.2521 O.co2     1 ATP        -0.8494
      4 O3G         4.5993    5.8223   -2.4491 O.3       1 ATP        -0.7845
      5 PB          2.9368    3.5542   -0.7767 P.3       1 ATP         1.9068
      6 O1B         2.5013    3.4971   -2.2110 O.2       1 ATP        -0.8942
      7 O2B         3.9724    2.3965   -0.3284 O.3       1 ATP        -0.8166
      8 O3B         3.6765    4.9218   -0.3349 O.3       1 ATP        -0.8194
      9 PA          0.4656    4.4360    0.5711 P.3       1 ATP         1.5903
     10 O1A        -0.4569    4.3401   -0.6246 O.co2     1 ATP        -0.8519
     11 O2A         0.9689    5.7789    1.0538 O.co2     1 ATP        -0.8519
     12 O3A         1.7547    3.4656    0.3206 O.3       1 ATP        -0.8093
     13 O5'        -0.2061    3.6558    1.8418 O.3       1 ATP        -0.5649
     14 C5'        -0.8811    2.4285    1.6206 C.3       1 ATP         0.1979
     15 C4'        -0.1994    1.3333    2.4288 C.3       1 ATP         0.1179
     16 O4'        -1.1285    0.2356    2.5840 O.3       1 ATP        -0.3878
     17 C3'         1.0324    0.7610    1.7344 C.3       1 ATP         0.1185
     18 O3'         1.9175    0.2377    2.7247 O.3       1 ATP        -0.5544
     19 C2'         0.4468   -0.3802    0.9263 C.3       1 ATP         0.0542
     20 O2'         1.3993   -1.3703    0.5961 O.3       1 ATP        -0.5831
     21 C1'        -0.6159   -0.9100    1.8769 C.3       1 ATP         0.2222
     22 N9         -1.7127   -1.6108    1.2130 N.pl3     1 ATP        -0.1887
     23 C8         -2.5485   -1.0808    0.2609 C.ar      1 ATP         0.4447
     24 N7         -3.4476   -1.9486   -0.1593 N.2       1 ATP        -0.6159
     25 C5         -3.1762   -3.0816    0.5530 C.ar      1 ATP         0.2195
     26 C6         -3.8510   -4.3579    0.5006 C.ar      1 ATP         0.6144
     27 N6         -4.8468   -4.5293   -0.2961 N.2       1 ATP        -0.8160
     28 N1         -3.2499   -5.2342    1.3937 N.pl3     1 ATP        -0.8611
     29 C2         -2.1646   -4.9275    2.2116 C.ar      1 ATP         0.6141
     30 N3         -1.5382   -3.7840    2.2778 N.2       1 ATP        -0.5913
     31 C4         -2.1054   -2.9018    1.4120 C.ar      1 ATP         0.0067
     32 HOG3        3.8781    6.4568   -2.6476 H         1 ATP         0.4313
     33 HOB2        4.8382    2.3315   -0.7849 H         1 ATP         0.4716
     34 H5'1       -1.9255    2.5382    1.9293 H         1 ATP         0.0452
     35 H5'2       -0.8473    2.1932    0.5521 H         1 ATP         0.0452
     36 H4'         0.0403    1.7078    3.4343 H         1 ATP         0.0998
     37 H3'         1.5906    1.4859    1.1353 H         1 ATP         0.0544
     38 HO3'        2.1521    0.9800    3.3017 H         1 ATP         0.3961
     39 H2'        -0.0017    0.0018    0.0005 H         1 ATP         0.0499
     40 HO2'        2.0953   -0.9375    0.0709 H         1 ATP         0.4045
     41 H1'        -0.1998   -1.6319    2.6178 H         1 ATP         0.0912
     42 H8         -2.4515   -0.0599   -0.0829 H         1 ATP         0.1090
     43 HN62       -5.1990   -5.4882   -0.2004 H         1 ATP         0.3694
     44 H2         -1.8555   -5.7783    2.8388 H         1 ATP         0.0371
     45 H45        -3.6312   -6.1750    1.4526 H         1 ATP         0.4283
@<TRIPOS>BOND
     1    1    2 2
     2    1    3 1
     3    1    4 1
     4    1    8 1
     5    4   32 1
     6    5    6 2
     7    5    7 1
     8    5    8 1
     9    5   12 1
    10    7   33 1
    11    9   10 2
    12    9   11 1
    13    9   12 1
    14    9   13 1
    15   13   14 1
    16   14   15 1
    17   14   34 1
    18   14   35 1
    19   15   16 1
    20   15   17 1
    21   15   36 1
    22   16   21 1
    23   17   18 1
    24   17   19 1
    25   17   37 1
    26   18   38 1
    27   19   20 1
    28   19   21 1
    29   19   39 1
    30   20   40 1
    31   21   22 1
    32   21   41 1
    33   22   23 ar
    34   22   31 ar
    35   23   24 ar
    36   23   42 1
    37   24   25 ar
    38   25   26 ar
    39   25   31 ar
    40   26   27 2
    41   26   28 ar
    42   27   43 1
    43   28   29 ar
    44   28   45 1
    45   29   30 ar
    46   29   44 1
    47   30   31 ar
@<TRIPOS>SUBSTRUCTURE
     1 ATP         1 GROUP 0 A     ****
@<TRIPOS>MOLECULE
[[[3,4-dihydroxy-5-(6-imino-1~{H}-purin-9-yl)tetrahydrofuran-2-yl]methoxy-oxido-phosphoryl]oxy-hydroxy-phosphoryl] hydrogen phosphate
   45    47     1     0     0
SMALL
USER_CHARGES

@<TRIPOS>ATOM
      1 PG         -4.7034    5.0977   -1.4392 P.3       1 ATP         1.5496
      2 O1G        -3.2873    5.3883   -0.9943 O.co2     1 ATP        -0.8494
      3 O2G        -5.8244    6.0701   -1.1476 O.co2     1 ATP        -0.8494
      4 O3G        -4.6897    4.7880   -3.0424 O.3       1 ATP        -0.7845
      5 PB         -5.3678    3.0705    0.5972 P.3       1 ATP         1.9068
      6 O1B        -6.4455    3.7713    1.3705 O.2       1 ATP        -0.8942
      7 O2B        -5.5909    1.4820    0.3964 O.3       1 ATP        -0.8166
      8 O3B        -5.1313    3.6171   -0.9055 O.3       1 ATP        -0.8194
      9 PA         -3.2889    2.7003    2.6568 P.3       1 ATP         1.5903
     10 O1A        -3.3521    1.1903    2.7325 O.co2     1 ATP        -0.8519
     11 O2A        -3.9194    3.5557    3.7341 O.co2     1 ATP        -0.8519
     12 O3A        -3.8778    3.1801    1.2115 O.3       1 ATP        -0.8093
     13 O5'        -1.7337    3.1724    2.4752 O.3       1 ATP        -0.5649
     14 C5'        -0.8811    2.4285    1.6206 C.3       1 ATP         0.1979
     15 C4'        -0.1994    1.3333    2.4288 C.3       1 ATP         0.1179
     16 O4'        -1.1285    0.2356    2.5840 O.3       1 ATP        -0.3878
     17 C3'         1.0324    0.7610    1.7344 C.3       1 ATP         0.1185
     18 O3'         1.9175    0.2377    2.7247 O.3       1 ATP        -0.5544
     19 C2'         0.4468   -0.3802    0.9263 C.3       1 ATP         0.0542
     20 O2'         1.3993   -1.3703    0.5961 O.3       1 ATP        -0.5831
     21 C1'        -0.6159   -0.9100    1.8769 C.3       1 ATP         0.2222
     22 N9         -1.7127   -1.6108    1.2130 N.pl3     1 ATP        -0.1887
     23 C8         -2.0868   -2.9137    1.4327 C.ar      1 ATP         0.4447
     24 N7         -3.1125   -3.2756    0.6878 N.2       1 ATP        -0.6159
     25 C5         -3.4079   -2.1580   -0.0391 C.ar      1 ATP         0.2195
     26 C6         -4.4483   -1.9775   -1.0249 C.ar      1 ATP         0.6144
     27 N6         -5.2418   -2.9492   -1.3113 N.2       1 ATP        -0.8160
     28 N1         -4.3937   -0.6823   -1.5211 N.pl3     1 ATP        -0.8611
     29 C2         -3.4770    0.2901   -1.1271 C.ar      1 ATP         0.6141
     30 N3         -2.5289    0.1525   -0.2403 N.2       1 ATP        -0.5913
     31 C4         -2.5564   -1.1096    0.2655 C.ar      1 ATP         0.0067
     32 HOG3       -5.5400    4.5794   -3.4847 H         1 ATP         0.4313
     33 HOB2       -5.6564    0.9081    1.1893 H         1 ATP         0.4716
     34 H5'1       -1.4801    1.9928    0.8147 H         1 ATP         0.0452
     35 H5'2       -0.1369    3.1041    1.1872 H         1 ATP         0.0452
     36 H4'         0.0403    1.7078    3.4343 H         1 ATP         0.0998
     37 H3'         1.5906    1.4859    1.1353 H         1 ATP         0.0544
     38 HO3'        2.6839   -0.1150    2.2479 H         1 ATP         0.3961
     39 H2'        -0.0017    0.0018    0.0005 H         1 ATP         0.0499
     40 HO2'        2.0953   -0.9375    0.0709 H         1 ATP         0.4045
     41 H1'        -0.1998   -1.6319    2.6178 H         1 ATP         0.0912
     42 H8         -1.5740   -3.5449    2.1457 H         1 ATP         0.1090
     43 HN62       -5.9117   -2.6433   -2.0256 H         1 ATP         0.3694
     44 H2         -3.6225    1.2454   -1.6553 H         1 ATP         0.0371
     45 H45        -5.0794   -0.4231   -2.2258 H         1 ATP         0.4283
@<TRIPOS>BOND
     1    1    2 2
     2    1    3 1
     3    1    4 1
     4    1    8 1
     5    4   32 1
     6    5    6 2
     7    5    7 1
     8    5    8 1
     9    5   12 1
    10    7   33 1
    11    9   10 2
    12    9   11 1
    13    9   12 1
    14    9   13 1
    15   13   14 1
    16   14   15 1
    17   14   34 1
    18   14   35 1
    19   15   16 1
    20   15   17 1
    21   15   36 1
    22   16   21 1
    23   17   18 1
    24   17   19 1
    25   17   37 1
    26   18   38 1
    27   19   20 1
    28   19   21 1
    29   19   39 1
    30   20   40 1
    31   21   22 1
    32   21   41 1
    33   22   23 ar
    34   22   31 ar
    35   23   24 ar
    36   23   42 1
    37   24   25 ar
    38   25   26 ar
    39   25   31 ar
    40   26   27 2
    41   26   28 ar
    42   27   43 1
    43   28   29 ar
    44   28   45 1
    45   29   30 ar
    46   29   44 1
    47   30   31 ar
@<TRIPOS>SUBSTRUCTURE
     1 ATP         1 GROUP 0 A     ****
@<TRIPOS>MOLECULE
[[[3,4-dihydroxy-5-(6-imino-1~{H}-purin-9-yl)tetrahydrofuran-2-yl]methoxy-oxido-phosphoryl]oxy-hydroxy-phosphoryl] hydrogen phosphate
   45    47     1     0     0
SMALL
USER_CHARGES

@<TRIPOS>ATOM
      1 PG          2.5795    3.8335   -3.6908 P.3       1 ATP         1.5496
      2 O1G         3.4006    2.6380   -4.1202 O.co2     1 ATP        -0.8494
      3 O2G         3.1175    5.2392   -3.8391 O.co2     1 ATP        -0.8494
      4 O3G         1.1247    3.7547   -4.4280 O.3       1 ATP        -0.7845
      5 PB          2.9368    3.5542   -0.7767 P.3       1 ATP         1.9068
      6 O1B         3.9725    2.4711   -0.7089 O.2       1 ATP        -0.8942
      7 O2B         3.5067    5.0584   -0.6152 O.3       1 ATP        -0.8166
      8 O3B         2.0885    3.6115   -2.1514 O.3       1 ATP        -0.8194
      9 PA          0.4656    4.4360    0.5711 P.3       1 ATP         1.5903
     10 O1A        -0.4569    4.3401   -0.6246 O.co2     1 ATP        -0.8519
     11 O2A         0.9689    5.7789    1.0538 O.co2     1 ATP        -0.8519
     12 O3A         1.7547    3.4656    0.3206 O.3       1 ATP        -0.8093
     13 O5'        -0.2061    3.6558    1.8418 O.3       1 ATP        -0.5649
     14 C5'        -0.8811    2.4285    1.6206 C.3       1 ATP         0.1979
     15 C4'        -0.1994    1.3333    2.4288 C.3       1 ATP         0.1179
     16 O4'        -1.1285    0.2356    2.5840 O.3       1 ATP        -0.3878
     17 C3'         1.0324    0.7610    1.7344 C.3       1 ATP         0.1185
     18 O3'         1.9175    0.2377    2.7247 O.3       1 ATP        -0.5544
     19 C2'         0.4468   -0.3802    0.9263 C.3       1 ATP         0.0542
     20 O2'         1.3993   -1.3703    0.5961 O.3       1 ATP        -0.5831
     21 C1'        -0.6159   -0.9100    1.8769 C.3       1 ATP         0.2222
     22 N9         -1.7127   -1.6108    1.2130 N.pl3     1 ATP        -0.1887
     23 C8         -1.7690   -2.9583    0.9549 C.ar      1 ATP         0.4447
     24 N7         -2.8827   -3.3076    0.3418 N.2       1 ATP        -0.6159
     25 C5         -3.5683   -2.1351    0.2017 C.ar      1 ATP         0.2195
     26 C6         -4.8617   -1.9185   -0.4044 C.ar      1 ATP         0.6144
     27 N6         -5.5166   -2.9094   -0.8994 N.2       1 ATP        -0.8160
     28 N1         -5.1836   -0.5701   -0.3344 N.pl3     1 ATP        -0.8611
     29 C2         -4.3821    0.4180    0.2330 C.ar      1 ATP         0.6141
     30 N3         -3.2117    0.2488    0.7860 N.2       1 ATP        -0.5913
     31 C4         -2.8672   -1.0657    0.7327 C.ar      1 ATP         0.0067
     32 HOG3        0.4722    4.4653   -4.2500 H         1 ATP         0.4313
     33 HOB2        4.1658    5.3882   -1.2626 H         1 ATP         0.4716
     34 H5'1       -1.9255    2.5382    1.9293 H         1 ATP         0.0452
     35 H5'2       -0.8473    2.1932    0.5521 H         1 ATP         0.0452
     36 H4'         0.0403    1.7078    3.4343 H         1 ATP         0.0998
     37 H3'         1.5906    1.4859    1.1353 H         1 ATP         0.0544
     38 HO3'        2.1521    0.9800    3.3017 H         1 ATP         0.3961
     39 H2'        -0.0017    0.0018    0.0005 H         1 ATP         0.0499
     40 HO2'        0.9369   -2.0558    0.0825 H         1 ATP         0.4045
     41 H1'        -0.1998   -1.6319    2.6178 H         1 ATP         0.0912
     42 H8         -0.9697   -3.6300    1.2371 H         1 ATP         0.1090
     43 HN62       -6.4060   -2.5723   -1.2840 H         1 ATP         0.3694
     44 H2         -4.8409    1.4176    0.1757 H         1 ATP         0.0371
     45 H45        -6.0768   -0.2826   -0.7263 H         1 ATP         0.4283
@<TRIPOS>BOND
     1    1    2 2
     2    1    3 1
     3    1    4 1
     4    1    8 1
     5    4   32 1
     6    5    6 2
     7    5    7 1
     8    5    8 1
     9    5   12 1
    10    7   33 1
    11    9   10 2
    12    9   11 1
    13    9   12 1
    14    9   13 1
    15   13   14 1
    16   14   15 1
    17   14   34 1
    18   14   35 1
    19   15   16 1
    20   15   17 1
    21   15   36 1
    22   16   21 1
    23   17   18 1
    24   17   19 1
    25   17   37 1
    26   18   38 1
    27   19   20 1
    28   19   21 1
    29   19   39 1
    30   20   40 1
    31   21   22 1
    32   21   41 1
    33   22   23 ar
    34   22   31 ar
    35   23   24 ar
    36   23   42 1
    37   24   25 ar
    38   25   26 ar
    39   25   31 ar
    40   26   27 2
    41   26   28 ar
    42   27   43 1
    43   28   29 ar
    44   28   45 1
    45   29   30 ar
    46   29   44 1
    47   30   31 ar
@<TRIPOS>SUBSTRUCTURE
     1 ATP         1 GROUP 0 A     ****
@<TRIPOS>MOLECULE
[[[3,4-dihydroxy-5-(6-imino-1~{H}-purin-9-yl)tetrahydrofuran-2-yl]methoxy-oxido-phosphoryl]oxy-hydroxy-phosphoryl] hydrogen phosphate
   45    47     1     0     0
SMALL
USER_CHARGES

@<TRIPOS>ATOM
      1 PG          5.0442    5.6142   -0.8919 P.3       1 ATP         1.5496
      2 O1G         6.1626    4.5971   -0.8440 O.co2     1 ATP        -0.8494
      3 O2G         5.2039    6.9753   -0.2521 O.co2     1 ATP        -0.8494
      4 O3G         4.5993    5.8223   -2.4491 O.3       1 ATP        -0.7845
      5 PB          2.9368    3.5542   -0.7767 P.3       1 ATP         1.9068
      6 O1B         2.5013    3.4971   -2.2110 O.2       1 ATP        -0.8942
      7 O2B         3.9724    2.3965   -0.3284 O.3       1 ATP        -0.8166
      8 O3B         3.6765    4.9218   -0.3349 O.3       1 ATP        -0.8194
      9 PA          0.4656    4.4360    0.5711 P.3       1 ATP         1.5903
     10 O1A        -0.4569    4.3401   -0.6246 O.co2     1 ATP        -0.8519
     11 O2A         0.9689    5.7789    1.0538 O.co2     1 ATP        -0.8519
     12 O3A         1.7547    3.4656    0.3206 O.3       1 ATP        -0.8093
     13 O5'        -0.2061    3.6558    1.8418 O.3       1 ATP        -0.5649
     14 C5'        -0.8811    2.4285    1.6206 C.3       1 ATP         0.1979
     15 C4'        -0.1994    1.3333    2.4288 C.3       1 ATP         0.1179
     16 O4'        -1.1285    0.2356    2.5840 O.3       1 ATP        -0.3878
     17 C3'         1.0324    0.7610    1.7344 C.3       1 ATP         0.1185
     18 O3'         1.9175    0.2377    2.7247 O.3       1 ATP        -0.5544
     19 C2'         0.4468   -0.3802    0.9263 C.3       1 ATP         0.0542
     20 O2'         1.3993   -1.3703    0.5961 O.3       1 ATP        -0.5831
     21 C1'        -0.6159   -0.9100    1.8769 C.3       1 ATP         0.2222
     22 N9         -1.7127   -1.6108    1.2130 N.pl3     1 ATP        -0.1887
     23 C8         -2.0868   -2.9137    1.4327 C.ar      1 ATP         0.4447
     24 N7         -3.1125   -3.2756    0.6878 N.2       1 ATP        -0.6159
     25 C5         -3.4079   -2.1580   -0.0391 C.ar      1 ATP         0.2195
     26 C6         -4.4483   -1.9775   -1.0249 C.ar      1 ATP         0.6144
     27 N6         -5.2418   -2.9492   -1.3113 N.2       1 ATP        -0.8160
     28 N1         -4.3937   -0.6823   -1.5211 N.pl3     1 ATP        -0.8611
     29 C2         -3.4770    0.2901   -1.1271 C.ar      1 ATP         0.6141
     30 N3         -2.5289    0.1525   -0.2403 N.2       1 ATP        -0.5913
     31 C4         -2.5564   -1.1096    0.2655 C.ar      1 ATP         0.0067
     32 HOG3        3.8781    6.4568   -2.6476 H         1 ATP         0.4313
     33 HOB2        4.8382    2.3315   -0.7849 H         1 ATP         0.4716
     34 H5'1       -1.9255    2.5382    1.9293 H         1 ATP         0.0452
     35 H5'2       -0.8473    2.1932    0.5521 H         1 ATP         0.0452
     36 H4'         0.0403    1.7078    3.4343 H         1 ATP         0.0998
     37 H3'         1.5906    1.4859    1.1353 H         1 ATP         0.0544
     38 HO3'        2.1521    0.9800    3.3017 H         1 ATP         0.3961
     39 H2'        -0.0017    0.0018    0.0005 H         1 ATP         0.0499
     40 HO2'        0.9369   -2.0558    0.0825 H         1 ATP         0.4045
     41 H1'        -0.1998   -1.6319    2.6178 H         1 ATP         0.0912
     42 H8         -1.5740   -3.5449    2.1457 H         1 ATP         0.1090
     43 HN62       -5.9117   -2.6433   -2.0256 H         1 ATP         0.3694
     44 H2         -3.6225    1.2454   -1.6553 H         1 ATP         0.0371
     45 H45        -5.0794   -0.4231   -2.2258 H         1 ATP         0.4283
@<TRIPOS>BOND
     1    1    2 2
     2    1    3 1
     3    1    4 1
     4    1    8 1
     5    4   32 1
     6    5    6 2
     7    5    7 1
     8    5    8 1
     9    5   12 1
    10    7   33 1
    11    9   10 2
    12    9   11 1
    13    9   12 1
    14    9   13 1
    15   13   14 1
    16   14   15 1
    17   14   34 1
    18   14   35 1
    19   15   16 1
    20   15   17 1
    21   15   36 1
    22   16   21 1
    23   17   18 1
    24   17   19 1
    25   17   37 1
    26   18   38 1
    27   19   20 1
    28   19   21 1
    29   19   39 1
    30   20   40 1
    31   21   22 1
    32   21   41 1
    33   22   23 ar
    34   22   31 ar
    35   23   24 ar
    36   23   42 1
    37   24   25 ar
    38   25   26 ar
    39   25   31 ar
    40   26   27 2
    41   26   28 ar
    42   27   43 1
    43   28   29 ar
    44   28   45 1
    45   29   30 ar
    46   29   44 1
    47   30   31 ar
@<TRIPOS>SUBSTRUCTURE
     1 ATP         1 GROUP 0 A     ****
@<TRIPOS>MOLECULE
[[[3,4-dihydroxy-5-(6-imino-1~{H}-purin-9-yl)tetrahydrofuran-2-yl]methoxy-oxido-phosphoryl]oxy-hydroxy-phosphoryl] hydrogen phosphate
   45    47     1     0     0
SMALL
USER_CHARGES

@<TRIPOS>ATOM
      1 PG          7.8331    1.4333   -3.3930 P.3       1 ATP         1.5496
      2 O1G         6.4303    1.5123   -3.9530 O.co2     1 ATP        -0.8494
      3 O2G         8.2784    0.2391   -2.5788 O.co2     1 ATP        -0.8494
      4 O3G         8.8925    1.6509   -4.6163 O.3       1 ATP        -0.7845
      5 PB          7.5010    3.3503   -1.1765 P.3       1 ATP         1.9068
      6 O1B         7.6721    2.4557    0.0155 O.2       1 ATP        -0.8942
      7 O2B         8.1407    4.8270   -1.0226 O.3       1 ATP        -0.8166
      8 O3B         8.1436    2.7959   -2.5522 O.3       1 ATP        -0.8194
      9 PA          4.7365    4.3145   -0.8169 P.3       1 ATP         1.5903
     10 O1A         3.4834    4.2085   -1.6585 O.co2     1 ATP        -0.8519
     11 O2A         5.1987    5.6529   -0.2831 O.co2     1 ATP        -0.8519
     12 O3A         5.9765    3.6316   -1.6307 O.3       1 ATP        -0.8093
     13 O5'         4.6405    3.2701    0.4379 O.3       1 ATP        -0.5649
     14 C5'         4.0922    1.9801    0.2227 C.3       1 ATP         0.1979
     15 C4'         2.5944    2.0310    0.4653 C.3       1 ATP         0.1179
     16 O4'         1.9327    2.5740   -0.6889 O.3       1 ATP        -0.3878
     17 C3'         1.9685    0.6634    0.6767 C.3       1 ATP         0.1185
     18 O3'         2.1425    0.1975    1.9977 O.3       1 ATP        -0.5544
     19 C2'         0.5176    0.9128    0.3099 C.3       1 ATP         0.0542
     20 O2'        -0.2103    1.4454    1.4152 O.3       1 ATP        -0.5831
     21 C1'         0.6219    1.9765   -0.7844 C.3       1 ATP         0.2222
     22 N9          0.4237    1.4496   -2.1357 N.pl3     1 ATP        -0.1887
     23 C8          1.4069    0.9710   -2.9662 C.ar      1 ATP         0.4447
     24 N7          0.9316    0.5623   -4.1260 N.2       1 ATP        -0.6159
     25 C5         -0.4120    0.7884   -4.0344 C.ar      1 ATP         0.2195
     26 C6         -1.4353    0.5283   -5.0204 C.ar      1 ATP         0.6144
     27 N6         -1.1199    0.0176   -6.1586 N.2       1 ATP        -0.8160
     28 N1         -2.6704    0.9095   -4.5147 N.pl3     1 ATP        -0.8611
     29 C2         -2.8863    1.4571   -3.2520 C.ar      1 ATP         0.6141
     30 N3         -1.9805    1.7017   -2.3442 N.2       1 ATP        -0.5913
     31 C4         -0.7561    1.3381   -2.8112 C.ar      1 ATP         0.0067
     32 HOG3        9.8518    1.6271   -4.4127 H         1 ATP         0.4313
     33 HOB2        9.1045    4.9121   -0.8609 H         1 ATP         0.4716
     34 H5'1        4.3029    1.6730   -0.8066 H         1 ATP         0.0452
     35 H5'2        4.5678    1.2739    0.9106 H         1 ATP         0.0452
     36 H4'         2.3751    2.7029    1.3156 H         1 ATP         0.0998
     37 H3'         2.4336   -0.1217   -0.0015 H         1 ATP         0.0544
     38 HO3'        1.7160   -0.6716    2.0397 H         1 ATP         0.3961
     39 H2'         0.0316    0.0155   -0.0339 H         1 ATP         0.0499
     40 HO2'       -0.1608    0.7921    2.1351 H         1 ATP         0.4045
     41 H1'        -0.1474    2.7798   -0.6651 H         1 ATP         0.0912
     42 H8          2.4466    0.9468   -2.6694 H         1 ATP         0.1090
     43 HN62       -1.9661   -0.0965   -6.7275 H         1 ATP         0.3694
     44 H2         -3.9481    1.6825   -3.0660 H         1 ATP         0.0371
     45 H45        -3.4814    0.7753   -5.1133 H         1 ATP         0.4283
@<TRIPOS>BOND
     1    1    2 2
     2    1    3 1
     3    1    4 1
     4    1    8 1
     5    4   32 1
     6    5    6 2
     7    5    7 1
     8    5    8 1
     9    5   12 1
    10    7   33 1
    11    9   10 2
    12    9   11 1
    13    9   12 1
    14    9   13 1
    15   13   14 1
    16   14   15 1
    17   14   34 1
    18   14   35 1
    19   15   16 1
    20   15   17 1
    21   15   36 1
    22   16   21 1
    23   17   18 1
    24   17   19 1
    25   17   37 1
    26   18   38 1
    27   19   20 1
    28   19   21 1
    29   19   39 1
    30   20   40 1
    31   21   22 1
    32   21   41 1
    33   22   23 ar
    34   22   31 ar
    35   23   24 ar
    36   23   42 1
    37   24   25 ar
    38   25   26 ar
    39   25   31 ar
    40   26   27 2
    41   26   28 ar
    42   27   43 1
    43   28   29 ar
    44   28   45 1
    45   29   30 ar
    46   29   44 1
    47   30   31 ar
@<TRIPOS>SUBSTRUCTURE
     1 ATP         1 GROUP 0 A     ****
@<TRIPOS>MOLECULE
[[[3,4-dihydroxy-5-(6-imino-1~{H}-purin-9-yl)tetrahydrofuran-2-yl]methoxy-oxido-phosphoryl]oxy-hydroxy-phosphoryl] hydrogen phosphate
   45    47     1     0     0
SMALL
USER_CHARGES

@<TRIPOS>ATOM
      1 PG         -6.0906    3.0173   -1.9820 P.3       1 ATP         1.5496
      2 O1G        -7.2589    3.9287   -1.6786 O.co2     1 ATP        -0.8494
      3 O2G        -6.3140    1.6132   -2.4976 O.co2     1 ATP        -0.8494
      4 O3G        -5.0818    3.7914   -3.0064 O.3       1 ATP        -0.7845
      5 PB         -5.3690    2.3333    0.7946 P.3       1 ATP         1.9068
      6 O1B        -6.5162    2.9318    1.5536 O.2       1 ATP        -0.8942
      7 O2B        -5.4815    0.7435    0.5237 O.3       1 ATP        -0.8166
      8 O3B        -5.1159    2.9554   -0.6757 O.3       1 ATP        -0.8194
      9 PA         -3.0798    3.8626    1.8537 P.3       1 ATP         1.5903
     10 O1A        -3.8221    4.5966    2.9492 O.co2     1 ATP        -0.8519
     11 O2A        -2.6992    4.5683    0.5704 O.co2     1 ATP        -0.8519
     12 O3A        -3.9117    2.5115    1.4682 O.3       1 ATP        -0.8093
     13 O5'        -1.7337    3.1724    2.4752 O.3       1 ATP        -0.5649
     14 C5'        -0.8811    2.4285    1.6206 C.3       1 ATP         0.1979
     15 C4'        -0.1994    1.3333    2.4288 C.3       1 ATP         0.1179
     16 O4'        -1.1285    0.2356    2.5840 O.3       1 ATP        -0.3878
     17 C3'         1.0324    0.7610    1.7344 C.3       1 ATP         0.1185
     18 O3'         1.9175    0.2377    2.7247 O.3       1 ATP        -0.5544
     19 C2'         0.4468   -0.3802    0.9263 C.3       1 ATP         0.0542
     20 O2'         1.3993   -1.3703    0.5961 O.3       1 ATP        -0.5831
     21 C1'        -0.6159   -0.9100    1.8769 C.3       1 ATP         0.2222
     22 N9         -1.7127   -1.6108    1.2130 N.pl3     1 ATP        -0.1887
     23 C8         -2.0868   -2.9137    1.4327 C.ar      1 ATP         0.4447
     24 N7         -3.1125   -3.2756    0.6878 N.2       1 ATP        -0.6159
     25 C5         -3.4079   -2.1580   -0.0391 C.ar      1 ATP         0.2195
     26 C6         -4.4483   -1.9775   -1.0249 C.ar      1 ATP         0.6144
     27 N6         -5.2418   -2.9492   -1.3113 N.2       1 ATP        -0.8160
     28 N1         -4.3937   -0.6823   -1.5211 N.pl3     1 ATP        -0.8611
     29 C2         -3.4770    0.2901   -1.1271 C.ar      1 ATP         0.6141
     30 N3         -2.5289    0.1525   -0.2403 N.2       1 ATP        -0.5913
     31 C4         -2.5564   -1.1096    0.2655 C.ar      1 ATP         0.0067
     32 HOG3       -4.2691    3.3276   -3.3005 H         1 ATP         0.4313
     33 HOB2       -5.5374    0.1342    1.2905 H         1 ATP         0.4716
     34 H5'1       -1.4801    1.9928    0.8147 H         1 ATP         0.0452
     35 H5'2       -0.1369    3.1041    1.1872 H         1 ATP         0.0452
     36 H4'         0.0403    1.7078    3.4343 H         1 ATP         0.0998
     37 H3'         1.5906    1.4859    1.1353 H         1 ATP         0.0544
     38 HO3'        2.6839   -0.1150    2.2479 H         1 ATP         0.3961
     39 H2'        -0.0017    0.0018    0.0005 H         1 ATP         0.0499
     40 HO2'        2.0953   -0.9375    0.0709 H         1 ATP         0.4045
     41 H1'        -0.1998   -1.6319    2.6178 H         1 ATP         0.0912
     42 H8         -1.5740   -3.5449    2.1457 H         1 ATP         0.1090
     43 HN62       -5.9117   -2.6433   -2.0256 H         1 ATP         0.3694
     44 H2         -3.6225    1.2454   -1.6553 H         1 ATP         0.0371
     45 H45        -5.0794   -0.4231   -2.2258 H         1 ATP         0.4283
@<TRIPOS>BOND
     1    1    2 2
     2    1    3 1
     3    1    4 1
     4    1    8 1
     5    4   32 1
     6    5    6 2
     7    5    7 1
     8    5    8 1
     9    5   12 1
    10    7   33 1
    11    9   10 2
    12    9   11 1
    13    9   12 1
    14    9   13 1
    15   13   14 1
    16   14   15 1
    17   14   34 1
    18   14   35 1
    19   15   16 1
    20   15   17 1
    21   15   36 1
    22   16   21 1
    23   17   18 1
    24   17   19 1
    25   17   37 1
    26   18   38 1
    27   19   20 1
    28   19   21 1
    29   19   39 1
    30   20   40 1
    31   21   22 1
    32   21   41 1
    33   22   23 ar
    34   22   31 ar
    35   23   24 ar
    36   23   42 1
    37   24   25 ar
    38   25   26 ar
    39   25   31 ar
    40   26   27 2
    41   26   28 ar
    42   27   43 1
    43   28   29 ar
    44   28   45 1
    45   29   30 ar
    46   29   44 1
    47   30   31 ar
@<TRIPOS>SUBSTRUCTURE
     1 ATP         1 GROUP 0 A     ****
@<TRIPOS>MOLECULE
[[[3,4-dihydroxy-5-(6-imino-1~{H}-purin-9-yl)tetrahydrofuran-2-yl]methoxy-oxido-phosphoryl]oxy-hydroxy-phosphoryl] hydrogen phosphate
   45    47     1     0     0
SMALL
USER_CHARGES

@<TRIPOS>ATOM
      1 PG          5.3384    4.6525   -5.5624 P.3       1 ATP         1.5496
      2 O1G         6.1100    3.6889   -6.4363 O.co2     1 ATP        -0.8494
      3 O2G         5.6110    6.1391   -5.6162 O.co2     1 ATP        -0.8494
      4 O3G         3.7423    4.4089   -5.8061 O.3       1 ATP        -0.7845
      5 PB          6.6951    4.0708   -3.0091 P.3       1 ATP         1.9068
      6 O1B         7.8211    3.1917   -3.4669 O.2       1 ATP        -0.8942
      7 O2B         7.0900    5.6197   -2.7666 O.3       1 ATP        -0.8166
      8 O3B         5.4309    4.1506   -4.0133 O.3       1 ATP        -0.8194
      9 PA          4.7365    4.3145   -0.8169 P.3       1 ATP         1.5903
     10 O1A         3.4834    4.2085   -1.6585 O.co2     1 ATP        -0.8519
     11 O2A         5.1987    5.6529   -0.2831 O.co2     1 ATP        -0.8519
     12 O3A         5.9765    3.6316   -1.6307 O.3       1 ATP        -0.8093
     13 O5'         4.6405    3.2701    0.4379 O.3       1 ATP        -0.5649
     14 C5'         4.0922    1.9801    0.2227 C.3       1 ATP         0.1979
     15 C4'         2.5944    2.0310    0.4653 C.3       1 ATP         0.1179
     16 O4'         1.9327    2.5740   -0.6889 O.3       1 ATP        -0.3878
     17 C3'         1.9685    0.6634    0.6767 C.3       1 ATP         0.1185
     18 O3'         2.1425    0.1975    1.9977 O.3       1 ATP        -0.5544
     19 C2'         0.5176    0.9128    0.3099 C.3       1 ATP         0.0542
     20 O2'        -0.2103    1.4454    1.4152 O.3       1 ATP        -0.5831
     21 C1'         0.6219    1.9765   -0.7844 C.3       1 ATP         0.2222
     22 N9          0.4237    1.4496   -2.1357 N.pl3     1 ATP        -0.1887
     23 C8          1.4069    0.9710   -2.9662 C.ar      1 ATP         0.4447
     24 N7          0.9316    0.5623   -4.1260 N.2       1 ATP        -0.6159
     25 C5         -0.4120    0.7884   -4.0344 C.ar      1 ATP         0.2195
     26 C6         -1.4353    0.5283   -5.0204 C.ar      1 ATP         0.6144
     27 N6         -1.1199    0.0176   -6.1586 N.2       1 ATP        -0.8160
     28 N1         -2.6704    0.9095   -4.5147 N.pl3     1 ATP        -0.8611
     29 C2         -2.8863    1.4571   -3.2520 C.ar      1 ATP         0.6141
     30 N3         -1.9805    1.7017   -2.3442 N.2       1 ATP        -0.5913
     31 C4         -0.7561    1.3381   -2.8112 C.ar      1 ATP         0.0067
     32 HOG3        3.1042    4.9619   -5.3070 H         1 ATP         0.4313
     33 HOB2        7.4429    6.1426   -3.5177 H         1 ATP         0.4716
     34 H5'1        4.3029    1.6730   -0.8066 H         1 ATP         0.0452
     35 H5'2        4.5678    1.2739    0.9106 H         1 ATP         0.0452
     36 H4'         2.3751    2.7029    1.3156 H         1 ATP         0.0998
     37 H3'         2.4336   -0.1217   -0.0015 H         1 ATP         0.0544
     38 HO3'        1.7160   -0.6716    2.0397 H         1 ATP         0.3961
     39 H2'         0.0316    0.0155   -0.0339 H         1 ATP         0.0499
     40 HO2'       -0.1608    0.7921    2.1351 H         1 ATP         0.4045
     41 H1'        -0.1474    2.7798   -0.6651 H         1 ATP         0.0912
     42 H8          2.4466    0.9468   -2.6694 H         1 ATP         0.1090
     43 HN62       -1.9661   -0.0965   -6.7275 H         1 ATP         0.3694
     44 H2         -3.9481    1.6825   -3.0660 H         1 ATP         0.0371
     45 H45        -3.4814    0.7753   -5.1133 H         1 ATP         0.4283
@<TRIPOS>BOND
     1    1    2 2
     2    1    3 1
     3    1    4 1
     4    1    8 1
     5    4   32 1
     6    5    6 2
     7    5    7 1
     8    5    8 1
     9    5   12 1
    10    7   33 1
    11    9   10 2
    12    9   11 1
    13    9   12 1
    14    9   13 1
    15   13   14 1
    16   14   15 1
    17   14   34 1
    18   14   35 1
    19   15   16 1
    20   15   17 1
    21   15   36 1
    22   16   21 1
    23   17   18 1
    24   17   19 1
    25   17   37 1
    26   18   38 1
    27   19   20 1
    28   19   21 1
    29   19   39 1
    30   20   40 1
    31   21   22 1
    32   21   41 1
    33   22   23 ar
    34   22   31 ar
    35   23   24 ar
    36   23   42 1
    37   24   25 ar
    38   25   26 ar
    39   25   31 ar
    40   26   27 2
    41   26   28 ar
    42   27   43 1
    43   28   29 ar
    44   28   45 1
    45   29   30 ar
    46   29   44 1
    47   30   31 ar
@<TRIPOS>SUBSTRUCTURE
     1 ATP         1 GROUP 0 A     ****
@<TRIPOS>MOLECULE
[[[3,4-dihydroxy-5-(6-imino-1~{H}-purin-9-yl)tetrahydrofuran-2-yl]methoxy-oxido-phosphoryl]oxy-hydroxy-phosphoryl] hydrogen phosphate
   45    47     1     0     0
SMALL
USER_CHARGES

@<TRIPOS>ATOM
      1 PG          2.7468    3.7754    4.9485 P.3       1 ATP         1.5496
      2 O1G         2.4640    4.2550    6.3548 O.co2     1 ATP        -0.8494
      3 O2G         3.7058    2.6337    4.6950 O.co2     1 ATP        -0.8494
      4 O3G         1.3253    3.4291    4.2233 O.3       1 ATP        -0.7845
      5 PB          3.4554    5.1610    2.4433 P.3       1 ATP         1.9068
      6 O1B         2.2866    4.8097    1.5710 O.2       1 ATP        -0.8942
      7 O2B         4.0257    6.6617    2.2533 O.3       1 ATP        -0.8166
      8 O3B         3.1860    5.0520    4.0334 O.3       1 ATP        -0.8194
      9 PA          5.6978    3.9302    0.9743 P.3       1 ATP         1.5903
     10 O1A         6.7117    2.8653    1.3318 O.co2     1 ATP        -0.8519
     11 O2A         6.1407    5.2577    0.3987 O.co2     1 ATP        -0.8519
     12 O3A         4.7612    4.2244    2.2791 O.3       1 ATP        -0.8093
     13 O5'         4.5669    3.2939   -0.0211 O.3       1 ATP        -0.5649
     14 C5'         4.0922    1.9801    0.2227 C.3       1 ATP         0.1979
     15 C4'         2.5944    2.0310    0.4653 C.3       1 ATP         0.1179
     16 O4'         1.9327    2.5740   -0.6889 O.3       1 ATP        -0.3878
     17 C3'         1.9685    0.6634    0.6767 C.3       1 ATP         0.1185
     18 O3'         2.1425    0.1975    1.9977 O.3       1 ATP        -0.5544
     19 C2'         0.5176    0.9128    0.3099 C.3       1 ATP         0.0542
     20 O2'        -0.2103    1.4454    1.4152 O.3       1 ATP        -0.5831
     21 C1'         0.6219    1.9765   -0.7844 C.3       1 ATP         0.2222
     22 N9          0.4237    1.4496   -2.1357 N.pl3     1 ATP        -0.1887
     23 C8          1.4069    0.9710   -2.9662 C.ar      1 ATP         0.4447
     24 N7          0.9316    0.5623   -4.1260 N.2       1 ATP        -0.6159
     25 C5         -0.4120    0.7884   -4.0344 C.ar      1 ATP         0.2195
     26 C6         -1.4353    0.5283   -5.0204 C.ar      1 ATP         0.6144
     27 N6         -1.1199    0.0176   -6.1586 N.2       1 ATP        -0.8160
     28 N1         -2.6704    0.9095   -4.5147 N.pl3     1 ATP        -0.8611
     29 C2         -2.8863    1.4571   -3.2520 C.ar      1 ATP         0.6141
     30 N3         -1.9805    1.7017   -2.3442 N.2       1 ATP        -0.5913
     31 C4         -0.7561    1.3381   -2.8112 C.ar      1 ATP         0.0067
     32 HOG3        1.3405    3.1028    3.2984 H         1 ATP         0.4313
     33 HOB2        4.3604    6.9342    1.3724 H         1 ATP         0.4716
     34 H5'1        4.3180    1.3550   -0.6470 H         1 ATP         0.0452
     35 H5'2        4.6084    1.5739    1.0983 H         1 ATP         0.0452
     36 H4'         2.3751    2.7029    1.3156 H         1 ATP         0.0998
     37 H3'         2.4336   -0.1217   -0.0015 H         1 ATP         0.0544
     38 HO3'        1.7160   -0.6716    2.0397 H         1 ATP         0.3961
     39 H2'         0.0316    0.0155   -0.0339 H         1 ATP         0.0499
     40 HO2'       -0.1608    0.7921    2.1351 H         1 ATP         0.4045
     41 H1'        -0.1474    2.7798   -0.6651 H         1 ATP         0.0912
     42 H8          2.4466    0.9468   -2.6694 H         1 ATP         0.1090
     43 HN62       -1.9661   -0.0965   -6.7275 H         1 ATP         0.3694
     44 H2         -3.9481    1.6825   -3.0660 H         1 ATP         0.0371
     45 H45        -3.4814    0.7753   -5.1133 H         1 ATP         0.4283
@<TRIPOS>BOND
     1    1    2 2
     2    1    3 1
     3    1    4 1
     4    1    8 1
     5    4   32 1
     6    5    6 2
     7    5    7 1
     8    5    8 1
     9    5   12 1
    10    7   33 1
    11    9   10 2
    12    9   11 1
    13    9   12 1
    14    9   13 1
    15   13   14 1
    16   14   15 1
    17   14   34 1
    18   14   35 1
    19   15   16 1
    20   15   17 1
    21   15   36 1
    22   16   21 1
    23   17   18 1
    24   17   19 1
    25   17   37 1
    26   18   38 1
    27   19   20 1
    28   19   21 1
    29   19   39 1
    30   20   40 1
    31   21   22 1
    32   21   41 1
    33   22   23 ar
    34   22   31 ar
    35   23   24 ar
    36   23   42 1
    37   24   25 ar
    38   25   26 ar
    39   25   31 ar
    40   26   27 2
    41   26   28 ar
    42   27   43 1
    43   28   29 ar
    44   28   45 1
    45   29   30 ar
    46   29   44 1
    47   30   31 ar
@<TRIPOS>SUBSTRUCTURE
     1 ATP         1 GROUP 0 A     ****
@<TRIPOS>MOLECULE
[[[3,4-dihydroxy-5-(6-imino-1~{H}-purin-9-yl)tetrahydrofuran-2-yl]methoxy-oxido-phosphoryl]oxy-hydroxy-phosphoryl] hydrogen phosphate
   45    47     1     0     0
SMALL
USER_CHARGES

@<TRIPOS>ATOM
      1 PG          2.3343    5.0091   -5.0876 P.3       1 ATP         1.5496
      2 O1G         0.8231    4.9814   -5.1441 O.co2     1 ATP        -0.8494
      3 O2G         3.1625    4.1537   -6.0201 O.co2     1 ATP        -0.8494
      4 O3G         2.8298    6.5586   -5.2282 O.3       1 ATP        -0.7845
      5 PB          2.3864    5.4693   -2.1750 P.3       1 ATP         1.9068
      6 O1B         2.6865    6.9378   -2.1135 O.2       1 ATP        -0.8942
      7 O2B         0.8271    5.0805   -1.9984 O.3       1 ATP        -0.8166
      8 O3B         2.8104    4.7362   -3.5517 O.3       1 ATP        -0.8194
      9 PA          4.7365    4.3145   -0.8169 P.3       1 ATP         1.5903
     10 O1A         5.3511    5.6145   -0.3453 O.co2     1 ATP        -0.8519
     11 O2A         5.3107    3.5739   -2.0050 O.co2     1 ATP        -0.8519
     12 O3A         3.1429    4.5513   -1.0821 O.3       1 ATP        -0.8093
     13 O5'         4.6405    3.2701    0.4379 O.3       1 ATP        -0.5649
     14 C5'         4.0922    1.9801    0.2227 C.3       1 ATP         0.1979
     15 C4'         2.5944    2.0310    0.4653 C.3       1 ATP         0.1179
     16 O4'         1.9327    2.5740   -0.6889 O.3       1 ATP        -0.3878
     17 C3'         1.9685    0.6634    0.6767 C.3       1 ATP         0.1185
     18 O3'         2.1425    0.1975    1.9977 O.3       1 ATP        -0.5544
     19 C2'         0.5176    0.9128    0.3099 C.3       1 ATP         0.0542
     20 O2'        -0.2103    1.4454    1.4152 O.3       1 ATP        -0.5831
     21 C1'         0.6219    1.9765   -0.7844 C.3       1 ATP         0.2222
     22 N9          0.4237    1.4496   -2.1357 N.pl3     1 ATP        -0.1887
     23 C8          1.4069    0.9710   -2.9662 C.ar      1 ATP         0.4447
     24 N7          0.9316    0.5623   -4.1260 N.2       1 ATP        -0.6159
     25 C5         -0.4120    0.7884   -4.0344 C.ar      1 ATP         0.2195
     26 C6         -1.4353    0.5283   -5.0204 C.ar      1 ATP         0.6144
     27 N6         -1.1199    0.0176   -6.1586 N.2       1 ATP        -0.8160
     28 N1         -2.6704    0.9095   -4.5147 N.pl3     1 ATP        -0.8611
     29 C2         -2.8863    1.4571   -3.2520 C.ar      1 ATP         0.6141
     30 N3         -1.9805    1.7017   -2.3442 N.2       1 ATP        -0.5913
     31 C4         -0.7561    1.3381   -2.8112 C.ar      1 ATP         0.0067
     32 HOG3        3.7928    6.7442   -5.2095 H         1 ATP         0.4313
     33 HOB2        0.1746    5.4324   -2.6408 H         1 ATP         0.4716
     34 H5'1        4.3029    1.6730   -0.8066 H         1 ATP         0.0452
     35 H5'2        4.5678    1.2739    0.9106 H         1 ATP         0.0452
     36 H4'         2.3751    2.7029    1.3156 H         1 ATP         0.0998
     37 H3'         2.4336   -0.1217   -0.0015 H         1 ATP         0.0544
     38 HO3'        1.7160   -0.6716    2.0397 H         1 ATP         0.3961
     39 H2'         0.0316    0.0155   -0.0339 H         1 ATP         0.0499
     40 HO2'       -0.1608    0.7921    2.1351 H         1 ATP         0.4045
     41 H1'        -0.1474    2.7798   -0.6651 H         1 ATP         0.0912
     42 H8          2.4466    0.9468   -2.6694 H         1 ATP         0.1090
     43 HN62       -1.9661   -0.0965   -6.7275 H         1 ATP         0.3694
     44 H2         -3.9481    1.6825   -3.0660 H         1 ATP         0.0371
     45 H45        -3.4814    0.7753   -5.1133 H         1 ATP         0.4283
@<TRIPOS>BOND
     1    1    2 2
     2    1    3 1
     3    1    4 1
     4    1    8 1
     5    4   32 1
     6    5    6 2
     7    5    7 1
     8    5    8 1
     9    5   12 1
    10    7   33 1
    11    9   10 2
    12    9   11 1
    13    9   12 1
    14    9   13 1
    15   13   14 1
    16   14   15 1
    17   14   34 1
    18   14   35 1
    19   15   16 1
    20   15   17 1
    21   15   36 1
    22   16   21 1
    23   17   18 1
    24   17   19 1
    25   17   37 1
    26   18   38 1
    27   19   20 1
    28   19   21 1
    29   19   39 1
    30   20   40 1
    31   21   22 1
    32   21   41 1
    33   22   23 ar
    34   22   31 ar
    35   23   24 ar
    36   23   42 1
    37   24   25 ar
    38   25   26 ar
    39   25   31 ar
    40   26   27 2
    41   26   28 ar
    42   27   43 1
    43   28   29 ar
    44   28   45 1
    45   29   30 ar
    46   29   44 1
    47   30   31 ar
@<TRIPOS>SUBSTRUCTURE
     1 ATP         1 GROUP 0 A     ****
@<TRIPOS>MOLECULE
[[[3,4-dihydroxy-5-(6-imino-1~{H}-purin-9-yl)tetrahydrofuran-2-yl]methoxy-oxido-phosphoryl]oxy-hydroxy-phosphoryl] hydrogen phosphate
   45    47     1     0     0
SMALL
USER_CHARGES

@<TRIPOS>ATOM
      1 PG          8.3586    6.4733   -3.4077 P.3       1 ATP         1.5496
      2 O1G         9.5467    5.6759   -3.8982 O.co2     1 ATP        -0.8494
      3 O2G         8.5515    7.7475   -2.6162 O.co2     1 ATP        -0.8494
      4 O3G         7.3895    6.7959   -4.6816 O.3       1 ATP        -0.7845
      5 PB          6.6951    4.0708   -3.0091 P.3       1 ATP         1.9068
      6 O1B         5.8100    4.1207   -4.2193 O.2       1 ATP        -0.8942
      7 O2B         7.9595    3.0702   -3.1257 O.3       1 ATP        -0.8166
      8 O3B         7.3606    5.4810   -2.5834 O.3       1 ATP        -0.8194
      9 PA          4.7365    4.3145   -0.8169 P.3       1 ATP         1.5903
     10 O1A         3.4834    4.2085   -1.6585 O.co2     1 ATP        -0.8519
     11 O2A         5.1987    5.6529   -0.2831 O.co2     1 ATP        -0.8519
     12 O3A         5.9765    3.6316   -1.6307 O.3       1 ATP        -0.8093
     13 O5'         4.6405    3.2701    0.4379 O.3       1 ATP        -0.5649
     14 C5'         4.0922    1.9801    0.2227 C.3       1 ATP         0.1979
     15 C4'         2.5944    2.0310    0.4653 C.3       1 ATP         0.1179
     16 O4'         1.9327    2.5740   -0.6889 O.3       1 ATP        -0.3878
     17 C3'         1.9685    0.6634    0.6767 C.3       1 ATP         0.1185
     18 O3'         2.1425    0.1975    1.9977 O.3       1 ATP        -0.5544
     19 C2'         0.5176    0.9128    0.3099 C.3       1 ATP         0.0542
     20 O2'        -0.2103    1.4454    1.4152 O.3       1 ATP        -0.5831
     21 C1'         0.6219    1.9765   -0.7844 C.3       1 ATP         0.2222
     22 N9          0.4237    1.4496   -2.1357 N.pl3     1 ATP        -0.1887
     23 C8          1.4069    0.9710   -2.9662 C.ar      1 ATP         0.4447
     24 N7          0.9316    0.5623   -4.1260 N.2       1 ATP        -0.6159
     25 C5         -0.4120    0.7884   -4.0344 C.ar      1 ATP         0.2195
     26 C6         -1.4353    0.5283   -5.0204 C.ar      1 ATP         0.6144
     27 N6         -1.1199    0.0176   -6.1586 N.2       1 ATP        -0.8160
     28 N1         -2.6704    0.9095   -4.5147 N.pl3     1 ATP        -0.8611
     29 C2         -2.8863    1.4571   -3.2520 C.ar      1 ATP         0.6141
     30 N3         -1.9805    1.7017   -2.3442 N.2       1 ATP        -0.5913
     31 C4         -0.7561    1.3381   -2.8112 C.ar      1 ATP         0.0067
     32 HOG3        6.5692    7.3107   -4.5254 H         1 ATP         0.4313
     33 HOB2        8.6200    3.2207   -3.8352 H         1 ATP         0.4716
     34 H5'1        4.3029    1.6730   -0.8066 H         1 ATP         0.0452
     35 H5'2        4.5678    1.2739    0.9106 H         1 ATP         0.0452
     36 H4'         2.3751    2.7029    1.3156 H         1 ATP         0.0998
     37 H3'         2.4336   -0.1217   -0.0015 H         1 ATP         0.0544
     38 HO3'        1.7160   -0.6716    2.0397 H         1 ATP         0.3961
     39 H2'         0.0316    0.0155   -0.0339 H         1 ATP         0.0499
     40 HO2'       -1.1270    1.5823    1.1180 H         1 ATP         0.4045
     41 H1'        -0.1474    2.7798   -0.6651 H         1 ATP         0.0912
     42 H8          2.4466    0.9468   -2.6694 H         1 ATP         0.1090
     43 HN62       -1.9661   -0.0965   -6.7275 H         1 ATP         0.3694
     44 H2         -3.9481    1.6825   -3.0660 H         1 ATP         0.0371
     45 H45        -3.4814    0.7753   -5.1133 H         1 ATP         0.4283
@<TRIPOS>BOND
     1    1    2 2
     2    1    3 1
     3    1    4 1
     4    1    8 1
     5    4   32 1
     6    5    6 2
     7    5    7 1
     8    5    8 1
     9    5   12 1
    10    7   33 1
    11    9   10 2
    12    9   11 1
    13    9   12 1
    14    9   13 1
    15   13   14 1
    16   14   15 1
    17   14   34 1
    18   14   35 1
    19   15   16 1
    20   15   17 1
    21   15   36 1
    22   16   21 1
    23   17   18 1
    24   17   19 1
    25   17   37 1
    26   18   38 1
    27   19   20 1
    28   19   21 1
    29   19   39 1
    30   20   40 1
    31   21   22 1
    32   21   41 1
    33   22   23 ar
    34   22   31 ar
    35   23   24 ar
    36   23   42 1
    37   24   25 ar
    38   25   26 ar
    39   25   31 ar
    40   26   27 2
    41   26   28 ar
    42   27   43 1
    43   28   29 ar
    44   28   45 1
    45   29   30 ar
    46   29   44 1
    47   30   31 ar
@<TRIPOS>SUBSTRUCTURE
     1 ATP         1 GROUP 0 A     ****
@<TRIPOS>MOLECULE
[[[3,4-dihydroxy-5-(6-imino-1~{H}-purin-9-yl)tetrahydrofuran-2-yl]methoxy-oxido-phosphoryl]oxy-hydroxy-phosphoryl] hydrogen phosphate
   45    47     1     0     0
SMALL
USER_CHARGES

@<TRIPOS>ATOM
      1 PG          0.7450    3.9368    7.6577 P.3       1 ATP         1.5496
      2 O1G         1.2696    2.5209    7.7444 O.co2     1 ATP        -0.8494
      3 O2G        -0.2617    4.4552    8.6603 O.co2     1 ATP        -0.8494
      4 O3G         2.0172    4.9598    7.6242 O.3       1 ATP        -0.7845
      5 PB         -1.0902    3.5580    5.3802 P.3       1 ATP         1.9068
      6 O1B        -1.0526    2.0674    5.2157 O.2       1 ATP        -0.8942
      7 O2B        -2.3630    4.1251    6.1999 O.3       1 ATP        -0.8166
      8 O3B         0.1781    4.1986    6.1509 O.3       1 ATP        -0.8194
      9 PA         -2.1560    4.4277    2.7709 P.3       1 ATP         1.5903
     10 O1A        -1.6129    5.3159    1.6726 O.co2     1 ATP        -0.8519
     11 O2A        -3.5422    4.6538    3.3339 O.co2     1 ATP        -0.8519
     12 O3A        -1.0946    4.4160    4.0116 O.3       1 ATP        -0.8093
     13 O5'        -2.0402    2.8619    2.3130 O.3       1 ATP        -0.5649
     14 C5'        -0.8811    2.4285    1.6206 C.3       1 ATP         0.1979
     15 C4'        -0.1994    1.3333    2.4288 C.3       1 ATP         0.1179
     16 O4'        -1.1285    0.2356    2.5840 O.3       1 ATP        -0.3878
     17 C3'         1.0324    0.7610    1.7344 C.3       1 ATP         0.1185
     18 O3'         1.9175    0.2377    2.7247 O.3       1 ATP        -0.5544
     19 C2'         0.4468   -0.3802    0.9263 C.3       1 ATP         0.0542
     20 O2'         1.3993   -1.3703    0.5961 O.3       1 ATP        -0.5831
     21 C1'        -0.6159   -0.9100    1.8769 C.3       1 ATP         0.2222
     22 N9         -1.7127   -1.6108    1.2130 N.pl3     1 ATP        -0.1887
     23 C8         -2.0868   -2.9137    1.4327 C.ar      1 ATP         0.4447
     24 N7         -3.1125   -3.2756    0.6878 N.2       1 ATP        -0.6159
     25 C5         -3.4079   -2.1580   -0.0391 C.ar      1 ATP         0.2195
     26 C6         -4.4483   -1.9775   -1.0249 C.ar      1 ATP         0.6144
     27 N6         -5.2418   -2.9492   -1.3113 N.2       1 ATP        -0.8160
     28 N1         -4.3937   -0.6823   -1.5211 N.pl3     1 ATP        -0.8611
     29 C2         -3.4770    0.2901   -1.1271 C.ar      1 ATP         0.6141
     30 N3         -2.5289    0.1525   -0.2403 N.2       1 ATP        -0.5913
     31 C4         -2.5564   -1.1096    0.2655 C.ar      1 ATP         0.0067
     32 HOG3        1.8402    5.9230    7.5684 H         1 ATP         0.4313
     33 HOB2       -2.5009    3.8306    7.1254 H         1 ATP         0.4716
     34 H5'1       -1.1769    2.0503    0.6369 H         1 ATP         0.0452
     35 H5'2       -0.2081    3.2815    1.4877 H         1 ATP         0.0452
     36 H4'         0.0403    1.7078    3.4343 H         1 ATP         0.0998
     37 H3'         1.5906    1.4859    1.1353 H         1 ATP         0.0544
     38 HO3'        2.6839   -0.1150    2.2479 H         1 ATP         0.3961
     39 H2'        -0.0017    0.0018    0.0005 H         1 ATP         0.0499
     40 HO2'        0.9369   -2.0558    0.0825 H         1 ATP         0.4045
     41 H1'        -0.1998   -1.6319    2.6178 H         1 ATP         0.0912
     42 H8         -1.5740   -3.5449    2.1457 H         1 ATP         0.1090
     43 HN62       -5.9117   -2.6433   -2.0256 H         1 ATP         0.3694
     44 H2         -3.6225    1.2454   -1.6553 H         1 ATP         0.0371
     45 H45        -5.0794   -0.4231   -2.2258 H         1 ATP         0.4283
@<TRIPOS>BOND
     1    1    2 2
     2    1    3 1
     3    1    4 1
     4    1    8 1
     5    4   32 1
     6    5    6 2
     7    5    7 1
     8    5    8 1
     9    5   12 1
    10    7   33 1
    11    9   10 2
    12    9   11 1
    13    9   12 1
    14    9   13 1
    15   13   14 1
    16   14   15 1
    17   14   34 1
    18   14   35 1
    19   15   16 1
    20   15   17 1
    21   15   36 1
    22   16   21 1
    23   17   18 1
    24   17   19 1
    25   17   37 1
    26   18   38 1
    27   19   20 1
    28   19   21 1
    29   19   39 1
    30   20   40 1
    31   21   22 1
    32   21   41 1
    33   22   23 ar
    34   22   31 ar
    35   23   24 ar
    36   23   42 1
    37   24   25 ar
    38   25   26 ar
    39   25   31 ar
    40   26   27 2
    41   26   28 ar
    42   27   43 1
    43   28   29 ar
    44   28   45 1
    45   29   30 ar
    46   29   44 1
    47   30   31 ar
@<TRIPOS>SUBSTRUCTURE
     1 ATP         1 GROUP 0 A     ****
@<TRIPOS>MOLECULE
[[[3,4-dihydroxy-5-(6-imino-1~{H}-purin-9-yl)tetrahydrofuran-2-yl]methoxy-oxido-phosphoryl]oxy-hydroxy-phosphoryl] hydrogen phosphate
   45    47     1     0     0
SMALL
USER_CHARGES

@<TRIPOS>ATOM
      1 PG          2.8979    8.3278   -2.6900 P.3       1 ATP         1.5496
      2 O1G         1.4832    8.8318   -2.5098 O.co2     1 ATP        -0.8494
      3 O2G         3.5046    8.1921   -4.0687 O.co2     1 ATP        -0.8494
      4 O3G         3.8939    9.2405   -1.7728 O.3       1 ATP        -0.7845
      5 PB          2.3864    5.4693   -2.1750 P.3       1 ATP         1.9068
      6 O1B         0.8874    5.4422   -2.1245 O.2       1 ATP        -0.8942
      7 O2B         3.0330    5.0109   -3.5839 O.3       1 ATP        -0.8166
      8 O3B         3.0594    6.9123   -1.8961 O.3       1 ATP        -0.8194
      9 PA          4.7365    4.3145   -0.8169 P.3       1 ATP         1.5903
     10 O1A         5.3511    5.6145   -0.3453 O.co2     1 ATP        -0.8519
     11 O2A         5.3107    3.5739   -2.0050 O.co2     1 ATP        -0.8519
     12 O3A         3.1429    4.5513   -1.0821 O.3       1 ATP        -0.8093
     13 O5'         4.6405    3.2701    0.4379 O.3       1 ATP        -0.5649
     14 C5'         4.0922    1.9801    0.2227 C.3       1 ATP         0.1979
     15 C4'         2.5944    2.0310    0.4653 C.3       1 ATP         0.1179
     16 O4'         1.9327    2.5740   -0.6889 O.3       1 ATP        -0.3878
     17 C3'         1.9685    0.6634    0.6767 C.3       1 ATP         0.1185
     18 O3'         2.1425    0.1975    1.9977 O.3       1 ATP        -0.5544
     19 C2'         0.5176    0.9128    0.3099 C.3       1 ATP         0.0542
     20 O2'        -0.2103    1.4454    1.4152 O.3       1 ATP        -0.5831
     21 C1'         0.6219    1.9765   -0.7844 C.3       1 ATP         0.2222
     22 N9          0.4237    1.4496   -2.1357 N.pl3     1 ATP        -0.1887
     23 C8          1.4069    0.9710   -2.9662 C.ar      1 ATP         0.4447
     24 N7          0.9316    0.5623   -4.1260 N.2       1 ATP        -0.6159
     25 C5         -0.4120    0.7884   -4.0344 C.ar      1 ATP         0.2195
     26 C6         -1.4353    0.5283   -5.0204 C.ar      1 ATP         0.6144
     27 N6         -1.1199    0.0176   -6.1586 N.2       1 ATP        -0.8160
     28 N1         -2.6704    0.9095   -4.5147 N.pl3     1 ATP        -0.8611
     29 C2         -2.8863    1.4571   -3.2520 C.ar      1 ATP         0.6141
     30 N3         -1.9805    1.7017   -2.3442 N.2       1 ATP        -0.5913
     31 C4         -0.7561    1.3381   -2.8112 C.ar      1 ATP         0.0067
     32 HOG3        4.8534    9.0369   -1.7812 H         1 ATP         0.4313
     33 HOB2        2.8504    4.1068   -3.9181 H         1 ATP         0.4716
     34 H5'1        4.3029    1.6730   -0.8066 H         1 ATP         0.0452
     35 H5'2        4.5678    1.2739    0.9106 H         1 ATP         0.0452
     36 H4'         2.3751    2.7029    1.3156 H         1 ATP         0.0998
     37 H3'         2.4336   -0.1217   -0.0015 H         1 ATP         0.0544
     38 HO3'        1.7160   -0.6716    2.0397 H         1 ATP         0.3961
     39 H2'         0.0316    0.0155   -0.0339 H         1 ATP         0.0499
     40 HO2'       -0.1608    0.7921    2.1351 H         1 ATP         0.4045
     41 H1'        -0.1474    2.7798   -0.6651 H         1 ATP         0.0912
     42 H8          2.4466    0.9468   -2.6694 H         1 ATP         0.1090
     43 HN62       -1.9661   -0.0965   -6.7275 H         1 ATP         0.3694
     44 H2         -3.9481    1.6825   -3.0660 H         1 ATP         0.0371
     45 H45        -3.4814    0.7753   -5.1133 H         1 ATP         0.4283
@<TRIPOS>BOND
     1    1    2 2
     2    1    3 1
     3    1    4 1
     4    1    8 1
     5    4   32 1
     6    5    6 2
     7    5    7 1
     8    5    8 1
     9    5   12 1
    10    7   33 1
    11    9   10 2
    12    9   11 1
    13    9   12 1
    14    9   13 1
    15   13   14 1
    16   14   15 1
    17   14   34 1
    18   14   35 1
    19   15   16 1
    20   15   17 1
    21   15   36 1
    22   16   21 1
    23   17   18 1
    24   17   19 1
    25   17   37 1
    26   18   38 1
    27   19   20 1
    28   19   21 1
    29   19   39 1
    30   20   40 1
    31   21   22 1
    32   21   41 1
    33   22   23 ar
    34   22   31 ar
    35   23   24 ar
    36   23   42 1
    37   24   25 ar
    38   25   26 ar
    39   25   31 ar
    40   26   27 2
    41   26   28 ar
    42   27   43 1
    43   28   29 ar
    44   28   45 1
    45   29   30 ar
    46   29   44 1
    47   30   31 ar
@<TRIPOS>SUBSTRUCTURE
     1 ATP         1 GROUP 0 A     ****
@<TRIPOS>MOLECULE
[[[3,4-dihydroxy-5-(6-imino-1~{H}-purin-9-yl)tetrahydrofuran-2-yl]methoxy-oxido-phosphoryl]oxy-hydroxy-phosphoryl] hydrogen phosphate
   45    47     1     0     0
SMALL
USER_CHARGES

@<TRIPOS>ATOM
      1 PG          2.1067    5.8254    4.9805 P.3       1 ATP         1.5496
      2 O1G         0.7129    5.3747    4.6037 O.co2     1 ATP        -0.8494
      3 O2G         2.4604    7.2949    5.0330 O.co2     1 ATP        -0.8494
      4 O3G         2.5020    5.1456    6.4115 O.3       1 ATP        -0.7845
      5 PB          3.4554    5.1610    2.4433 P.3       1 ATP         1.9068
      6 O1B         2.2866    4.8097    1.5710 O.2       1 ATP        -0.8942
      7 O2B         4.0257    6.6617    2.2533 O.3       1 ATP        -0.8166
      8 O3B         3.1860    5.0520    4.0334 O.3       1 ATP        -0.8194
      9 PA          5.6978    3.9302    0.9743 P.3       1 ATP         1.5903
     10 O1A         6.7117    2.8653    1.3318 O.co2     1 ATP        -0.8519
     11 O2A         6.1407    5.2577    0.3987 O.co2     1 ATP        -0.8519
     12 O3A         4.7612    4.2244    2.2791 O.3       1 ATP        -0.8093
     13 O5'         4.5669    3.2939   -0.0211 O.3       1 ATP        -0.5649
     14 C5'         4.0922    1.9801    0.2227 C.3       1 ATP         0.1979
     15 C4'         2.5944    2.0310    0.4653 C.3       1 ATP         0.1179
     16 O4'         1.9327    2.5740   -0.6889 O.3       1 ATP        -0.3878
     17 C3'         1.9685    0.6634    0.6767 C.3       1 ATP         0.1185
     18 O3'         2.1425    0.1975    1.9977 O.3       1 ATP        -0.5544
     19 C2'         0.5176    0.9128    0.3099 C.3       1 ATP         0.0542
     20 O2'        -0.2103    1.4454    1.4152 O.3       1 ATP        -0.5831
     21 C1'         0.6219    1.9765   -0.7844 C.3       1 ATP         0.2222
     22 N9          0.4237    1.4496   -2.1357 N.pl3     1 ATP        -0.1887
     23 C8          1.4069    0.9710   -2.9662 C.ar      1 ATP         0.4447
     24 N7          0.9316    0.5623   -4.1260 N.2       1 ATP        -0.6159
     25 C5         -0.4120    0.7884   -4.0344 C.ar      1 ATP         0.2195
     26 C6         -1.4353    0.5283   -5.0204 C.ar      1 ATP         0.6144
     27 N6         -1.1199    0.0176   -6.1586 N.2       1 ATP        -0.8160
     28 N1         -2.6704    0.9095   -4.5147 N.pl3     1 ATP        -0.8611
     29 C2         -2.8863    1.4571   -3.2520 C.ar      1 ATP         0.6141
     30 N3         -1.9805    1.7017   -2.3442 N.2       1 ATP        -0.5913
     31 C4         -0.7561    1.3381   -2.8112 C.ar      1 ATP         0.0067
     32 HOG3        3.3834    5.3426    6.7942 H         1 ATP         0.4313
     33 HOB2        4.3604    6.9342    1.3724 H         1 ATP         0.4716
     34 H5'1        4.3180    1.3550   -0.6470 H         1 ATP         0.0452
     35 H5'2        4.6084    1.5739    1.0983 H         1 ATP         0.0452
     36 H4'         2.3751    2.7029    1.3156 H         1 ATP         0.0998
     37 H3'         2.4336   -0.1217   -0.0015 H         1 ATP         0.0544
     38 HO3'        1.7160   -0.6716    2.0397 H         1 ATP         0.3961
     39 H2'         0.0316    0.0155   -0.0339 H         1 ATP         0.0499
     40 HO2'       -0.1608    0.7921    2.1351 H         1 ATP         0.4045
     41 H1'        -0.1474    2.7798   -0.6651 H         1 ATP         0.0912
     42 H8          2.4466    0.9468   -2.6694 H         1 ATP         0.1090
     43 HN62       -1.9661   -0.0965   -6.7275 H         1 ATP         0.3694
     44 H2         -3.9481    1.6825   -3.0660 H         1 ATP         0.0371
     45 H45        -3.4814    0.7753   -5.1133 H         1 ATP         0.4283
@<TRIPOS>BOND
     1    1    2 2
     2    1    3 1
     3    1    4 1
     4    1    8 1
     5    4   32 1
     6    5    6 2
     7    5    7 1
     8    5    8 1
     9    5   12 1
    10    7   33 1
    11    9   10 2
    12    9   11 1
    13    9   12 1
    14    9   13 1
    15   13   14 1
    16   14   15 1
    17   14   34 1
    18   14   35 1
    19   15   16 1
    20   15   17 1
    21   15   36 1
    22   16   21 1
    23   17   18 1
    24   17   19 1
    25   17   37 1
    26   18   38 1
    27   19   20 1
    28   19   21 1
    29   19   39 1
    30   20   40 1
    31   21   22 1
    32   21   41 1
    33   22   23 ar
    34   22   31 ar
    35   23   24 ar
    36   23   42 1
    37   24   25 ar
    38   25   26 ar
    39   25   31 ar
    40   26   27 2
    41   26   28 ar
    42   27   43 1
    43   28   29 ar
    44   28   45 1
    45   29   30 ar
    46   29   44 1
    47   30   31 ar
@<TRIPOS>SUBSTRUCTURE
     1 ATP         1 GROUP 0 A     ****
@<TRIPOS>MOLECULE
[[[3,4-dihydroxy-5-(6-imino-1~{H}-purin-9-yl)tetrahydrofuran-2-yl]methoxy-oxido-phosphoryl]oxy-hydroxy-phosphoryl] hydrogen phosphate
   45    47     1     0     0
SMALL
USER_CHARGES

@<TRIPOS>ATOM
      1 PG         -2.0107   -0.6211    5.8716 P.3       1 ATP         1.5496
      2 O1G        -2.7263   -0.2106    7.1393 O.co2     1 ATP        -0.8494
      3 O2G        -0.8770    0.2111    5.3151 O.co2     1 ATP        -0.8494
      4 O3G        -1.4883   -2.1583    6.0460 O.3       1 ATP        -0.7845
      5 PB         -4.0972    0.1725    3.9444 P.3       1 ATP         1.9068
      6 O1B        -4.9908   -0.4317    2.9018 O.2       1 ATP        -0.8942
      7 O2B        -4.8647    0.9201    5.1550 O.3       1 ATP        -0.8166
      8 O3B        -3.1156   -0.8677    4.6976 O.3       1 ATP        -0.8194
      9 PA         -3.2889    2.7003    2.6568 P.3       1 ATP         1.5903
     10 O1A        -3.9939    3.6416    3.6091 O.co2     1 ATP        -0.8519
     11 O2A        -3.8600    2.4177    1.2843 O.co2     1 ATP        -0.8519
     12 O3A        -3.0422    1.2742    3.4127 O.3       1 ATP        -0.8093
     13 O5'        -1.7337    3.1724    2.4752 O.3       1 ATP        -0.5649
     14 C5'        -0.8811    2.4285    1.6206 C.3       1 ATP         0.1979
     15 C4'        -0.1994    1.3333    2.4288 C.3       1 ATP         0.1179
     16 O4'        -1.1285    0.2356    2.5840 O.3       1 ATP        -0.3878
     17 C3'         1.0324    0.7610    1.7344 C.3       1 ATP         0.1185
     18 O3'         1.9175    0.2377    2.7247 O.3       1 ATP        -0.5544
     19 C2'         0.4468   -0.3802    0.9263 C.3       1 ATP         0.0542
     20 O2'         1.3993   -1.3703    0.5961 O.3       1 ATP        -0.5831
     21 C1'        -0.6159   -0.9100    1.8769 C.3       1 ATP         0.2222
     22 N9         -1.7127   -1.6108    1.2130 N.pl3     1 ATP        -0.1887
     23 C8         -2.8662   -1.0361    0.7388 C.ar      1 ATP         0.4447
     24 N7         -3.6774   -1.9166    0.1867 N.2       1 ATP        -0.6159
     25 C5         -3.0159   -3.1045    0.3123 C.ar      1 ATP         0.2195
     26 C6         -3.4377   -4.4169   -0.1199 C.ar      1 ATP         0.6144
     27 N6         -4.5720   -4.5691   -0.7080 N.2       1 ATP        -0.8160
     28 N1         -2.4600   -5.3463    0.2071 N.pl3     1 ATP        -0.8611
     29 C2         -1.2595   -5.0554    0.8515 C.ar      1 ATP         0.6141
     30 N3         -0.8555   -3.8803    1.2516 N.2       1 ATP        -0.5913
     31 C4         -1.7946   -2.9457    0.9448 C.ar      1 ATP         0.0067
     32 HOG3       -1.0009   -2.5728    5.3025 H         1 ATP         0.4313
     33 HOB2       -4.3346    1.3355    5.8682 H         1 ATP         0.4716
     34 H5'1       -1.4801    1.9928    0.8147 H         1 ATP         0.0452
     35 H5'2       -0.1369    3.1041    1.1872 H         1 ATP         0.0452
     36 H4'         0.0403    1.7078    3.4343 H         1 ATP         0.0998
     37 H3'         1.5906    1.4859    1.1353 H         1 ATP         0.0544
     38 HO3'        2.6839   -0.1150    2.2479 H         1 ATP         0.3961
     39 H2'        -0.0017    0.0018    0.0005 H         1 ATP         0.0499
     40 HO2'        2.0953   -0.9375    0.0709 H         1 ATP         0.4045
     41 H1'        -0.1998   -1.6319    2.6178 H         1 ATP         0.0912
     42 H8         -3.0558    0.0252    0.8256 H         1 ATP         0.1090
     43 HN62       -4.7047   -5.5592   -0.9421 H         1 ATP         0.3694
     44 H2         -0.6372   -5.9505    1.0077 H         1 ATP         0.0371
     45 H45        -2.6338   -6.3155   -0.0469 H         1 ATP         0.4283
@<TRIPOS>BOND
     1    1    2 2
     2    1    3 1
     3    1    4 1
     4    1    8 1
     5    4   32 1
     6    5    6 2
     7    5    7 1
     8    5    8 1
     9    5   12 1
    10    7   33 1
    11    9   10 2
    12    9   11 1
    13    9   12 1
    14    9   13 1
    15   13   14 1
    16   14   15 1
    17   14   34 1
    18   14   35 1
    19   15   16 1
    20   15   17 1
    21   15   36 1
    22   16   21 1
    23   17   18 1
    24   17   19 1
    25   17   37 1
    26   18   38 1
    27   19   20 1
    28   19   21 1
    29   19   39 1
    30   20   40 1
    31   21   22 1
    32   21   41 1
    33   22   23 ar
    34   22   31 ar
    35   23   24 ar
    36   23   42 1
    37   24   25 ar
    38   25   26 ar
    39   25   31 ar
    40   26   27 2
    41   26   28 ar
    42   27   43 1
    43   28   29 ar
    44   28   45 1
    45   29   30 ar
    46   29   44 1
    47   30   31 ar
@<TRIPOS>SUBSTRUCTURE
     1 ATP         1 GROUP 0 A     ****
@<TRIPOS>MOLECULE
[[[3,4-dihydroxy-5-(6-imino-1~{H}-purin-9-yl)tetrahydrofuran-2-yl]methoxy-oxido-phosphoryl]oxy-hydroxy-phosphoryl] hydrogen phosphate
   45    47     1     0     0
SMALL
USER_CHARGES

@<TRIPOS>ATOM
      1 PG          1.6947    3.0573   -1.8463 P.3       1 ATP         1.5496
      2 O1G         2.9918    3.8257   -1.7244 O.co2     1 ATP        -0.8494
      3 O2G         1.0945    2.7561   -3.2014 O.co2     1 ATP        -0.8494
      4 O3G         1.8432    1.6556   -1.0219 O.3       1 ATP        -0.7845
      5 PB         -0.1432    5.2207   -1.0465 P.3       1 ATP         1.9068
      6 O1B         0.7874    6.3964   -1.0001 O.2       1 ATP        -0.8942
      7 O2B        -1.0198    5.0935   -2.3988 O.3       1 ATP        -0.8166
      8 O3B         0.5662    3.7745   -0.9123 O.3       1 ATP        -0.8194
      9 PA         -1.0482    5.0551    1.7561 P.3       1 ATP         1.5903
     10 O1A        -2.4054    4.8671    2.3984 O.co2     1 ATP        -0.8519
     11 O2A        -0.1367    6.1822    2.1902 O.co2     1 ATP        -0.8519
     12 O3A        -1.2399    5.1457    0.1372 O.3       1 ATP        -0.8093
     13 O5'        -0.2061    3.6558    1.8418 O.3       1 ATP        -0.5649
     14 C5'        -0.8811    2.4285    1.6206 C.3       1 ATP         0.1979
     15 C4'        -0.1994    1.3333    2.4288 C.3       1 ATP         0.1179
     16 O4'        -1.1285    0.2356    2.5840 O.3       1 ATP        -0.3878
     17 C3'         1.0324    0.7610    1.7344 C.3       1 ATP         0.1185
     18 O3'         1.9175    0.2377    2.7247 O.3       1 ATP        -0.5544
     19 C2'         0.4468   -0.3802    0.9263 C.3       1 ATP         0.0542
     20 O2'         1.3993   -1.3703    0.5961 O.3       1 ATP        -0.5831
     21 C1'        -0.6159   -0.9100    1.8769 C.3       1 ATP         0.2222
     22 N9         -1.7127   -1.6108    1.2130 N.pl3     1 ATP        -0.1887
     23 C8         -2.8662   -1.0361    0.7388 C.ar      1 ATP         0.4447
     24 N7         -3.6774   -1.9166    0.1867 N.2       1 ATP        -0.6159
     25 C5         -3.0159   -3.1045    0.3123 C.ar      1 ATP         0.2195
     26 C6         -3.4377   -4.4169   -0.1199 C.ar      1 ATP         0.6144
     27 N6         -4.5720   -4.5691   -0.7080 N.2       1 ATP        -0.8160
     28 N1         -2.4600   -5.3463    0.2071 N.pl3     1 ATP        -0.8611
     29 C2         -1.2595   -5.0554    0.8515 C.ar      1 ATP         0.6141
     30 N3         -0.8555   -3.8803    1.2516 N.2       1 ATP        -0.5913
     31 C4         -1.7946   -2.9457    0.9448 C.ar      1 ATP         0.0067
     32 HOG3        1.0792    1.0407   -1.0054 H         1 ATP         0.4313
     33 HOB2       -0.5558    4.9995   -3.2580 H         1 ATP         0.4716
     34 H5'1       -1.9255    2.5382    1.9293 H         1 ATP         0.0452
     35 H5'2       -0.8473    2.1932    0.5521 H         1 ATP         0.0452
     36 H4'         0.0403    1.7078    3.4343 H         1 ATP         0.0998
     37 H3'         1.5906    1.4859    1.1353 H         1 ATP         0.0544
     38 HO3'        2.6839   -0.1150    2.2479 H         1 ATP         0.3961
     39 H2'        -0.0017    0.0018    0.0005 H         1 ATP         0.0499
     40 HO2'        2.0953   -0.9375    0.0709 H         1 ATP         0.4045
     41 H1'        -0.1998   -1.6319    2.6178 H         1 ATP         0.0912
     42 H8         -3.0558    0.0252    0.8256 H         1 ATP         0.1090
     43 HN62       -4.7047   -5.5592   -0.9421 H         1 ATP         0.3694
     44 H2         -0.6372   -5.9505    1.0077 H         1 ATP         0.0371
     45 H45        -2.6338   -6.3155   -0.0469 H         1 ATP         0.4283
@<TRIPOS>BOND
     1    1    2 2
     2    1    3 1
     3    1    4 1
     4    1    8 1
     5    4   32 1
     6    5    6 2
     7    5    7 1
     8    5    8 1
     9    5   12 1
    10    7   33 1
    11    9   10 2
    12    9   11 1
    13    9   12 1
    14    9   13 1
    15   13   14 1
    16   14   15 1
    17   14   34 1
    18   14   35 1
    19   15   16 1
    20   15   17 1
    21   15   36 1
    22   16   21 1
    23   17   18 1
    24   17   19 1
    25   17   37 1
    26   18   38 1
    27   19   20 1
    28   19   21 1
    29   19   39 1
    30   20   40 1
    31   21   22 1
    32   21   41 1
    33   22   23 ar
    34   22   31 ar
    35   23   24 ar
    36   23   42 1
    37   24   25 ar
    38   25   26 ar
    39   25   31 ar
    40   26   27 2
    41   26   28 ar
    42   27   43 1
    43   28   29 ar
    44   28   45 1
    45   29   30 ar
    46   29   44 1
    47   30   31 ar
@<TRIPOS>SUBSTRUCTURE
     1 ATP         1 GROUP 0 A     ****
@<TRIPOS>MOLECULE
[[[3,4-dihydroxy-5-(6-imino-1~{H}-purin-9-yl)tetrahydrofuran-2-yl]methoxy-oxido-phosphoryl]oxy-hydroxy-phosphoryl] hydrogen phosphate
   45    47     1     0     0
SMALL
USER_CHARGES

@<TRIPOS>ATOM
      1 PG          1.6947    3.0573   -1.8463 P.3       1 ATP         1.5496
      2 O1G         2.9918    3.8257   -1.7244 O.co2     1 ATP        -0.8494
      3 O2G         1.0945    2.7561   -3.2014 O.co2     1 ATP        -0.8494
      4 O3G         1.8432    1.6556   -1.0219 O.3       1 ATP        -0.7845
      5 PB         -0.1432    5.2207   -1.0465 P.3       1 ATP         1.9068
      6 O1B         0.7874    6.3964   -1.0001 O.2       1 ATP        -0.8942
      7 O2B        -1.0198    5.0935   -2.3988 O.3       1 ATP        -0.8166
      8 O3B         0.5662    3.7745   -0.9123 O.3       1 ATP        -0.8194
      9 PA         -1.0482    5.0551    1.7561 P.3       1 ATP         1.5903
     10 O1A        -2.4054    4.8671    2.3984 O.co2     1 ATP        -0.8519
     11 O2A        -0.1367    6.1822    2.1902 O.co2     1 ATP        -0.8519
     12 O3A        -1.2399    5.1457    0.1372 O.3       1 ATP        -0.8093
     13 O5'        -0.2061    3.6558    1.8418 O.3       1 ATP        -0.5649
     14 C5'        -0.8811    2.4285    1.6206 C.3       1 ATP         0.1979
     15 C4'        -0.1994    1.3333    2.4288 C.3       1 ATP         0.1179
     16 O4'        -1.1285    0.2356    2.5840 O.3       1 ATP        -0.3878
     17 C3'         1.0324    0.7610    1.7344 C.3       1 ATP         0.1185
     18 O3'         1.9175    0.2377    2.7247 O.3       1 ATP        -0.5544
     19 C2'         0.4468   -0.3802    0.9263 C.3       1 ATP         0.0542
     20 O2'         1.3993   -1.3703    0.5961 O.3       1 ATP        -0.5831
     21 C1'        -0.6159   -0.9100    1.8769 C.3       1 ATP         0.2222
     22 N9         -1.7127   -1.6108    1.2130 N.pl3     1 ATP        -0.1887
     23 C8         -2.0868   -2.9137    1.4327 C.ar      1 ATP         0.4447
     24 N7         -3.1125   -3.2756    0.6878 N.2       1 ATP        -0.6159
     25 C5         -3.4079   -2.1580   -0.0391 C.ar      1 ATP         0.2195
     26 C6         -4.4483   -1.9775   -1.0249 C.ar      1 ATP         0.6144
     27 N6         -5.2418   -2.9492   -1.3113 N.2       1 ATP        -0.8160
     28 N1         -4.3937   -0.6823   -1.5211 N.pl3     1 ATP        -0.8611
     29 C2         -3.4770    0.2901   -1.1271 C.ar      1 ATP         0.6141
     30 N3         -2.5289    0.1525   -0.2403 N.2       1 ATP        -0.5913
     31 C4         -2.5564   -1.1096    0.2655 C.ar      1 ATP         0.0067
     32 HOG3        1.0792    1.0407   -1.0054 H         1 ATP         0.4313
     33 HOB2       -0.5558    4.9995   -3.2580 H         1 ATP         0.4716
     34 H5'1       -1.9255    2.5382    1.9293 H         1 ATP         0.0452
     35 H5'2       -0.8473    2.1932    0.5521 H         1 ATP         0.0452
     36 H4'         0.0403    1.7078    3.4343 H         1 ATP         0.0998
     37 H3'         1.5906    1.4859    1.1353 H         1 ATP         0.0544
     38 HO3'        2.6839   -0.1150    2.2479 H         1 ATP         0.3961
     39 H2'        -0.0017    0.0018    0.0005 H         1 ATP         0.0499
     40 HO2'        2.0953   -0.9375    0.0709 H         1 ATP         0.4045
     41 H1'        -0.1998   -1.6319    2.6178 H         1 ATP         0.0912
     42 H8         -1.5740   -3.5449    2.1457 H         1 ATP         0.1090
     43 HN62       -5.9117   -2.6433   -2.0256 H         1 ATP         0.3694
     44 H2         -3.6225    1.2454   -1.6553 H         1 ATP         0.0371
     45 H45        -5.0794   -0.4231   -2.2258 H         1 ATP         0.4283
@<TRIPOS>BOND
     1    1    2 2
     2    1    3 1
     3    1    4 1
     4    1    8 1
     5    4   32 1
     6    5    6 2
     7    5    7 1
     8    5    8 1
     9    5   12 1
    10    7   33 1
    11    9   10 2
    12    9   11 1
    13    9   12 1
    14    9   13 1
    15   13   14 1
    16   14   15 1
    17   14   34 1
    18   14   35 1
    19   15   16 1
    20   15   17 1
    21   15   36 1
    22   16   21 1
    23   17   18 1
    24   17   19 1
    25   17   37 1
    26   18   38 1
    27   19   20 1
    28   19   21 1
    29   19   39 1
    30   20   40 1
    31   21   22 1
    32   21   41 1
    33   22   23 ar
    34   22   31 ar
    35   23   24 ar
    36   23   42 1
    37   24   25 ar
    38   25   26 ar
    39   25   31 ar
    40   26   27 2
    41   26   28 ar
    42   27   43 1
    43   28   29 ar
    44   28   45 1
    45   29   30 ar
    46   29   44 1
    47   30   31 ar
@<TRIPOS>SUBSTRUCTURE
     1 ATP         1 GROUP 0 A     ****
@<TRIPOS>MOLECULE
[[[3,4-dihydroxy-5-(6-imino-1~{H}-purin-9-yl)tetrahydrofuran-2-yl]methoxy-oxido-phosphoryl]oxy-hydroxy-phosphoryl] hydrogen phosphate
   45    47     1     0     0
SMALL
USER_CHARGES

@<TRIPOS>ATOM
      1 PG         -4.4049    3.4398   -2.1111 P.3       1 ATP         1.5496
      2 O1G        -4.3337    1.9869   -1.6970 O.co2     1 ATP        -0.8494
      3 O2G        -3.2583    4.0945   -2.8489 O.co2     1 ATP        -0.8494
      4 O3G        -5.7729    3.6666   -2.9732 O.3       1 ATP        -0.7845
      5 PB         -3.9406    4.6475    0.5391 P.3       1 ATP         1.9068
      6 O1B        -2.6191    5.3252    0.3272 O.2       1 ATP        -0.8942
      7 O2B        -4.9851    5.4582    1.4694 O.3       1 ATP        -0.8166
      8 O3B        -4.7827    4.3430   -0.8066 O.3       1 ATP        -0.8194
      9 PA         -3.2889    2.7003    2.6568 P.3       1 ATP         1.5903
     10 O1A        -3.3521    1.1903    2.7325 O.co2     1 ATP        -0.8519
     11 O2A        -3.9194    3.5557    3.7341 O.co2     1 ATP        -0.8519
     12 O3A        -3.8778    3.1801    1.2115 O.3       1 ATP        -0.8093
     13 O5'        -1.7337    3.1724    2.4752 O.3       1 ATP        -0.5649
     14 C5'        -0.8811    2.4285    1.6206 C.3       1 ATP         0.1979
     15 C4'        -0.1994    1.3333    2.4288 C.3       1 ATP         0.1179
     16 O4'        -1.1285    0.2356    2.5840 O.3       1 ATP        -0.3878
     17 C3'         1.0324    0.7610    1.7344 C.3       1 ATP         0.1185
     18 O3'         1.9175    0.2377    2.7247 O.3       1 ATP        -0.5544
     19 C2'         0.4468   -0.3802    0.9263 C.3       1 ATP         0.0542
     20 O2'         1.3993   -1.3703    0.5961 O.3       1 ATP        -0.5831
     21 C1'        -0.6159   -0.9100    1.8769 C.3       1 ATP         0.2222
     22 N9         -1.7127   -1.6108    1.2130 N.pl3     1 ATP        -0.1887
     23 C8         -2.8662   -1.0361    0.7388 C.ar      1 ATP         0.4447
     24 N7         -3.6774   -1.9166    0.1867 N.2       1 ATP        -0.6159
     25 C5         -3.0159   -3.1045    0.3123 C.ar      1 ATP         0.2195
     26 C6         -3.4377   -4.4169   -0.1199 C.ar      1 ATP         0.6144
     27 N6         -4.5720   -4.5691   -0.7080 N.2       1 ATP        -0.8160
     28 N1         -2.4600   -5.3463    0.2071 N.pl3     1 ATP        -0.8611
     29 C2         -1.2595   -5.0554    0.8515 C.ar      1 ATP         0.6141
     30 N3         -0.8555   -3.8803    1.2516 N.2       1 ATP        -0.5913
     31 C4         -1.7946   -2.9457    0.9448 C.ar      1 ATP         0.0067
     32 HOG3       -6.6332    3.4756   -2.5423 H         1 ATP         0.4313
     33 HOB2       -5.2755    6.3522    1.1889 H         1 ATP         0.4716
     34 H5'1       -1.4801    1.9928    0.8147 H         1 ATP         0.0452
     35 H5'2       -0.1369    3.1041    1.1872 H         1 ATP         0.0452
     36 H4'         0.0403    1.7078    3.4343 H         1 ATP         0.0998
     37 H3'         1.5906    1.4859    1.1353 H         1 ATP         0.0544
     38 HO3'        2.6839   -0.1150    2.2479 H         1 ATP         0.3961
     39 H2'        -0.0017    0.0018    0.0005 H         1 ATP         0.0499
     40 HO2'        0.9369   -2.0558    0.0825 H         1 ATP         0.4045
     41 H1'        -0.1998   -1.6319    2.6178 H         1 ATP         0.0912
     42 H8         -3.0558    0.0252    0.8256 H         1 ATP         0.1090
     43 HN62       -4.7047   -5.5592   -0.9421 H         1 ATP         0.3694
     44 H2         -0.6372   -5.9505    1.0077 H         1 ATP         0.0371
     45 H45        -2.6338   -6.3155   -0.0469 H         1 ATP         0.4283
@<TRIPOS>BOND
     1    1    2 2
     2    1    3 1
     3    1    4 1
     4    1    8 1
     5    4   32 1
     6    5    6 2
     7    5    7 1
     8    5    8 1
     9    5   12 1
    10    7   33 1
    11    9   10 2
    12    9   11 1
    13    9   12 1
    14    9   13 1
    15   13   14 1
    16   14   15 1
    17   14   34 1
    18   14   35 1
    19   15   16 1
    20   15   17 1
    21   15   36 1
    22   16   21 1
    23   17   18 1
    24   17   19 1
    25   17   37 1
    26   18   38 1
    27   19   20 1
    28   19   21 1
    29   19   39 1
    30   20   40 1
    31   21   22 1
    32   21   41 1
    33   22   23 ar
    34   22   31 ar
    35   23   24 ar
    36   23   42 1
    37   24   25 ar
    38   25   26 ar
    39   25   31 ar
    40   26   27 2
    41   26   28 ar
    42   27   43 1
    43   28   29 ar
    44   28   45 1
    45   29   30 ar
    46   29   44 1
    47   30   31 ar
@<TRIPOS>SUBSTRUCTURE
     1 ATP         1 GROUP 0 A     ****
@<TRIPOS>MOLECULE
[[[3,4-dihydroxy-5-(6-imino-1~{H}-purin-9-yl)tetrahydrofuran-2-yl]methoxy-oxido-phosphoryl]oxy-hydroxy-phosphoryl] hydrogen phosphate
   45    47     1     0     0
SMALL
USER_CHARGES

@<TRIPOS>ATOM
      1 PG         -7.0085    0.6240    0.4549 P.3       1 ATP         1.5496
      2 O1G        -7.2947    0.6472   -1.0302 O.co2     1 ATP        -0.8494
      3 O2G        -8.0702    1.0191    1.4569 O.co2     1 ATP        -0.8494
      4 O3G        -6.4471   -0.8572    0.8514 O.3       1 ATP        -0.7845
      5 PB         -5.3678    3.0705    0.5972 P.3       1 ATP         1.9068
      6 O1B        -5.5464    3.6264   -0.7846 O.2       1 ATP        -0.8942
      7 O2B        -6.3070    3.7383    1.7311 O.3       1 ATP        -0.8166
      8 O3B        -5.6554    1.4868    0.7455 O.3       1 ATP        -0.8194
      9 PA         -3.2889    2.7003    2.6568 P.3       1 ATP         1.5903
     10 O1A        -3.3521    1.1903    2.7325 O.co2     1 ATP        -0.8519
     11 O2A        -3.9194    3.5557    3.7341 O.co2     1 ATP        -0.8519
     12 O3A        -3.8778    3.1801    1.2115 O.3       1 ATP        -0.8093
     13 O5'        -1.7337    3.1724    2.4752 O.3       1 ATP        -0.5649
     14 C5'        -0.8811    2.4285    1.6206 C.3       1 ATP         0.1979
     15 C4'        -0.1994    1.3333    2.4288 C.3       1 ATP         0.1179
     16 O4'        -1.1285    0.2356    2.5840 O.3       1 ATP        -0.3878
     17 C3'         1.0324    0.7610    1.7344 C.3       1 ATP         0.1185
     18 O3'         1.9175    0.2377    2.7247 O.3       1 ATP        -0.5544
     19 C2'         0.4468   -0.3802    0.9263 C.3       1 ATP         0.0542
     20 O2'         1.3993   -1.3703    0.5961 O.3       1 ATP        -0.5831
     21 C1'        -0.6159   -0.9100    1.8769 C.3       1 ATP         0.2222
     22 N9         -1.7127   -1.6108    1.2130 N.pl3     1 ATP        -0.1887
     23 C8         -2.8662   -1.0361    0.7388 C.ar      1 ATP         0.4447
     24 N7         -3.6774   -1.9166    0.1867 N.2       1 ATP        -0.6159
     25 C5         -3.0159   -3.1045    0.3123 C.ar      1 ATP         0.2195
     26 C6         -3.4377   -4.4169   -0.1199 C.ar      1 ATP         0.6144
     27 N6         -4.5720   -4.5691   -0.7080 N.2       1 ATP        -0.8160
     28 N1         -2.4600   -5.3463    0.2071 N.pl3     1 ATP        -0.8611
     29 C2         -1.2595   -5.0554    0.8515 C.ar      1 ATP         0.6141
     30 N3         -0.8555   -3.8803    1.2516 N.2       1 ATP        -0.5913
     31 C4         -1.7946   -2.9457    0.9448 C.ar      1 ATP         0.0067
     32 HOG3       -6.2138   -1.0325    1.7879 H         1 ATP         0.4313
     33 HOB2       -6.2301    4.7007    1.9046 H         1 ATP         0.4716
     34 H5'1       -1.4801    1.9928    0.8147 H         1 ATP         0.0452
     35 H5'2       -0.1369    3.1041    1.1872 H         1 ATP         0.0452
     36 H4'         0.0403    1.7078    3.4343 H         1 ATP         0.0998
     37 H3'         1.5906    1.4859    1.1353 H         1 ATP         0.0544
     38 HO3'        1.4256   -0.4528    3.1940 H         1 ATP         0.3961
     39 H2'        -0.0017    0.0018    0.0005 H         1 ATP         0.0499
     40 HO2'        0.9369   -2.0558    0.0825 H         1 ATP         0.4045
     41 H1'        -0.1998   -1.6319    2.6178 H         1 ATP         0.0912
     42 H8         -3.0558    0.0252    0.8256 H         1 ATP         0.1090
     43 HN62       -4.7047   -5.5592   -0.9421 H         1 ATP         0.3694
     44 H2         -0.6372   -5.9505    1.0077 H         1 ATP         0.0371
     45 H45        -2.6338   -6.3155   -0.0469 H         1 ATP         0.4283
@<TRIPOS>BOND
     1    1    2 2
     2    1    3 1
     3    1    4 1
     4    1    8 1
     5    4   32 1
     6    5    6 2
     7    5    7 1
     8    5    8 1
     9    5   12 1
    10    7   33 1
    11    9   10 2
    12    9   11 1
    13    9   12 1
    14    9   13 1
    15   13   14 1
    16   14   15 1
    17   14   34 1
    18   14   35 1
    19   15   16 1
    20   15   17 1
    21   15   36 1
    22   16   21 1
    23   17   18 1
    24   17   19 1
    25   17   37 1
    26   18   38 1
    27   19   20 1
    28   19   21 1
    29   19   39 1
    30   20   40 1
    31   21   22 1
    32   21   41 1
    33   22   23 ar
    34   22   31 ar
    35   23   24 ar
    36   23   42 1
    37   24   25 ar
    38   25   26 ar
    39   25   31 ar
    40   26   27 2
    41   26   28 ar
    42   27   43 1
    43   28   29 ar
    44   28   45 1
    45   29   30 ar
    46   29   44 1
    47   30   31 ar
@<TRIPOS>SUBSTRUCTURE
     1 ATP         1 GROUP 0 A     ****
@<TRIPOS>MOLECULE
[[[3,4-dihydroxy-5-(6-imino-1~{H}-purin-9-yl)tetrahydrofuran-2-yl]methoxy-oxido-phosphoryl]oxy-hydroxy-phosphoryl] hydrogen phosphate
   45    47     1     0     0
SMALL
USER_CHARGES

@<TRIPOS>ATOM
      1 PG         -7.6393    3.8375    0.5897 P.3       1 ATP         1.5496
      2 O1G        -8.5397    2.7421    1.1160 O.co2     1 ATP        -0.8494
      3 O2G        -7.7192    4.2826   -0.8535 O.co2     1 ATP        -0.8494
      4 O3G        -7.8057    5.1499    1.5469 O.3       1 ATP        -0.7845
      5 PB         -5.1473    2.2708    0.4067 P.3       1 ATP         1.9068
      6 O1B        -5.6494    0.8845    0.6829 O.2       1 ATP        -0.8942
      7 O2B        -4.9375    2.6249   -1.1566 O.3       1 ATP        -0.8166
      8 O3B        -6.0918    3.4662    0.9468 O.3       1 ATP        -0.8194
      9 PA         -3.2889    2.7003    2.6568 P.3       1 ATP         1.5903
     10 O1A        -3.3273    1.2948    3.2162 O.co2     1 ATP        -0.8519
     11 O2A        -4.0474    3.8223    3.3318 O.co2     1 ATP        -0.8519
     12 O3A        -3.7328    2.6541    1.0862 O.3       1 ATP        -0.8093
     13 O5'        -1.7337    3.1724    2.4752 O.3       1 ATP        -0.5649
     14 C5'        -0.8811    2.4285    1.6206 C.3       1 ATP         0.1979
     15 C4'        -0.1994    1.3333    2.4288 C.3       1 ATP         0.1179
     16 O4'        -1.1285    0.2356    2.5840 O.3       1 ATP        -0.3878
     17 C3'         1.0324    0.7610    1.7344 C.3       1 ATP         0.1185
     18 O3'         1.9175    0.2377    2.7247 O.3       1 ATP        -0.5544
     19 C2'         0.4468   -0.3802    0.9263 C.3       1 ATP         0.0542
     20 O2'         1.3993   -1.3703    0.5961 O.3       1 ATP        -0.5831
     21 C1'        -0.6159   -0.9100    1.8769 C.3       1 ATP         0.2222
     22 N9         -1.7127   -1.6108    1.2130 N.pl3     1 ATP        -0.1887
     23 C8         -3.0370   -1.2489    1.2455 C.ar      1 ATP         0.4447
     24 N7         -3.8008   -2.0709    0.5534 N.2       1 ATP        -0.6159
     25 C5         -2.9295   -2.9976    0.0567 C.ar      1 ATP         0.2195
     26 C6         -3.2152   -4.1411   -0.7786 C.ar      1 ATP         0.6144
     27 N6         -4.4238   -4.3865   -1.1456 N.2       1 ATP        -0.8160
     28 N1         -2.0349   -4.8186   -1.0521 N.pl3     1 ATP        -0.8611
     29 C2         -0.7728   -4.4501   -0.5916 C.ar      1 ATP         0.6141
     30 N3         -0.4885   -3.4234    0.1630 N.2       1 ATP        -0.5913
     31 C4         -1.6274   -2.7377    0.4492 C.ar      1 ATP         0.0067
     32 HOG3       -7.2822    5.9518    1.3346 H         1 ATP         0.4313
     33 HOB2       -5.7090    2.5810   -1.7609 H         1 ATP         0.4716
     34 H5'1       -1.4801    1.9928    0.8147 H         1 ATP         0.0452
     35 H5'2       -0.1369    3.1041    1.1872 H         1 ATP         0.0452
     36 H4'         0.0403    1.7078    3.4343 H         1 ATP         0.0998
     37 H3'         1.5906    1.4859    1.1353 H         1 ATP         0.0544
     38 HO3'        2.6839   -0.1150    2.2479 H         1 ATP         0.3961
     39 H2'        -0.0017    0.0018    0.0005 H         1 ATP         0.0499
     40 HO2'        2.0953   -0.9375    0.0709 H         1 ATP         0.4045
     41 H1'        -0.1998   -1.6319    2.6178 H         1 ATP         0.0912
     42 H8         -3.3806   -0.3795    1.7893 H         1 ATP         0.1090
     43 HN62       -4.4384   -5.2300   -1.7295 H         1 ATP         0.3694
     44 H2          0.0180   -5.1355   -0.9348 H         1 ATP         0.0371
     45 H45        -2.0977   -5.6477   -1.6374 H         1 ATP         0.4283
@<TRIPOS>BOND
     1    1    2 2
     2    1    3 1
     3    1    4 1
     4    1    8 1
     5    4   32 1
     6    5    6 2
     7    5    7 1
     8    5    8 1
     9    5   12 1
    10    7   33 1
    11    9   10 2
    12    9   11 1
    13    9   12 1
    14    9   13 1
    15   13   14 1
    16   14   15 1
    17   14   34 1
    18   14   35 1
    19   15   16 1
    20   15   17 1
    21   15   36 1
    22   16   21 1
    23   17   18 1
    24   17   19 1
    25   17   37 1
    26   18   38 1
    27   19   20 1
    28   19   21 1
    29   19   39 1
    30   20   40 1
    31   21   22 1
    32   21   41 1
    33   22   23 ar
    34   22   31 ar
    35   23   24 ar
    36   23   42 1
    37   24   25 ar
    38   25   26 ar
    39   25   31 ar
    40   26   27 2
    41   26   28 ar
    42   27   43 1
    43   28   29 ar
    44   28   45 1
    45   29   30 ar
    46   29   44 1
    47   30   31 ar
@<TRIPOS>SUBSTRUCTURE
     1 ATP         1 GROUP 0 A     ****
@<TRIPOS>MOLECULE
[[[3,4-dihydroxy-5-(6-imino-1~{H}-purin-9-yl)tetrahydrofuran-2-yl]methoxy-oxido-phosphoryl]oxy-hydroxy-phosphoryl] hydrogen phosphate
   45    47     1     0     0
SMALL
USER_CHARGES

@<TRIPOS>ATOM
      1 PG         -2.9259    6.9862   -0.8579 P.3       1 ATP         1.5496
      2 O1G        -1.8728    6.7141    0.1930 O.co2     1 ATP        -0.8494
      3 O2G        -4.0705    7.9359   -0.5833 O.co2     1 ATP        -0.8494
      4 O3G        -2.1784    7.4585   -2.2306 O.3       1 ATP        -0.7845
      5 PB         -4.4165    4.4531   -0.6137 P.3       1 ATP         1.9068
      6 O1B        -5.7382    4.9373   -0.0949 O.2       1 ATP        -0.8942
      7 O2B        -4.5007    3.2324   -1.6702 O.3       1 ATP        -0.8166
      8 O3B        -3.5288    5.5642   -1.3820 O.3       1 ATP        -0.8194
      9 PA         -3.5001    2.7196    1.5900 P.3       1 ATP         1.5903
     10 O1A        -3.5691    1.4028    0.8476 O.co2     1 ATP        -0.8519
     11 O2A        -4.5647    3.0962    2.5973 O.co2     1 ATP        -0.8519
     12 O3A        -3.3722    3.9309    0.5026 O.3       1 ATP        -0.8093
     13 O5'        -2.0402    2.8619    2.3130 O.3       1 ATP        -0.5649
     14 C5'        -0.8811    2.4285    1.6206 C.3       1 ATP         0.1979
     15 C4'        -0.1994    1.3333    2.4288 C.3       1 ATP         0.1179
     16 O4'        -1.1285    0.2356    2.5840 O.3       1 ATP        -0.3878
     17 C3'         1.0324    0.7610    1.7344 C.3       1 ATP         0.1185
     18 O3'         1.9175    0.2377    2.7247 O.3       1 ATP        -0.5544
     19 C2'         0.4468   -0.3802    0.9263 C.3       1 ATP         0.0542
     20 O2'         1.3993   -1.3703    0.5961 O.3       1 ATP        -0.5831
     21 C1'        -0.6159   -0.9100    1.8769 C.3       1 ATP         0.2222
     22 N9         -1.7127   -1.6108    1.2130 N.pl3     1 ATP        -0.1887
     23 C8         -2.5485   -1.0808    0.2609 C.ar      1 ATP         0.4447
     24 N7         -3.4476   -1.9486   -0.1593 N.2       1 ATP        -0.6159
     25 C5         -3.1762   -3.0816    0.5530 C.ar      1 ATP         0.2195
     26 C6         -3.8510   -4.3579    0.5006 C.ar      1 ATP         0.6144
     27 N6         -4.8468   -4.5293   -0.2961 N.2       1 ATP        -0.8160
     28 N1         -3.2499   -5.2342    1.3937 N.pl3     1 ATP        -0.8611
     29 C2         -2.1646   -4.9275    2.2116 C.ar      1 ATP         0.6141
     30 N3         -1.5382   -3.7840    2.2778 N.2       1 ATP        -0.5913
     31 C4         -2.1054   -2.9018    1.4120 C.ar      1 ATP         0.0067
     32 HOG3       -2.7304    7.6736   -3.0124 H         1 ATP         0.4313
     33 HOB2       -4.9946    3.3628   -2.5076 H         1 ATP         0.4716
     34 H5'1       -1.1769    2.0503    0.6369 H         1 ATP         0.0452
     35 H5'2       -0.2081    3.2815    1.4877 H         1 ATP         0.0452
     36 H4'         0.0403    1.7078    3.4343 H         1 ATP         0.0998
     37 H3'         1.5906    1.4859    1.1353 H         1 ATP         0.0544
     38 HO3'        2.6839   -0.1150    2.2479 H         1 ATP         0.3961
     39 H2'        -0.0017    0.0018    0.0005 H         1 ATP         0.0499
     40 HO2'        0.9369   -2.0558    0.0825 H         1 ATP         0.4045
     41 H1'        -0.1998   -1.6319    2.6178 H         1 ATP         0.0912
     42 H8         -2.4515   -0.0599   -0.0829 H         1 ATP         0.1090
     43 HN62       -5.1990   -5.4882   -0.2004 H         1 ATP         0.3694
     44 H2         -1.8555   -5.7783    2.8388 H         1 ATP         0.0371
     45 H45        -3.6312   -6.1750    1.4526 H         1 ATP         0.4283
@<TRIPOS>BOND
     1    1    2 2
     2    1    3 1
     3    1    4 1
     4    1    8 1
     5    4   32 1
     6    5    6 2
     7    5    7 1
     8    5    8 1
     9    5   12 1
    10    7   33 1
    11    9   10 2
    12    9   11 1
    13    9   12 1
    14    9   13 1
    15   13   14 1
    16   14   15 1
    17   14   34 1
    18   14   35 1
    19   15   16 1
    20   15   17 1
    21   15   36 1
    22   16   21 1
    23   17   18 1
    24   17   19 1
    25   17   37 1
    26   18   38 1
    27   19   20 1
    28   19   21 1
    29   19   39 1
    30   20   40 1
    31   21   22 1
    32   21   41 1
    33   22   23 ar
    34   22   31 ar
    35   23   24 ar
    36   23   42 1
    37   24   25 ar
    38   25   26 ar
    39   25   31 ar
    40   26   27 2
    41   26   28 ar
    42   27   43 1
    43   28   29 ar
    44   28   45 1
    45   29   30 ar
    46   29   44 1
    47   30   31 ar
@<TRIPOS>SUBSTRUCTURE
     1 ATP         1 GROUP 0 A     ****
@<TRIPOS>MOLECULE
[[[3,4-dihydroxy-5-(6-imino-1~{H}-purin-9-yl)tetrahydrofuran-2-yl]methoxy-oxido-phosphoryl]oxy-hydroxy-phosphoryl] hydrogen phosphate
   45    47     1     0     0
SMALL
USER_CHARGES

@<TRIPOS>ATOM
      1 PG         -4.4049    3.4398   -2.1111 P.3       1 ATP         1.5496
      2 O1G        -5.4753    3.6271   -3.1632 O.co2     1 ATP        -0.8494
      3 O2G        -3.9995    2.0567   -1.6528 O.co2     1 ATP        -0.8494
      4 O3G        -3.0645    4.2418   -2.5871 O.3       1 ATP        -0.7845
      5 PB         -3.9406    4.6475    0.5391 P.3       1 ATP         1.9068
      6 O1B        -2.6191    5.3252    0.3272 O.2       1 ATP        -0.8942
      7 O2B        -4.9851    5.4582    1.4694 O.3       1 ATP        -0.8166
      8 O3B        -4.7827    4.3430   -0.8066 O.3       1 ATP        -0.8194
      9 PA         -3.2889    2.7003    2.6568 P.3       1 ATP         1.5903
     10 O1A        -3.3521    1.1903    2.7325 O.co2     1 ATP        -0.8519
     11 O2A        -3.9194    3.5557    3.7341 O.co2     1 ATP        -0.8519
     12 O3A        -3.8778    3.1801    1.2115 O.3       1 ATP        -0.8093
     13 O5'        -1.7337    3.1724    2.4752 O.3       1 ATP        -0.5649
     14 C5'        -0.8811    2.4285    1.6206 C.3       1 ATP         0.1979
     15 C4'        -0.1994    1.3333    2.4288 C.3       1 ATP         0.1179
     16 O4'        -1.1285    0.2356    2.5840 O.3       1 ATP        -0.3878
     17 C3'         1.0324    0.7610    1.7344 C.3       1 ATP         0.1185
     18 O3'         1.9175    0.2377    2.7247 O.3       1 ATP        -0.5544
     19 C2'         0.4468   -0.3802    0.9263 C.3       1 ATP         0.0542
     20 O2'         1.3993   -1.3703    0.5961 O.3       1 ATP        -0.5831
     21 C1'        -0.6159   -0.9100    1.8769 C.3       1 ATP         0.2222
     22 N9         -1.7127   -1.6108    1.2130 N.pl3     1 ATP        -0.1887
     23 C8         -2.8662   -1.0361    0.7388 C.ar      1 ATP         0.4447
     24 N7         -3.6774   -1.9166    0.1867 N.2       1 ATP        -0.6159
     25 C5         -3.0159   -3.1045    0.3123 C.ar      1 ATP         0.2195
     26 C6         -3.4377   -4.4169   -0.1199 C.ar      1 ATP         0.6144
     27 N6         -4.5720   -4.5691   -0.7080 N.2       1 ATP        -0.8160
     28 N1         -2.4600   -5.3463    0.2071 N.pl3     1 ATP        -0.8611
     29 C2         -1.2595   -5.0554    0.8515 C.ar      1 ATP         0.6141
     30 N3         -0.8555   -3.8803    1.2516 N.2       1 ATP        -0.5913
     31 C4         -1.7946   -2.9457    0.9448 C.ar      1 ATP         0.0067
     32 HOG3       -2.2746    4.2165   -2.0061 H         1 ATP         0.4313
     33 HOB2       -5.8671    5.0664    1.6451 H         1 ATP         0.4716
     34 H5'1       -1.4801    1.9928    0.8147 H         1 ATP         0.0452
     35 H5'2       -0.1369    3.1041    1.1872 H         1 ATP         0.0452
     36 H4'         0.0403    1.7078    3.4343 H         1 ATP         0.0998
     37 H3'         1.5906    1.4859    1.1353 H         1 ATP         0.0544
     38 HO3'        2.1521    0.9800    3.3017 H         1 ATP         0.3961
     39 H2'        -0.0017    0.0018    0.0005 H         1 ATP         0.0499
     40 HO2'        1.7495   -1.7243    1.4324 H         1 ATP         0.4045
     41 H1'        -0.1998   -1.6319    2.6178 H         1 ATP         0.0912
     42 H8         -3.0558    0.0252    0.8256 H         1 ATP         0.1090
     43 HN62       -4.7047   -5.5592   -0.9421 H         1 ATP         0.3694
     44 H2         -0.6372   -5.9505    1.0077 H         1 ATP         0.0371
     45 H45        -2.6338   -6.3155   -0.0469 H         1 ATP         0.4283
@<TRIPOS>BOND
     1    1    2 2
     2    1    3 1
     3    1    4 1
     4    1    8 1
     5    4   32 1
     6    5    6 2
     7    5    7 1
     8    5    8 1
     9    5   12 1
    10    7   33 1
    11    9   10 2
    12    9   11 1
    13    9   12 1
    14    9   13 1
    15   13   14 1
    16   14   15 1
    17   14   34 1
    18   14   35 1
    19   15   16 1
    20   15   17 1
    21   15   36 1
    22   16   21 1
    23   17   18 1
    24   17   19 1
    25   17   37 1
    26   18   38 1
    27   19   20 1
    28   19   21 1
    29   19   39 1
    30   20   40 1
    31   21   22 1
    32   21   41 1
    33   22   23 ar
    34   22   31 ar
    35   23   24 ar
    36   23   42 1
    37   24   25 ar
    38   25   26 ar
    39   25   31 ar
    40   26   27 2
    41   26   28 ar
    42   27   43 1
    43   28   29 ar
    44   28   45 1
    45   29   30 ar
    46   29   44 1
    47   30   31 ar
@<TRIPOS>SUBSTRUCTURE
     1 ATP         1 GROUP 0 A     ****
@<TRIPOS>MOLECULE
[[[3,4-dihydroxy-5-(6-imino-1~{H}-purin-9-yl)tetrahydrofuran-2-yl]methoxy-oxido-phosphoryl]oxy-hydroxy-phosphoryl] hydrogen phosphate
   45    47     1     0     0
SMALL
USER_CHARGES

@<TRIPOS>ATOM
      1 PG         -7.0048    0.8249   -1.7703 P.3       1 ATP         1.5496
      2 O1G        -7.8541    0.0145   -0.8166 O.co2     1 ATP        -0.8494
      3 O2G        -6.7012    0.3183   -3.1627 O.co2     1 ATP        -0.8494
      4 O3G        -7.6463    2.3216   -1.8916 O.3       1 ATP        -0.7845
      5 PB         -5.3351    1.9359    0.3920 P.3       1 ATP         1.9068
      6 O1B        -5.9099    3.3147    0.5299 O.2       1 ATP        -0.8942
      7 O2B        -5.8684    0.8598    1.4742 O.3       1 ATP        -0.8166
      8 O3B        -5.6052    1.2155   -1.0296 O.3       1 ATP        -0.8194
      9 PA         -2.5569    2.5164   -0.4114 P.3       1 ATP         1.5903
     10 O1A        -2.6046    4.0166   -0.2186 O.co2     1 ATP        -0.8519
     11 O2A        -2.6187    1.9124   -1.7975 O.co2     1 ATP        -0.8519
     12 O3A        -3.7267    1.8313    0.4987 O.3       1 ATP        -0.8093
     13 O5'        -1.2434    1.9102    0.3514 O.3       1 ATP        -0.5649
     14 C5'        -0.8811    2.4285    1.6206 C.3       1 ATP         0.1979
     15 C4'        -0.1994    1.3333    2.4288 C.3       1 ATP         0.1179
     16 O4'        -1.1285    0.2356    2.5840 O.3       1 ATP        -0.3878
     17 C3'         1.0324    0.7610    1.7344 C.3       1 ATP         0.1185
     18 O3'         1.9175    0.2377    2.7247 O.3       1 ATP        -0.5544
     19 C2'         0.4468   -0.3802    0.9263 C.3       1 ATP         0.0542
     20 O2'         1.3993   -1.3703    0.5961 O.3       1 ATP        -0.5831
     21 C1'        -0.6159   -0.9100    1.8769 C.3       1 ATP         0.2222
     22 N9         -1.7127   -1.6108    1.2130 N.pl3     1 ATP        -0.1887
     23 C8         -2.8662   -1.0361    0.7388 C.ar      1 ATP         0.4447
     24 N7         -3.6774   -1.9166    0.1867 N.2       1 ATP        -0.6159
     25 C5         -3.0159   -3.1045    0.3123 C.ar      1 ATP         0.2195
     26 C6         -3.4377   -4.4169   -0.1199 C.ar      1 ATP         0.6144
     27 N6         -4.5720   -4.5691   -0.7080 N.2       1 ATP        -0.8160
     28 N1         -2.4600   -5.3463    0.2071 N.pl3     1 ATP        -0.8611
     29 C2         -1.2595   -5.0554    0.8515 C.ar      1 ATP         0.6141
     30 N3         -0.8555   -3.8803    1.2516 N.2       1 ATP        -0.5913
     31 C4         -1.7946   -2.9457    0.9448 C.ar      1 ATP         0.0067
     32 HOG3       -7.2053    2.9722   -2.4785 H         1 ATP         0.4313
     33 HOB2       -6.8281    0.6601    1.5117 H         1 ATP         0.4716
     34 H5'1       -0.2034    3.2760    1.4767 H         1 ATP         0.0452
     35 H5'2       -1.7842    2.7761    2.1322 H         1 ATP         0.0452
     36 H4'         0.0403    1.7078    3.4343 H         1 ATP         0.0998
     37 H3'         1.5906    1.4859    1.1353 H         1 ATP         0.0544
     38 HO3'        2.6839   -0.1150    2.2479 H         1 ATP         0.3961
     39 H2'        -0.0017    0.0018    0.0005 H         1 ATP         0.0499
     40 HO2'        2.0953   -0.9375    0.0709 H         1 ATP         0.4045
     41 H1'        -0.1998   -1.6319    2.6178 H         1 ATP         0.0912
     42 H8         -3.0558    0.0252    0.8256 H         1 ATP         0.1090
     43 HN62       -4.7047   -5.5592   -0.9421 H         1 ATP         0.3694
     44 H2         -0.6372   -5.9505    1.0077 H         1 ATP         0.0371
     45 H45        -2.6338   -6.3155   -0.0469 H         1 ATP         0.4283
@<TRIPOS>BOND
     1    1    2 2
     2    1    3 1
     3    1    4 1
     4    1    8 1
     5    4   32 1
     6    5    6 2
     7    5    7 1
     8    5    8 1
     9    5   12 1
    10    7   33 1
    11    9   10 2
    12    9   11 1
    13    9   12 1
    14    9   13 1
    15   13   14 1
    16   14   15 1
    17   14   34 1
    18   14   35 1
    19   15   16 1
    20   15   17 1
    21   15   36 1
    22   16   21 1
    23   17   18 1
    24   17   19 1
    25   17   37 1
    26   18   38 1
    27   19   20 1
    28   19   21 1
    29   19   39 1
    30   20   40 1
    31   21   22 1
    32   21   41 1
    33   22   23 ar
    34   22   31 ar
    35   23   24 ar
    36   23   42 1
    37   24   25 ar
    38   25   26 ar
    39   25   31 ar
    40   26   27 2
    41   26   28 ar
    42   27   43 1
    43   28   29 ar
    44   28   45 1
    45   29   30 ar
    46   29   44 1
    47   30   31 ar
@<TRIPOS>SUBSTRUCTURE
     1 ATP         1 GROUP 0 A     ****
@<TRIPOS>MOLECULE
[[[3,4-dihydroxy-5-(6-imino-1~{H}-purin-9-yl)tetrahydrofuran-2-yl]methoxy-oxido-phosphoryl]oxy-hydroxy-phosphoryl] hydrogen phosphate
   45    47     1     0     0
SMALL
USER_CHARGES

@<TRIPOS>ATOM
      1 PG          4.5902    1.7062    0.8200 P.3       1 ATP         1.5496
      2 O1G         5.2836    0.3994    0.5052 O.co2     1 ATP        -0.8494
      3 O2G         3.7228    1.8487    2.0507 O.co2     1 ATP        -0.8494
      4 O3G         5.7082    2.8961    0.8331 O.3       1 ATP        -0.7845
      5 PB          2.9368    3.5542   -0.7767 P.3       1 ATP         1.9068
      6 O1B         3.7692    4.8017   -0.7398 O.2       1 ATP        -0.8942
      7 O2B         2.1872    3.2717   -2.1809 O.3       1 ATP        -0.8166
      8 O3B         3.7396    2.1812   -0.4881 O.3       1 ATP        -0.8194
      9 PA          0.4656    4.4360    0.5711 P.3       1 ATP         1.5903
     10 O1A        -0.4569    4.3401   -0.6246 O.co2     1 ATP        -0.8519
     11 O2A         0.9689    5.7789    1.0538 O.co2     1 ATP        -0.8519
     12 O3A         1.7547    3.4656    0.3206 O.3       1 ATP        -0.8093
     13 O5'        -0.2061    3.6558    1.8418 O.3       1 ATP        -0.5649
     14 C5'        -0.8811    2.4285    1.6206 C.3       1 ATP         0.1979
     15 C4'        -0.1994    1.3333    2.4288 C.3       1 ATP         0.1179
     16 O4'        -1.1285    0.2356    2.5840 O.3       1 ATP        -0.3878
     17 C3'         1.0324    0.7610    1.7344 C.3       1 ATP         0.1185
     18 O3'         1.9175    0.2377    2.7247 O.3       1 ATP        -0.5544
     19 C2'         0.4468   -0.3802    0.9263 C.3       1 ATP         0.0542
     20 O2'         1.3993   -1.3703    0.5961 O.3       1 ATP        -0.5831
     21 C1'        -0.6159   -0.9100    1.8769 C.3       1 ATP         0.2222
     22 N9         -1.7127   -1.6108    1.2130 N.pl3     1 ATP        -0.1887
     23 C8         -2.8662   -1.0361    0.7388 C.ar      1 ATP         0.4447
     24 N7         -3.6774   -1.9166    0.1867 N.2       1 ATP        -0.6159
     25 C5         -3.0159   -3.1045    0.3123 C.ar      1 ATP         0.2195
     26 C6         -3.4377   -4.4169   -0.1199 C.ar      1 ATP         0.6144
     27 N6         -4.5720   -4.5691   -0.7080 N.2       1 ATP        -0.8160
     28 N1         -2.4600   -5.3463    0.2071 N.pl3     1 ATP        -0.8611
     29 C2         -1.2595   -5.0554    0.8515 C.ar      1 ATP         0.6141
     30 N3         -0.8555   -3.8803    1.2516 N.2       1 ATP        -0.5913
     31 C4         -1.7946   -2.9457    0.9448 C.ar      1 ATP         0.0067
     32 HOG3        5.4130    3.8119    1.0238 H         1 ATP         0.4313
     33 HOB2        1.5475    3.9342   -2.5190 H         1 ATP         0.4716
     34 H5'1       -1.9255    2.5382    1.9293 H         1 ATP         0.0452
     35 H5'2       -0.8473    2.1932    0.5521 H         1 ATP         0.0452
     36 H4'         0.0403    1.7078    3.4343 H         1 ATP         0.0998
     37 H3'         1.5906    1.4859    1.1353 H         1 ATP         0.0544
     38 HO3'        2.6839   -0.1150    2.2479 H         1 ATP         0.3961
     39 H2'        -0.0017    0.0018    0.0005 H         1 ATP         0.0499
     40 HO2'        0.9369   -2.0558    0.0825 H         1 ATP         0.4045
     41 H1'        -0.1998   -1.6319    2.6178 H         1 ATP         0.0912
     42 H8         -3.0558    0.0252    0.8256 H         1 ATP         0.1090
     43 HN62       -4.7047   -5.5592   -0.9421 H         1 ATP         0.3694
     44 H2         -0.6372   -5.9505    1.0077 H         1 ATP         0.0371
     45 H45        -2.6338   -6.3155   -0.0469 H         1 ATP         0.4283
@<TRIPOS>BOND
     1    1    2 2
     2    1    3 1
     3    1    4 1
     4    1    8 1
     5    4   32 1
     6    5    6 2
     7    5    7 1
     8    5    8 1
     9    5   12 1
    10    7   33 1
    11    9   10 2
    12    9   11 1
    13    9   12 1
    14    9   13 1
    15   13   14 1
    16   14   15 1
    17   14   34 1
    18   14   35 1
    19   15   16 1
    20   15   17 1
    21   15   36 1
    22   16   21 1
    23   17   18 1
    24   17   19 1
    25   17   37 1
    26   18   38 1
    27   19   20 1
    28   19   21 1
    29   19   39 1
    30   20   40 1
    31   21   22 1
    32   21   41 1
    33   22   23 ar
    34   22   31 ar
    35   23   24 ar
    36   23   42 1
    37   24   25 ar
    38   25   26 ar
    39   25   31 ar
    40   26   27 2
    41   26   28 ar
    42   27   43 1
    43   28   29 ar
    44   28   45 1
    45   29   30 ar
    46   29   44 1
    47   30   31 ar
@<TRIPOS>SUBSTRUCTURE
     1 ATP         1 GROUP 0 A     ****
@<TRIPOS>MOLECULE
[[[3,4-dihydroxy-5-(6-imino-1~{H}-purin-9-yl)tetrahydrofuran-2-yl]methoxy-oxido-phosphoryl]oxy-hydroxy-phosphoryl] hydrogen phosphate
   45    47     1     0     0
SMALL
USER_CHARGES

@<TRIPOS>ATOM
      1 PG         -6.8417   -0.2043    0.4952 P.3       1 ATP         1.5496
      2 O1G        -7.0765   -0.1379   -0.9975 O.co2     1 ATP        -0.8494
      3 O2G        -7.9612    0.0810    1.4713 O.co2     1 ATP        -0.8494
      4 O3G        -6.1996   -1.6620    0.8544 O.3       1 ATP        -0.7845
      5 PB         -5.3690    2.3333    0.7946 P.3       1 ATP         1.9068
      6 O1B        -5.5347    2.9334   -0.5702 O.2       1 ATP        -0.8942
      7 O2B        -6.3886    2.8927    1.9176 O.3       1 ATP        -0.8166
      8 O3B        -5.5583    0.7297    0.8700 O.3       1 ATP        -0.8194
      9 PA         -3.0798    3.8626    1.8537 P.3       1 ATP         1.5903
     10 O1A        -3.8221    4.5966    2.9492 O.co2     1 ATP        -0.8519
     11 O2A        -2.6992    4.5683    0.5704 O.co2     1 ATP        -0.8519
     12 O3A        -3.9117    2.5115    1.4682 O.3       1 ATP        -0.8093
     13 O5'        -1.7337    3.1724    2.4752 O.3       1 ATP        -0.5649
     14 C5'        -0.8811    2.4285    1.6206 C.3       1 ATP         0.1979
     15 C4'        -0.1994    1.3333    2.4288 C.3       1 ATP         0.1179
     16 O4'        -1.1285    0.2356    2.5840 O.3       1 ATP        -0.3878
     17 C3'         1.0324    0.7610    1.7344 C.3       1 ATP         0.1185
     18 O3'         1.9175    0.2377    2.7247 O.3       1 ATP        -0.5544
     19 C2'         0.4468   -0.3802    0.9263 C.3       1 ATP         0.0542
     20 O2'         1.3993   -1.3703    0.5961 O.3       1 ATP        -0.5831
     21 C1'        -0.6159   -0.9100    1.8769 C.3       1 ATP         0.2222
     22 N9         -1.7127   -1.6108    1.2130 N.pl3     1 ATP        -0.1887
     23 C8         -2.0868   -2.9137    1.4327 C.ar      1 ATP         0.4447
     24 N7         -3.1125   -3.2756    0.6878 N.2       1 ATP        -0.6159
     25 C5         -3.4079   -2.1580   -0.0391 C.ar      1 ATP         0.2195
     26 C6         -4.4483   -1.9775   -1.0249 C.ar      1 ATP         0.6144
     27 N6         -5.2418   -2.9492   -1.3113 N.2       1 ATP        -0.8160
     28 N1         -4.3937   -0.6823   -1.5211 N.pl3     1 ATP        -0.8611
     29 C2         -3.4770    0.2901   -1.1271 C.ar      1 ATP         0.6141
     30 N3         -2.5289    0.1525   -0.2403 N.2       1 ATP        -0.5913
     31 C4         -2.5564   -1.1096    0.2655 C.ar      1 ATP         0.0067
     32 HOG3       -5.9884   -1.8609    1.7915 H         1 ATP         0.4313
     33 HOB2       -7.3535    2.7819    1.7798 H         1 ATP         0.4716
     34 H5'1       -1.4801    1.9928    0.8147 H         1 ATP         0.0452
     35 H5'2       -0.1369    3.1041    1.1872 H         1 ATP         0.0452
     36 H4'         0.0403    1.7078    3.4343 H         1 ATP         0.0998
     37 H3'         1.5906    1.4859    1.1353 H         1 ATP         0.0544
     38 HO3'        2.1521    0.9800    3.3017 H         1 ATP         0.3961
     39 H2'        -0.0017    0.0018    0.0005 H         1 ATP         0.0499
     40 HO2'        0.9369   -2.0558    0.0825 H         1 ATP         0.4045
     41 H1'        -0.1998   -1.6319    2.6178 H         1 ATP         0.0912
     42 H8         -1.5740   -3.5449    2.1457 H         1 ATP         0.1090
     43 HN62       -5.9117   -2.6433   -2.0256 H         1 ATP         0.3694
     44 H2         -3.6225    1.2454   -1.6553 H         1 ATP         0.0371
     45 H45        -5.0794   -0.4231   -2.2258 H         1 ATP         0.4283
@<TRIPOS>BOND
     1    1    2 2
     2    1    3 1
     3    1    4 1
     4    1    8 1
     5    4   32 1
     6    5    6 2
     7    5    7 1
     8    5    8 1
     9    5   12 1
    10    7   33 1
    11    9   10 2
    12    9   11 1
    13    9   12 1
    14    9   13 1
    15   13   14 1
    16   14   15 1
    17   14   34 1
    18   14   35 1
    19   15   16 1
    20   15   17 1
    21   15   36 1
    22   16   21 1
    23   17   18 1
    24   17   19 1
    25   17   37 1
    26   18   38 1
    27   19   20 1
    28   19   21 1
    29   19   39 1
    30   20   40 1
    31   21   22 1
    32   21   41 1
    33   22   23 ar
    34   22   31 ar
    35   23   24 ar
    36   23   42 1
    37   24   25 ar
    38   25   26 ar
    39   25   31 ar
    40   26   27 2
    41   26   28 ar
    42   27   43 1
    43   28   29 ar
    44   28   45 1
    45   29   30 ar
    46   29   44 1
    47   30   31 ar
@<TRIPOS>SUBSTRUCTURE
     1 ATP         1 GROUP 0 A     ****
@<TRIPOS>MOLECULE
[[[3,4-dihydroxy-5-(6-imino-1~{H}-purin-9-yl)tetrahydrofuran-2-yl]methoxy-oxido-phosphoryl]oxy-hydroxy-phosphoryl] hydrogen phosphate
   45    47     1     0     0
SMALL
USER_CHARGES

@<TRIPOS>ATOM
      1 PG          4.5902    1.7062    0.8200 P.3       1 ATP         1.5496
      2 O1G         5.2836    0.3994    0.5052 O.co2     1 ATP        -0.8494
      3 O2G         3.7228    1.8487    2.0507 O.co2     1 ATP        -0.8494
      4 O3G         5.7082    2.8961    0.8331 O.3       1 ATP        -0.7845
      5 PB          2.9368    3.5542   -0.7767 P.3       1 ATP         1.9068
      6 O1B         3.7692    4.8017   -0.7398 O.2       1 ATP        -0.8942
      7 O2B         2.1872    3.2717   -2.1809 O.3       1 ATP        -0.8166
      8 O3B         3.7396    2.1812   -0.4881 O.3       1 ATP        -0.8194
      9 PA          0.4656    4.4360    0.5711 P.3       1 ATP         1.5903
     10 O1A        -0.4569    4.3401   -0.6246 O.co2     1 ATP        -0.8519
     11 O2A         0.9689    5.7789    1.0538 O.co2     1 ATP        -0.8519
     12 O3A         1.7547    3.4656    0.3206 O.3       1 ATP        -0.8093
     13 O5'        -0.2061    3.6558    1.8418 O.3       1 ATP        -0.5649
     14 C5'        -0.8811    2.4285    1.6206 C.3       1 ATP         0.1979
     15 C4'        -0.1994    1.3333    2.4288 C.3       1 ATP         0.1179
     16 O4'        -1.1285    0.2356    2.5840 O.3       1 ATP        -0.3878
     17 C3'         1.0324    0.7610    1.7344 C.3       1 ATP         0.1185
     18 O3'         1.9175    0.2377    2.7247 O.3       1 ATP        -0.5544
     19 C2'         0.4468   -0.3802    0.9263 C.3       1 ATP         0.0542
     20 O2'         1.3993   -1.3703    0.5961 O.3       1 ATP        -0.5831
     21 C1'        -0.6159   -0.9100    1.8769 C.3       1 ATP         0.2222
     22 N9         -1.7127   -1.6108    1.2130 N.pl3     1 ATP        -0.1887
     23 C8         -1.7690   -2.9583    0.9549 C.ar      1 ATP         0.4447
     24 N7         -2.8827   -3.3076    0.3418 N.2       1 ATP        -0.6159
     25 C5         -3.5683   -2.1351    0.2017 C.ar      1 ATP         0.2195
     26 C6         -4.8617   -1.9185   -0.4044 C.ar      1 ATP         0.6144
     27 N6         -5.5166   -2.9094   -0.8994 N.2       1 ATP        -0.8160
     28 N1         -5.1836   -0.5701   -0.3344 N.pl3     1 ATP        -0.8611
     29 C2         -4.3821    0.4180    0.2330 C.ar      1 ATP         0.6141
     30 N3         -3.2117    0.2488    0.7860 N.2       1 ATP        -0.5913
     31 C4         -2.8672   -1.0657    0.7327 C.ar      1 ATP         0.0067
     32 HOG3        5.4130    3.8119    1.0238 H         1 ATP         0.4313
     33 HOB2        1.5475    3.9342   -2.5190 H         1 ATP         0.4716
     34 H5'1       -1.9255    2.5382    1.9293 H         1 ATP         0.0452
     35 H5'2       -0.8473    2.1932    0.5521 H         1 ATP         0.0452
     36 H4'         0.0403    1.7078    3.4343 H         1 ATP         0.0998
     37 H3'         1.5906    1.4859    1.1353 H         1 ATP         0.0544
     38 HO3'        2.6839   -0.1150    2.2479 H         1 ATP         0.3961
     39 H2'        -0.0017    0.0018    0.0005 H         1 ATP         0.0499
     40 HO2'        2.0953   -0.9375    0.0709 H         1 ATP         0.4045
     41 H1'        -0.1998   -1.6319    2.6178 H         1 ATP         0.0912
     42 H8         -0.9697   -3.6300    1.2371 H         1 ATP         0.1090
     43 HN62       -6.4060   -2.5723   -1.2840 H         1 ATP         0.3694
     44 H2         -4.8409    1.4176    0.1757 H         1 ATP         0.0371
     45 H45        -6.0768   -0.2826   -0.7263 H         1 ATP         0.4283
@<TRIPOS>BOND
     1    1    2 2
     2    1    3 1
     3    1    4 1
     4    1    8 1
     5    4   32 1
     6    5    6 2
     7    5    7 1
     8    5    8 1
     9    5   12 1
    10    7   33 1
    11    9   10 2
    12    9   11 1
    13    9   12 1
    14    9   13 1
    15   13   14 1
    16   14   15 1
    17   14   34 1
    18   14   35 1
    19   15   16 1
    20   15   17 1
    21   15   36 1
    22   16   21 1
    23   17   18 1
    24   17   19 1
    25   17   37 1
    26   18   38 1
    27   19   20 1
    28   19   21 1
    29   19   39 1
    30   20   40 1
    31   21   22 1
    32   21   41 1
    33   22   23 ar
    34   22   31 ar
    35   23   24 ar
    36   23   42 1
    37   24   25 ar
    38   25   26 ar
    39   25   31 ar
    40   26   27 2
    41   26   28 ar
    42   27   43 1
    43   28   29 ar
    44   28   45 1
    45   29   30 ar
    46   29   44 1
    47   30   31 ar
@<TRIPOS>SUBSTRUCTURE
     1 ATP         1 GROUP 0 A     ****
@<TRIPOS>MOLECULE
[[[3,4-dihydroxy-5-(6-imino-1~{H}-purin-9-yl)tetrahydrofuran-2-yl]methoxy-oxido-phosphoryl]oxy-hydroxy-phosphoryl] hydrogen phosphate
   45    47     1     0     0
SMALL
USER_CHARGES

@<TRIPOS>ATOM
      1 PG          5.9320    5.3321   -4.9161 P.3       1 ATP         1.5496
      2 O1G         4.4892    5.7750   -5.0150 O.co2     1 ATP        -0.8494
      3 O2G         6.6051    4.6149   -6.0650 O.co2     1 ATP        -0.8494
      4 O3G         6.8435    6.6231   -4.5055 O.3       1 ATP        -0.7845
      5 PB          5.5291    3.0052   -3.1494 P.3       1 ATP         1.9068
      6 O1B         4.0322    2.9129   -3.1197 O.2       1 ATP        -0.8942
      7 O2B         6.2581    1.9907   -4.1754 O.3       1 ATP        -0.8166
      8 O3B         6.1225    4.4528   -3.5556 O.3       1 ATP        -0.8194
      9 PA          6.1592    3.5242   -0.3148 P.3       1 ATP         1.5903
     10 O1A         6.4222    4.9968   -0.5433 O.co2     1 ATP        -0.8519
     11 O2A         6.9470    2.7492    0.7189 O.co2     1 ATP        -0.8519
     12 O3A         6.2774    2.7406   -1.7424 O.3       1 ATP        -0.8093
     13 O5'         4.5669    3.2939   -0.0211 O.3       1 ATP        -0.5649
     14 C5'         4.0922    1.9801    0.2227 C.3       1 ATP         0.1979
     15 C4'         2.5944    2.0310    0.4653 C.3       1 ATP         0.1179
     16 O4'         1.9327    2.5740   -0.6889 O.3       1 ATP        -0.3878
     17 C3'         1.9685    0.6634    0.6767 C.3       1 ATP         0.1185
     18 O3'         2.1425    0.1975    1.9977 O.3       1 ATP        -0.5544
     19 C2'         0.5176    0.9128    0.3099 C.3       1 ATP         0.0542
     20 O2'        -0.2103    1.4454    1.4152 O.3       1 ATP        -0.5831
     21 C1'         0.6219    1.9765   -0.7844 C.3       1 ATP         0.2222
     22 N9          0.4237    1.4496   -2.1357 N.pl3     1 ATP        -0.1887
     23 C8         -0.7779    1.3483   -2.7928 C.ar      1 ATP         0.4447
     24 N7         -0.6499    0.8341   -4.0000 N.2       1 ATP        -0.6159
     25 C5          0.6893    0.5965   -4.1212 C.ar      1 ATP         0.2195
     26 C6          1.4031    0.0342   -5.2443 C.ar      1 ATP         0.6144
     27 N6          0.7649   -0.3130   -6.3063 N.2       1 ATP        -0.8160
     28 N1          2.7566   -0.0326   -4.9437 N.pl3     1 ATP        -0.8611
     29 C2          3.3337    0.3796   -3.7446 C.ar      1 ATP         0.6141
     30 N3          2.7120    0.8899   -2.7163 N.2       1 ATP        -0.5913
     31 C4          1.3803    0.9684   -2.9805 C.ar      1 ATP         0.0067
     32 HOG3        7.8107    6.4974   -4.4013 H         1 ATP         0.4313
     33 HOB2        6.0475    2.0502   -5.1316 H         1 ATP         0.4716
     34 H5'1        4.3180    1.3550   -0.6470 H         1 ATP         0.0452
     35 H5'2        4.6084    1.5739    1.0983 H         1 ATP         0.0452
     36 H4'         2.3751    2.7029    1.3156 H         1 ATP         0.0998
     37 H3'         2.4336   -0.1217   -0.0015 H         1 ATP         0.0544
     38 HO3'        1.7160   -0.6716    2.0397 H         1 ATP         0.3961
     39 H2'         0.0316    0.0155   -0.0339 H         1 ATP         0.0499
     40 HO2'       -0.1608    0.7921    2.1351 H         1 ATP         0.4045
     41 H1'        -0.1474    2.7798   -0.6651 H         1 ATP         0.0912
     42 H8         -1.7076    1.6648   -2.3398 H         1 ATP         0.1090
     43 HN62        1.4266   -0.6890   -6.9943 H         1 ATP         0.3694
     44 H2          4.4251    0.2326   -3.7294 H         1 ATP         0.0371
     45 H45         3.3750   -0.4100   -5.6572 H         1 ATP         0.4283
@<TRIPOS>BOND
     1    1    2 2
     2    1    3 1
     3    1    4 1
     4    1    8 1
     5    4   32 1
     6    5    6 2
     7    5    7 1
     8    5    8 1
     9    5   12 1
    10    7   33 1
    11    9   10 2
    12    9   11 1
    13    9   12 1
    14    9   13 1
    15   13   14 1
    16   14   15 1
    17   14   34 1
    18   14   35 1
    19   15   16 1
    20   15   17 1
    21   15   36 1
    22   16   21 1
    23   17   18 1
    24   17   19 1
    25   17   37 1
    26   18   38 1
    27   19   20 1
    28   19   21 1
    29   19   39 1
    30   20   40 1
    31   21   22 1
    32   21   41 1
    33   22   23 ar
    34   22   31 ar
    35   23   24 ar
    36   23   42 1
    37   24   25 ar
    38   25   26 ar
    39   25   31 ar
    40   26   27 2
    41   26   28 ar
    42   27   43 1
    43   28   29 ar
    44   28   45 1
    45   29   30 ar
    46   29   44 1
    47   30   31 ar
@<TRIPOS>SUBSTRUCTURE
     1 ATP         1 GROUP 0 A     ****
@<TRIPOS>MOLECULE
[[[3,4-dihydroxy-5-(6-imino-1~{H}-purin-9-yl)tetrahydrofuran-2-yl]methoxy-oxido-phosphoryl]oxy-hydroxy-phosphoryl] hydrogen phosphate
   45    47     1     0     0
SMALL
USER_CHARGES

@<TRIPOS>ATOM
      1 PG          2.4832    4.3516    6.7537 P.3       1 ATP         1.5496
      2 O1G         2.7756    2.8827    6.9645 O.co2     1 ATP        -0.8494
      3 O2G         1.8702    5.1877    7.8549 O.co2     1 ATP        -0.8494
      4 O3G         3.8513    5.0847    6.2466 O.3       1 ATP        -0.7845
      5 PB          0.0821    4.0564    5.0669 P.3       1 ATP         1.9068
      6 O1B        -0.1667    2.5802    5.1634 O.2       1 ATP        -0.8942
      7 O2B        -0.8240    4.9695    6.0461 O.3       1 ATP        -0.8166
      8 O3B         1.5938    4.5237    5.3974 O.3       1 ATP        -0.8194
      9 PA         -1.4708    4.7755    2.6642 P.3       1 ATP         1.5903
     10 O1A        -1.0959    5.3857    1.3312 O.co2     1 ATP        -0.8519
     11 O2A        -2.6069    5.3469    3.4843 O.co2     1 ATP        -0.8519
     12 O3A        -0.1394    4.7122    3.6073 O.3       1 ATP        -0.8093
     13 O5'        -1.7337    3.1724    2.4752 O.3       1 ATP        -0.5649
     14 C5'        -0.8811    2.4285    1.6206 C.3       1 ATP         0.1979
     15 C4'        -0.1994    1.3333    2.4288 C.3       1 ATP         0.1179
     16 O4'        -1.1285    0.2356    2.5840 O.3       1 ATP        -0.3878
     17 C3'         1.0324    0.7610    1.7344 C.3       1 ATP         0.1185
     18 O3'         1.9175    0.2377    2.7247 O.3       1 ATP        -0.5544
     19 C2'         0.4468   -0.3802    0.9263 C.3       1 ATP         0.0542
     20 O2'         1.3993   -1.3703    0.5961 O.3       1 ATP        -0.5831
     21 C1'        -0.6159   -0.9100    1.8769 C.3       1 ATP         0.2222
     22 N9         -1.7127   -1.6108    1.2130 N.pl3     1 ATP        -0.1887
     23 C8         -2.8662   -1.0361    0.7388 C.ar      1 ATP         0.4447
     24 N7         -3.6774   -1.9166    0.1867 N.2       1 ATP        -0.6159
     25 C5         -3.0159   -3.1045    0.3123 C.ar      1 ATP         0.2195
     26 C6         -3.4377   -4.4169   -0.1199 C.ar      1 ATP         0.6144
     27 N6         -4.5720   -4.5691   -0.7080 N.2       1 ATP        -0.8160
     28 N1         -2.4600   -5.3463    0.2071 N.pl3     1 ATP        -0.8611
     29 C2         -1.2595   -5.0554    0.8515 C.ar      1 ATP         0.6141
     30 N3         -0.8555   -3.8803    1.2516 N.2       1 ATP        -0.5913
     31 C4         -1.7946   -2.9457    0.9448 C.ar      1 ATP         0.0067
     32 HOG3        4.2629    4.7780    5.4107 H         1 ATP         0.4313
     33 HOB2       -0.7620    4.8317    7.0153 H         1 ATP         0.4716
     34 H5'1       -1.4801    1.9928    0.8147 H         1 ATP         0.0452
     35 H5'2       -0.1369    3.1041    1.1872 H         1 ATP         0.0452
     36 H4'         0.0403    1.7078    3.4343 H         1 ATP         0.0998
     37 H3'         1.5906    1.4859    1.1353 H         1 ATP         0.0544
     38 HO3'        2.1521    0.9800    3.3017 H         1 ATP         0.3961
     39 H2'        -0.0017    0.0018    0.0005 H         1 ATP         0.0499
     40 HO2'        2.0953   -0.9375    0.0709 H         1 ATP         0.4045
     41 H1'        -0.1998   -1.6319    2.6178 H         1 ATP         0.0912
     42 H8         -3.0558    0.0252    0.8256 H         1 ATP         0.1090
     43 HN62       -4.7047   -5.5592   -0.9421 H         1 ATP         0.3694
     44 H2         -0.6372   -5.9505    1.0077 H         1 ATP         0.0371
     45 H45        -2.6338   -6.3155   -0.0469 H         1 ATP         0.4283
@<TRIPOS>BOND
     1    1    2 2
     2    1    3 1
     3    1    4 1
     4    1    8 1
     5    4   32 1
     6    5    6 2
     7    5    7 1
     8    5    8 1
     9    5   12 1
    10    7   33 1
    11    9   10 2
    12    9   11 1
    13    9   12 1
    14    9   13 1
    15   13   14 1
    16   14   15 1
    17   14   34 1
    18   14   35 1
    19   15   16 1
    20   15   17 1
    21   15   36 1
    22   16   21 1
    23   17   18 1
    24   17   19 1
    25   17   37 1
    26   18   38 1
    27   19   20 1
    28   19   21 1
    29   19   39 1
    30   20   40 1
    31   21   22 1
    32   21   41 1
    33   22   23 ar
    34   22   31 ar
    35   23   24 ar
    36   23   42 1
    37   24   25 ar
    38   25   26 ar
    39   25   31 ar
    40   26   27 2
    41   26   28 ar
    42   27   43 1
    43   28   29 ar
    44   28   45 1
    45   29   30 ar
    46   29   44 1
    47   30   31 ar
@<TRIPOS>SUBSTRUCTURE
     1 ATP         1 GROUP 0 A     ****
@<TRIPOS>MOLECULE
[[[3,4-dihydroxy-5-(6-imino-1~{H}-purin-9-yl)tetrahydrofuran-2-yl]methoxy-oxido-phosphoryl]oxy-hydroxy-phosphoryl] hydrogen phosphate
   45    47     1     0     0
SMALL
USER_CHARGES

@<TRIPOS>ATOM
      1 PG         -5.6345    2.0184   -2.9580 P.3       1 ATP         1.5496
      2 O1G        -7.0595    2.3906   -2.6140 O.co2     1 ATP        -0.8494
      3 O2G        -5.2949    0.6376   -3.4734 O.co2     1 ATP        -0.8494
      4 O3G        -5.0499    3.1224   -4.0095 O.3       1 ATP        -0.7845
      5 PB         -4.4970    3.7294   -0.8423 P.3       1 ATP         1.9068
      6 O1B        -4.0308    4.9124   -1.6383 O.2       1 ATP        -0.8942
      7 O2B        -5.9243    3.9176   -0.1070 O.3       1 ATP        -0.8166
      8 O3B        -4.6767    2.3606   -1.6830 O.3       1 ATP        -0.8194
      9 PA         -2.9646    4.0417    1.6588 P.3       1 ATP         1.5903
     10 O1A        -4.1352    4.3308    2.5732 O.co2     1 ATP        -0.8519
     11 O2A        -2.0510    5.1559    1.1963 O.co2     1 ATP        -0.8519
     12 O3A        -3.5097    3.2459    0.3413 O.3       1 ATP        -0.8093
     13 O5'        -2.0402    2.8619    2.3130 O.3       1 ATP        -0.5649
     14 C5'        -0.8811    2.4285    1.6206 C.3       1 ATP         0.1979
     15 C4'        -0.1994    1.3333    2.4288 C.3       1 ATP         0.1179
     16 O4'        -1.1285    0.2356    2.5840 O.3       1 ATP        -0.3878
     17 C3'         1.0324    0.7610    1.7344 C.3       1 ATP         0.1185
     18 O3'         1.9175    0.2377    2.7247 O.3       1 ATP        -0.5544
     19 C2'         0.4468   -0.3802    0.9263 C.3       1 ATP         0.0542
     20 O2'         1.3993   -1.3703    0.5961 O.3       1 ATP        -0.5831
     21 C1'        -0.6159   -0.9100    1.8769 C.3       1 ATP         0.2222
     22 N9         -1.7127   -1.6108    1.2130 N.pl3     1 ATP        -0.1887
     23 C8         -1.7690   -2.9583    0.9549 C.ar      1 ATP         0.4447
     24 N7         -2.8827   -3.3076    0.3418 N.2       1 ATP        -0.6159
     25 C5         -3.5683   -2.1351    0.2017 C.ar      1 ATP         0.2195
     26 C6         -4.8617   -1.9185   -0.4044 C.ar      1 ATP         0.6144
     27 N6         -5.5166   -2.9094   -0.8994 N.2       1 ATP        -0.8160
     28 N1         -5.1836   -0.5701   -0.3344 N.pl3     1 ATP        -0.8611
     29 C2         -4.3821    0.4180    0.2330 C.ar      1 ATP         0.6141
     30 N3         -3.2117    0.2488    0.7860 N.2       1 ATP        -0.5913
     31 C4         -2.8672   -1.0657    0.7327 C.ar      1 ATP         0.0067
     32 HOG3       -5.0137    4.0614   -3.7282 H         1 ATP         0.4313
     33 HOB2       -6.2830    3.1786    0.4291 H         1 ATP         0.4716
     34 H5'1       -1.1769    2.0503    0.6369 H         1 ATP         0.0452
     35 H5'2       -0.2081    3.2815    1.4877 H         1 ATP         0.0452
     36 H4'         0.0403    1.7078    3.4343 H         1 ATP         0.0998
     37 H3'         1.5906    1.4859    1.1353 H         1 ATP         0.0544
     38 HO3'        2.6839   -0.1150    2.2479 H         1 ATP         0.3961
     39 H2'        -0.0017    0.0018    0.0005 H         1 ATP         0.0499
     40 HO2'        2.0953   -0.9375    0.0709 H         1 ATP         0.4045
     41 H1'        -0.1998   -1.6319    2.6178 H         1 ATP         0.0912
     42 H8         -0.9697   -3.6300    1.2371 H         1 ATP         0.1090
     43 HN62       -6.4060   -2.5723   -1.2840 H         1 ATP         0.3694
     44 H2         -4.8409    1.4176    0.1757 H         1 ATP         0.0371
     45 H45        -6.0768   -0.2826   -0.7263 H         1 ATP         0.4283
@<TRIPOS>BOND
     1    1    2 2
     2    1    3 1
     3    1    4 1
     4    1    8 1
     5    4   32 1
     6    5    6 2
     7    5    7 1
     8    5    8 1
     9    5   12 1
    10    7   33 1
    11    9   10 2
    12    9   11 1
    13    9   12 1
    14    9   13 1
    15   13   14 1
    16   14   15 1
    17   14   34 1
    18   14   35 1
    19   15   16 1
    20   15   17 1
    21   15   36 1
    22   16   21 1
    23   17   18 1
    24   17   19 1
    25   17   37 1
    26   18   38 1
    27   19   20 1
    28   19   21 1
    29   19   39 1
    30   20   40 1
    31   21   22 1
    32   21   41 1
    33   22   23 ar
    34   22   31 ar
    35   23   24 ar
    36   23   42 1
    37   24   25 ar
    38   25   26 ar
    39   25   31 ar
    40   26   27 2
    41   26   28 ar
    42   27   43 1
    43   28   29 ar
    44   28   45 1
    45   29   30 ar
    46   29   44 1
    47   30   31 ar
@<TRIPOS>SUBSTRUCTURE
     1 ATP         1 GROUP 0 A     ****
@<TRIPOS>MOLECULE
[[[3,4-dihydroxy-5-(6-imino-1~{H}-purin-9-yl)tetrahydrofuran-2-yl]methoxy-oxido-phosphoryl]oxy-hydroxy-phosphoryl] hydrogen phosphate
   45    47     1     0     0
SMALL
USER_CHARGES

@<TRIPOS>ATOM
      1 PG         -7.1987    1.5607    1.0190 P.3       1 ATP         1.5496
      2 O1G        -7.0197    0.3782    1.9449 O.co2     1 ATP        -0.8494
      3 O2G        -7.7932    1.3844   -0.3604 O.co2     1 ATP        -0.8494
      4 O3G        -8.0482    2.7116    1.8064 O.3       1 ATP        -0.7845
      5 PB         -4.3788    1.8897    0.2201 P.3       1 ATP         1.9068
      6 O1B        -3.7579    0.6613    0.8166 O.2       1 ATP        -0.8942
      7 O2B        -4.7233    1.7870   -1.3561 O.3       1 ATP        -0.8166
      8 O3B        -5.7770    2.3493    0.8886 O.3       1 ATP        -0.8194
      9 PA         -2.9646    4.0417    1.6588 P.3       1 ATP         1.5903
     10 O1A        -4.1352    4.3308    2.5732 O.co2     1 ATP        -0.8519
     11 O2A        -2.0510    5.1559    1.1963 O.co2     1 ATP        -0.8519
     12 O3A        -3.5097    3.2459    0.3413 O.3       1 ATP        -0.8093
     13 O5'        -2.0402    2.8619    2.3130 O.3       1 ATP        -0.5649
     14 C5'        -0.8811    2.4285    1.6206 C.3       1 ATP         0.1979
     15 C4'        -0.1994    1.3333    2.4288 C.3       1 ATP         0.1179
     16 O4'        -1.1285    0.2356    2.5840 O.3       1 ATP        -0.3878
     17 C3'         1.0324    0.7610    1.7344 C.3       1 ATP         0.1185
     18 O3'         1.9175    0.2377    2.7247 O.3       1 ATP        -0.5544
     19 C2'         0.4468   -0.3802    0.9263 C.3       1 ATP         0.0542
     20 O2'         1.3993   -1.3703    0.5961 O.3       1 ATP        -0.5831
     21 C1'        -0.6159   -0.9100    1.8769 C.3       1 ATP         0.2222
     22 N9         -1.7127   -1.6108    1.2130 N.pl3     1 ATP        -0.1887
     23 C8         -1.6202   -2.3321    0.0482 C.ar      1 ATP         0.4447
     24 N7         -2.7754   -2.8539   -0.3142 N.2       1 ATP        -0.6159
     25 C5         -3.6439   -2.4502    0.6592 C.ar      1 ATP         0.2195
     26 C6         -5.0563   -2.7308    0.7745 C.ar      1 ATP         0.6144
     27 N6         -5.6468   -3.4480   -0.1158 N.2       1 ATP        -0.8160
     28 N1         -5.5549   -2.1241    1.9191 N.pl3     1 ATP        -0.8611
     29 C2         -4.8068   -1.3637    2.8153 C.ar      1 ATP         0.6141
     30 N3         -3.5318   -1.0957    2.7338 N.2       1 ATP        -0.5913
     31 C4         -3.0130   -1.6778    1.6196 C.ar      1 ATP         0.0067
     32 HOG3       -8.2484    3.5483    1.3352 H         1 ATP         0.4313
     33 HOB2       -5.3471    1.0943   -1.6614 H         1 ATP         0.4716
     34 H5'1       -1.1769    2.0503    0.6369 H         1 ATP         0.0452
     35 H5'2       -0.2081    3.2815    1.4877 H         1 ATP         0.0452
     36 H4'         0.0403    1.7078    3.4343 H         1 ATP         0.0998
     37 H3'         1.5906    1.4859    1.1353 H         1 ATP         0.0544
     38 HO3'        2.6839   -0.1150    2.2479 H         1 ATP         0.3961
     39 H2'        -0.0017    0.0018    0.0005 H         1 ATP         0.0499
     40 HO2'        2.0953   -0.9375    0.0709 H         1 ATP         0.4045
     41 H1'        -0.1998   -1.6319    2.6178 H         1 ATP         0.0912
     42 H8         -0.6865   -2.4395   -0.4871 H         1 ATP         0.1090
     43 HN62       -6.6394   -3.5426    0.1257 H         1 ATP         0.3694
     44 H2         -5.4125   -0.9811    3.6517 H         1 ATP         0.0371
     45 H45        -6.5442   -2.2475    2.1195 H         1 ATP         0.4283
@<TRIPOS>BOND
     1    1    2 2
     2    1    3 1
     3    1    4 1
     4    1    8 1
     5    4   32 1
     6    5    6 2
     7    5    7 1
     8    5    8 1
     9    5   12 1
    10    7   33 1
    11    9   10 2
    12    9   11 1
    13    9   12 1
    14    9   13 1
    15   13   14 1
    16   14   15 1
    17   14   34 1
    18   14   35 1
    19   15   16 1
    20   15   17 1
    21   15   36 1
    22   16   21 1
    23   17   18 1
    24   17   19 1
    25   17   37 1
    26   18   38 1
    27   19   20 1
    28   19   21 1
    29   19   39 1
    30   20   40 1
    31   21   22 1
    32   21   41 1
    33   22   23 ar
    34   22   31 ar
    35   23   24 ar
    36   23   42 1
    37   24   25 ar
    38   25   26 ar
    39   25   31 ar
    40   26   27 2
    41   26   28 ar
    42   27   43 1
    43   28   29 ar
    44   28   45 1
    45   29   30 ar
    46   29   44 1
    47   30   31 ar
@<TRIPOS>SUBSTRUCTURE
     1 ATP         1 GROUP 0 A     ****
@<TRIPOS>MOLECULE
[[[3,4-dihydroxy-5-(6-imino-1~{H}-purin-9-yl)tetrahydrofuran-2-yl]methoxy-oxido-phosphoryl]oxy-hydroxy-phosphoryl] hydrogen phosphate
   45    47     1     0     0
SMALL
USER_CHARGES

@<TRIPOS>ATOM
      1 PG         -3.2837    7.5891   -1.3729 P.3       1 ATP         1.5496
      2 O1G        -1.9197    8.2046   -1.1529 O.co2     1 ATP        -0.8494
      3 O2G        -4.5375    8.2884   -0.8973 O.co2     1 ATP        -0.8494
      4 O3G        -3.4496    7.2509   -2.9617 O.3       1 ATP        -0.7845
      5 PB         -3.1426    5.5151    0.7192 P.3       1 ATP         1.9068
      6 O1B        -1.8798    5.9000    1.4316 O.2       1 ATP        -0.8942
      7 O2B        -4.5079    6.0137    1.4270 O.3       1 ATP        -0.8166
      8 O3B        -3.2740    6.0637   -0.7956 O.3       1 ATP        -0.8194
      9 PA         -3.5001    2.7196    1.5900 P.3       1 ATP         1.5903
     10 O1A        -3.5691    1.4028    0.8476 O.co2     1 ATP        -0.8519
     11 O2A        -4.5647    3.0962    2.5973 O.co2     1 ATP        -0.8519
     12 O3A        -3.3722    3.9309    0.5026 O.3       1 ATP        -0.8093
     13 O5'        -2.0402    2.8619    2.3130 O.3       1 ATP        -0.5649
     14 C5'        -0.8811    2.4285    1.6206 C.3       1 ATP         0.1979
     15 C4'        -0.1994    1.3333    2.4288 C.3       1 ATP         0.1179
     16 O4'        -1.1285    0.2356    2.5840 O.3       1 ATP        -0.3878
     17 C3'         1.0324    0.7610    1.7344 C.3       1 ATP         0.1185
     18 O3'         1.9175    0.2377    2.7247 O.3       1 ATP        -0.5544
     19 C2'         0.4468   -0.3802    0.9263 C.3       1 ATP         0.0542
     20 O2'         1.3993   -1.3703    0.5961 O.3       1 ATP        -0.5831
     21 C1'        -0.6159   -0.9100    1.8769 C.3       1 ATP         0.2222
     22 N9         -1.7127   -1.6108    1.2130 N.pl3     1 ATP        -0.1887
     23 C8         -3.0370   -1.2489    1.2455 C.ar      1 ATP         0.4447
     24 N7         -3.8008   -2.0709    0.5534 N.2       1 ATP        -0.6159
     25 C5         -2.9295   -2.9976    0.0567 C.ar      1 ATP         0.2195
     26 C6         -3.2152   -4.1411   -0.7786 C.ar      1 ATP         0.6144
     27 N6         -4.4238   -4.3865   -1.1456 N.2       1 ATP        -0.8160
     28 N1         -2.0349   -4.8186   -1.0521 N.pl3     1 ATP        -0.8611
     29 C2         -0.7728   -4.4501   -0.5916 C.ar      1 ATP         0.6141
     30 N3         -0.4885   -3.4234    0.1630 N.2       1 ATP        -0.5913
     31 C4         -1.6274   -2.7377    0.4492 C.ar      1 ATP         0.0067
     32 HOG3       -4.2881    6.8438   -3.2671 H         1 ATP         0.4313
     33 HOB2       -4.7073    5.7118    2.3388 H         1 ATP         0.4716
     34 H5'1       -1.1769    2.0503    0.6369 H         1 ATP         0.0452
     35 H5'2       -0.2081    3.2815    1.4877 H         1 ATP         0.0452
     36 H4'         0.0403    1.7078    3.4343 H         1 ATP         0.0998
     37 H3'         1.5906    1.4859    1.1353 H         1 ATP         0.0544
     38 HO3'        2.1521    0.9800    3.3017 H         1 ATP         0.3961
     39 H2'        -0.0017    0.0018    0.0005 H         1 ATP         0.0499
     40 HO2'        1.7495   -1.7243    1.4324 H         1 ATP         0.4045
     41 H1'        -0.1998   -1.6319    2.6178 H         1 ATP         0.0912
     42 H8         -3.3806   -0.3795    1.7893 H         1 ATP         0.1090
     43 HN62       -4.4384   -5.2300   -1.7295 H         1 ATP         0.3694
     44 H2          0.0180   -5.1355   -0.9348 H         1 ATP         0.0371
     45 H45        -2.0977   -5.6477   -1.6374 H         1 ATP         0.4283
@<TRIPOS>BOND
     1    1    2 2
     2    1    3 1
     3    1    4 1
     4    1    8 1
     5    4   32 1
     6    5    6 2
     7    5    7 1
     8    5    8 1
     9    5   12 1
    10    7   33 1
    11    9   10 2
    12    9   11 1
    13    9   12 1
    14    9   13 1
    15   13   14 1
    16   14   15 1
    17   14   34 1
    18   14   35 1
    19   15   16 1
    20   15   17 1
    21   15   36 1
    22   16   21 1
    23   17   18 1
    24   17   19 1
    25   17   37 1
    26   18   38 1
    27   19   20 1
    28   19   21 1
    29   19   39 1
    30   20   40 1
    31   21   22 1
    32   21   41 1
    33   22   23 ar
    34   22   31 ar
    35   23   24 ar
    36   23   42 1
    37   24   25 ar
    38   25   26 ar
    39   25   31 ar
    40   26   27 2
    41   26   28 ar
    42   27   43 1
    43   28   29 ar
    44   28   45 1
    45   29   30 ar
    46   29   44 1
    47   30   31 ar
@<TRIPOS>SUBSTRUCTURE
     1 ATP         1 GROUP 0 A     ****
@<TRIPOS>MOLECULE
[[[3,4-dihydroxy-5-(6-imino-1~{H}-purin-9-yl)tetrahydrofuran-2-yl]methoxy-oxido-phosphoryl]oxy-hydroxy-phosphoryl] hydrogen phosphate
   45    47     1     0     0
SMALL
USER_CHARGES

@<TRIPOS>ATOM
      1 PG         -5.8118   -1.5389    2.2623 P.3       1 ATP         1.5496
      2 O1G        -5.2857   -2.8178    2.8749 O.co2     1 ATP        -0.8494
      3 O2G        -6.2264   -1.4869    0.8088 O.co2     1 ATP        -0.8494
      4 O3G        -7.0536   -0.9996    3.1752 O.3       1 ATP        -0.7845
      5 PB         -4.0972    0.1725    3.9444 P.3       1 ATP         1.9068
      6 O1B        -5.0776    0.6515    4.9738 O.2       1 ATP        -0.8942
      7 O2B        -3.1673   -1.0661    4.4077 O.3       1 ATP        -0.8166
      8 O3B        -4.7494   -0.3367    2.5558 O.3       1 ATP        -0.8194
      9 PA         -3.2889    2.7003    2.6568 P.3       1 ATP         1.5903
     10 O1A        -3.9939    3.6416    3.6091 O.co2     1 ATP        -0.8519
     11 O2A        -3.8600    2.4177    1.2843 O.co2     1 ATP        -0.8519
     12 O3A        -3.0422    1.2742    3.4127 O.3       1 ATP        -0.8093
     13 O5'        -1.7337    3.1724    2.4752 O.3       1 ATP        -0.5649
     14 C5'        -0.8811    2.4285    1.6206 C.3       1 ATP         0.1979
     15 C4'        -0.1994    1.3333    2.4288 C.3       1 ATP         0.1179
     16 O4'        -1.1285    0.2356    2.5840 O.3       1 ATP        -0.3878
     17 C3'         1.0324    0.7610    1.7344 C.3       1 ATP         0.1185
     18 O3'         1.9175    0.2377    2.7247 O.3       1 ATP        -0.5544
     19 C2'         0.4468   -0.3802    0.9263 C.3       1 ATP         0.0542
     20 O2'         1.3993   -1.3703    0.5961 O.3       1 ATP        -0.5831
     21 C1'        -0.6159   -0.9100    1.8769 C.3       1 ATP         0.2222
     22 N9         -1.7127   -1.6108    1.2130 N.pl3     1 ATP        -0.1887
     23 C8         -2.0868   -2.9137    1.4327 C.ar      1 ATP         0.4447
     24 N7         -3.1125   -3.2756    0.6878 N.2       1 ATP        -0.6159
     25 C5         -3.4079   -2.1580   -0.0391 C.ar      1 ATP         0.2195
     26 C6         -4.4483   -1.9775   -1.0249 C.ar      1 ATP         0.6144
     27 N6         -5.2418   -2.9492   -1.3113 N.2       1 ATP        -0.8160
     28 N1         -4.3937   -0.6823   -1.5211 N.pl3     1 ATP        -0.8611
     29 C2         -3.4770    0.2901   -1.1271 C.ar      1 ATP         0.6141
     30 N3         -2.5289    0.1525   -0.2403 N.2       1 ATP        -0.5913
     31 C4         -2.5564   -1.1096    0.2655 C.ar      1 ATP         0.0067
     32 HOG3       -7.5054   -0.1715    2.9062 H         1 ATP         0.4313
     33 HOB2       -3.5952   -1.9101    4.6663 H         1 ATP         0.4716
     34 H5'1       -1.4801    1.9928    0.8147 H         1 ATP         0.0452
     35 H5'2       -0.1369    3.1041    1.1872 H         1 ATP         0.0452
     36 H4'         0.0403    1.7078    3.4343 H         1 ATP         0.0998
     37 H3'         1.5906    1.4859    1.1353 H         1 ATP         0.0544
     38 HO3'        2.6839   -0.1150    2.2479 H         1 ATP         0.3961
     39 H2'        -0.0017    0.0018    0.0005 H         1 ATP         0.0499
     40 HO2'        2.0953   -0.9375    0.0709 H         1 ATP         0.4045
     41 H1'        -0.1998   -1.6319    2.6178 H         1 ATP         0.0912
     42 H8         -1.5740   -3.5449    2.1457 H         1 ATP         0.1090
     43 HN62       -5.9117   -2.6433   -2.0256 H         1 ATP         0.3694
     44 H2         -3.6225    1.2454   -1.6553 H         1 ATP         0.0371
     45 H45        -5.0794   -0.4231   -2.2258 H         1 ATP         0.4283
@<TRIPOS>BOND
     1    1    2 2
     2    1    3 1
     3    1    4 1
     4    1    8 1
     5    4   32 1
     6    5    6 2
     7    5    7 1
     8    5    8 1
     9    5   12 1
    10    7   33 1
    11    9   10 2
    12    9   11 1
    13    9   12 1
    14    9   13 1
    15   13   14 1
    16   14   15 1
    17   14   34 1
    18   14   35 1
    19   15   16 1
    20   15   17 1
    21   15   36 1
    22   16   21 1
    23   17   18 1
    24   17   19 1
    25   17   37 1
    26   18   38 1
    27   19   20 1
    28   19   21 1
    29   19   39 1
    30   20   40 1
    31   21   22 1
    32   21   41 1
    33   22   23 ar
    34   22   31 ar
    35   23   24 ar
    36   23   42 1
    37   24   25 ar
    38   25   26 ar
    39   25   31 ar
    40   26   27 2
    41   26   28 ar
    42   27   43 1
    43   28   29 ar
    44   28   45 1
    45   29   30 ar
    46   29   44 1
    47   30   31 ar
@<TRIPOS>SUBSTRUCTURE
     1 ATP         1 GROUP 0 A     ****
@<TRIPOS>MOLECULE
[[[3,4-dihydroxy-5-(6-imino-1~{H}-purin-9-yl)tetrahydrofuran-2-yl]methoxy-oxido-phosphoryl]oxy-hydroxy-phosphoryl] hydrogen phosphate
   45    47     1     0     0
SMALL
USER_CHARGES

@<TRIPOS>ATOM
      1 PG         -6.9803    5.8126   -0.0875 P.3       1 ATP         1.5496
      2 O1G        -6.6128    7.0179   -0.9241 O.co2     1 ATP        -0.8494
      3 O2G        -7.8477    5.9562    1.1431 O.co2     1 ATP        -0.8494
      4 O3G        -7.6487    4.6879   -1.0645 O.3       1 ATP        -0.7845
      5 PB         -4.4165    4.4531   -0.6137 P.3       1 ATP         1.9068
      6 O1B        -4.8235    3.4460   -1.6483 O.2       1 ATP        -0.8942
      7 O2B        -3.7261    5.7937   -1.1965 O.3       1 ATP        -0.8166
      8 O3B        -5.6168    5.0124    0.3134 O.3       1 ATP        -0.8194
      9 PA         -3.5001    2.7196    1.5900 P.3       1 ATP         1.5903
     10 O1A        -3.5691    1.4028    0.8476 O.co2     1 ATP        -0.8519
     11 O2A        -4.5647    3.0962    2.5973 O.co2     1 ATP        -0.8519
     12 O3A        -3.3722    3.9309    0.5026 O.3       1 ATP        -0.8093
     13 O5'        -2.0402    2.8619    2.3130 O.3       1 ATP        -0.5649
     14 C5'        -0.8811    2.4285    1.6206 C.3       1 ATP         0.1979
     15 C4'        -0.1994    1.3333    2.4288 C.3       1 ATP         0.1179
     16 O4'        -1.1285    0.2356    2.5840 O.3       1 ATP        -0.3878
     17 C3'         1.0324    0.7610    1.7344 C.3       1 ATP         0.1185
     18 O3'         1.9175    0.2377    2.7247 O.3       1 ATP        -0.5544
     19 C2'         0.4468   -0.3802    0.9263 C.3       1 ATP         0.0542
     20 O2'         1.3993   -1.3703    0.5961 O.3       1 ATP        -0.5831
     21 C1'        -0.6159   -0.9100    1.8769 C.3       1 ATP         0.2222
     22 N9         -1.7127   -1.6108    1.2130 N.pl3     1 ATP        -0.1887
     23 C8         -3.0370   -1.2489    1.2455 C.ar      1 ATP         0.4447
     24 N7         -3.8008   -2.0709    0.5534 N.2       1 ATP        -0.6159
     25 C5         -2.9295   -2.9976    0.0567 C.ar      1 ATP         0.2195
     26 C6         -3.2152   -4.1411   -0.7786 C.ar      1 ATP         0.6144
     27 N6         -4.4238   -4.3865   -1.1456 N.2       1 ATP        -0.8160
     28 N1         -2.0349   -4.8186   -1.0521 N.pl3     1 ATP        -0.8611
     29 C2         -0.7728   -4.4501   -0.5916 C.ar      1 ATP         0.6141
     30 N3         -0.4885   -3.4234    0.1630 N.2       1 ATP        -0.5913
     31 C4         -1.6274   -2.7377    0.4492 C.ar      1 ATP         0.0067
     32 HOG3       -7.9426    3.8403   -0.6677 H         1 ATP         0.4313
     33 HOB2       -4.2345    6.3577   -1.8176 H         1 ATP         0.4716
     34 H5'1       -1.1769    2.0503    0.6369 H         1 ATP         0.0452
     35 H5'2       -0.2081    3.2815    1.4877 H         1 ATP         0.0452
     36 H4'         0.0403    1.7078    3.4343 H         1 ATP         0.0998
     37 H3'         1.5906    1.4859    1.1353 H         1 ATP         0.0544
     38 HO3'        2.1521    0.9800    3.3017 H         1 ATP         0.3961
     39 H2'        -0.0017    0.0018    0.0005 H         1 ATP         0.0499
     40 HO2'        1.7495   -1.7243    1.4324 H         1 ATP         0.4045
     41 H1'        -0.1998   -1.6319    2.6178 H         1 ATP         0.0912
     42 H8         -3.3806   -0.3795    1.7893 H         1 ATP         0.1090
     43 HN62       -4.4384   -5.2300   -1.7295 H         1 ATP         0.3694
     44 H2          0.0180   -5.1355   -0.9348 H         1 ATP         0.0371
     45 H45        -2.0977   -5.6477   -1.6374 H         1 ATP         0.4283
@<TRIPOS>BOND
     1    1    2 2
     2    1    3 1
     3    1    4 1
     4    1    8 1
     5    4   32 1
     6    5    6 2
     7    5    7 1
     8    5    8 1
     9    5   12 1
    10    7   33 1
    11    9   10 2
    12    9   11 1
    13    9   12 1
    14    9   13 1
    15   13   14 1
    16   14   15 1
    17   14   34 1
    18   14   35 1
    19   15   16 1
    20   15   17 1
    21   15   36 1
    22   16   21 1
    23   17   18 1
    24   17   19 1
    25   17   37 1
    26   18   38 1
    27   19   20 1
    28   19   21 1
    29   19   39 1
    30   20   40 1
    31   21   22 1
    32   21   41 1
    33   22   23 ar
    34   22   31 ar
    35   23   24 ar
    36   23   42 1
    37   24   25 ar
    38   25   26 ar
    39   25   31 ar
    40   26   27 2
    41   26   28 ar
    42   27   43 1
    43   28   29 ar
    44   28   45 1
    45   29   30 ar
    46   29   44 1
    47   30   31 ar
@<TRIPOS>SUBSTRUCTURE
     1 ATP         1 GROUP 0 A     ****
@<TRIPOS>MOLECULE
[[[3,4-dihydroxy-5-(6-imino-1~{H}-purin-9-yl)tetrahydrofuran-2-yl]methoxy-oxido-phosphoryl]oxy-hydroxy-phosphoryl] hydrogen phosphate
   45    47     1     0     0
SMALL
USER_CHARGES

@<TRIPOS>ATOM
      1 PG          2.0580    1.7259    5.8485 P.3       1 ATP         1.5496
      2 O1G         1.0410    0.9355    5.0558 O.co2     1 ATP        -0.8494
      3 O2G         1.8873    1.9405    7.3359 O.co2     1 ATP        -0.8494
      4 O3G         3.5352    1.0825    5.5837 O.3       1 ATP        -0.7845
      5 PB          1.2797    4.4233    4.9449 P.3       1 ATP         1.9068
      6 O1B         0.7761    5.0284    6.2218 O.2       1 ATP        -0.8942
      7 O2B         2.0964    5.4339    3.9830 O.3       1 ATP        -0.8166
      8 O3B         2.2847    3.1702    5.1254 O.3       1 ATP        -0.8194
      9 PA         -1.1367    4.4807    3.2541 P.3       1 ATP         1.5903
     10 O1A        -0.6447    5.4904    2.2401 O.co2     1 ATP        -0.8519
     11 O2A        -2.1237    4.8817    4.3287 O.co2     1 ATP        -0.8519
     12 O3A         0.1537    3.7882    3.9763 O.3       1 ATP        -0.8093
     13 O5'        -1.7337    3.1724    2.4752 O.3       1 ATP        -0.5649
     14 C5'        -0.8811    2.4285    1.6206 C.3       1 ATP         0.1979
     15 C4'        -0.1994    1.3333    2.4288 C.3       1 ATP         0.1179
     16 O4'        -1.1285    0.2356    2.5840 O.3       1 ATP        -0.3878
     17 C3'         1.0324    0.7610    1.7344 C.3       1 ATP         0.1185
     18 O3'         1.9175    0.2377    2.7247 O.3       1 ATP        -0.5544
     19 C2'         0.4468   -0.3802    0.9263 C.3       1 ATP         0.0542
     20 O2'         1.3993   -1.3703    0.5961 O.3       1 ATP        -0.5831
     21 C1'        -0.6159   -0.9100    1.8769 C.3       1 ATP         0.2222
     22 N9         -1.7127   -1.6108    1.2130 N.pl3     1 ATP        -0.1887
     23 C8         -2.8662   -1.0361    0.7388 C.ar      1 ATP         0.4447
     24 N7         -3.6774   -1.9166    0.1867 N.2       1 ATP        -0.6159
     25 C5         -3.0159   -3.1045    0.3123 C.ar      1 ATP         0.2195
     26 C6         -3.4377   -4.4169   -0.1199 C.ar      1 ATP         0.6144
     27 N6         -4.5720   -4.5691   -0.7080 N.2       1 ATP        -0.8160
     28 N1         -2.4600   -5.3463    0.2071 N.pl3     1 ATP        -0.8611
     29 C2         -1.2595   -5.0554    0.8515 C.ar      1 ATP         0.6141
     30 N3         -0.8555   -3.8803    1.2516 N.2       1 ATP        -0.5913
     31 C4         -1.7946   -2.9457    0.9448 C.ar      1 ATP         0.0067
     32 HOG3        4.3080    1.4878    6.0318 H         1 ATP         0.4313
     33 HOB2        2.9124    5.8583    4.3242 H         1 ATP         0.4716
     34 H5'1       -1.4801    1.9928    0.8147 H         1 ATP         0.0452
     35 H5'2       -0.1369    3.1041    1.1872 H         1 ATP         0.0452
     36 H4'         0.0403    1.7078    3.4343 H         1 ATP         0.0998
     37 H3'         1.5906    1.4859    1.1353 H         1 ATP         0.0544
     38 HO3'        2.1521    0.9800    3.3017 H         1 ATP         0.3961
     39 H2'        -0.0017    0.0018    0.0005 H         1 ATP         0.0499
     40 HO2'        1.7495   -1.7243    1.4324 H         1 ATP         0.4045
     41 H1'        -0.1998   -1.6319    2.6178 H         1 ATP         0.0912
     42 H8         -3.0558    0.0252    0.8256 H         1 ATP         0.1090
     43 HN62       -4.7047   -5.5592   -0.9421 H         1 ATP         0.3694
     44 H2         -0.6372   -5.9505    1.0077 H         1 ATP         0.0371
     45 H45        -2.6338   -6.3155   -0.0469 H         1 ATP         0.4283
@<TRIPOS>BOND
     1    1    2 2
     2    1    3 1
     3    1    4 1
     4    1    8 1
     5    4   32 1
     6    5    6 2
     7    5    7 1
     8    5    8 1
     9    5   12 1
    10    7   33 1
    11    9   10 2
    12    9   11 1
    13    9   12 1
    14    9   13 1
    15   13   14 1
    16   14   15 1
    17   14   34 1
    18   14   35 1
    19   15   16 1
    20   15   17 1
    21   15   36 1
    22   16   21 1
    23   17   18 1
    24   17   19 1
    25   17   37 1
    26   18   38 1
    27   19   20 1
    28   19   21 1
    29   19   39 1
    30   20   40 1
    31   21   22 1
    32   21   41 1
    33   22   23 ar
    34   22   31 ar
    35   23   24 ar
    36   23   42 1
    37   24   25 ar
    38   25   26 ar
    39   25   31 ar
    40   26   27 2
    41   26   28 ar
    42   27   43 1
    43   28   29 ar
    44   28   45 1
    45   29   30 ar
    46   29   44 1
    47   30   31 ar
@<TRIPOS>SUBSTRUCTURE
     1 ATP         1 GROUP 0 A     ****
@<TRIPOS>MOLECULE
[[[3,4-dihydroxy-5-(6-imino-1~{H}-purin-9-yl)tetrahydrofuran-2-yl]methoxy-oxido-phosphoryl]oxy-hydroxy-phosphoryl] hydrogen phosphate
   45    47     1     0     0
SMALL
USER_CHARGES

@<TRIPOS>ATOM
      1 PG          1.1570    1.6052    6.3676 P.3       1 ATP         1.5496
      2 O1G         1.7934    1.4775    7.7338 O.co2     1 ATP        -0.8494
      3 O2G         1.7325    2.5393    5.3267 O.co2     1 ATP        -0.8494
      4 O3G         1.0308    0.1145    5.7133 O.3       1 ATP        -0.7845
      5 PB         -1.6186    2.0175    5.4601 P.3       1 ATP         1.9068
      6 O1B        -1.8627    0.7615    4.6771 O.2       1 ATP        -0.8942
      7 O2B        -2.8845    2.5505    6.3128 O.3       1 ATP        -0.8166
      8 O3B        -0.4308    1.9286    6.5528 O.3       1 ATP        -0.8194
      9 PA         -1.9154    4.0917    3.3839 P.3       1 ATP         1.5903
     10 O1A        -0.9828    5.1481    2.8324 O.co2     1 ATP        -0.8519
     11 O2A        -3.3086    4.4564    3.8487 O.co2     1 ATP        -0.8519
     12 O3A        -1.1597    3.3045    4.5985 O.3       1 ATP        -0.8093
     13 O5'        -2.0402    2.8619    2.3130 O.3       1 ATP        -0.5649
     14 C5'        -0.8811    2.4285    1.6206 C.3       1 ATP         0.1979
     15 C4'        -0.1994    1.3333    2.4288 C.3       1 ATP         0.1179
     16 O4'        -1.1285    0.2356    2.5840 O.3       1 ATP        -0.3878
     17 C3'         1.0324    0.7610    1.7344 C.3       1 ATP         0.1185
     18 O3'         1.9175    0.2377    2.7247 O.3       1 ATP        -0.5544
     19 C2'         0.4468   -0.3802    0.9263 C.3       1 ATP         0.0542
     20 O2'         1.3993   -1.3703    0.5961 O.3       1 ATP        -0.5831
     21 C1'        -0.6159   -0.9100    1.8769 C.3       1 ATP         0.2222
     22 N9         -1.7127   -1.6108    1.2130 N.pl3     1 ATP        -0.1887
     23 C8         -2.8662   -1.0361    0.7388 C.ar      1 ATP         0.4447
     24 N7         -3.6774   -1.9166    0.1867 N.2       1 ATP        -0.6159
     25 C5         -3.0159   -3.1045    0.3123 C.ar      1 ATP         0.2195
     26 C6         -3.4377   -4.4169   -0.1199 C.ar      1 ATP         0.6144
     27 N6         -4.5720   -4.5691   -0.7080 N.2       1 ATP        -0.8160
     28 N1         -2.4600   -5.3463    0.2071 N.pl3     1 ATP        -0.8611
     29 C2         -1.2595   -5.0554    0.8515 C.ar      1 ATP         0.6141
     30 N3         -0.8555   -3.8803    1.2516 N.2       1 ATP        -0.5913
     31 C4         -1.7946   -2.9457    0.9448 C.ar      1 ATP         0.0067
     32 HOG3        0.6343    0.0288    4.8202 H         1 ATP         0.4313
     33 HOB2       -3.7118    2.7823    5.8394 H         1 ATP         0.4716
     34 H5'1       -1.1769    2.0503    0.6369 H         1 ATP         0.0452
     35 H5'2       -0.2081    3.2815    1.4877 H         1 ATP         0.0452
     36 H4'         0.0403    1.7078    3.4343 H         1 ATP         0.0998
     37 H3'         1.5906    1.4859    1.1353 H         1 ATP         0.0544
     38 HO3'        2.6839   -0.1150    2.2479 H         1 ATP         0.3961
     39 H2'        -0.0017    0.0018    0.0005 H         1 ATP         0.0499
     40 HO2'        2.0953   -0.9375    0.0709 H         1 ATP         0.4045
     41 H1'        -0.1998   -1.6319    2.6178 H         1 ATP         0.0912
     42 H8         -3.0558    0.0252    0.8256 H         1 ATP         0.1090
     43 HN62       -4.7047   -5.5592   -0.9421 H         1 ATP         0.3694
     44 H2         -0.6372   -5.9505    1.0077 H         1 ATP         0.0371
     45 H45        -2.6338   -6.3155   -0.0469 H         1 ATP         0.4283
@<TRIPOS>BOND
     1    1    2 2
     2    1    3 1
     3    1    4 1
     4    1    8 1
     5    4   32 1
     6    5    6 2
     7    5    7 1
     8    5    8 1
     9    5   12 1
    10    7   33 1
    11    9   10 2
    12    9   11 1
    13    9   12 1
    14    9   13 1
    15   13   14 1
    16   14   15 1
    17   14   34 1
    18   14   35 1
    19   15   16 1
    20   15   17 1
    21   15   36 1
    22   16   21 1
    23   17   18 1
    24   17   19 1
    25   17   37 1
    26   18   38 1
    27   19   20 1
    28   19   21 1
    29   19   39 1
    30   20   40 1
    31   21   22 1
    32   21   41 1
    33   22   23 ar
    34   22   31 ar
    35   23   24 ar
    36   23   42 1
    37   24   25 ar
    38   25   26 ar
    39   25   31 ar
    40   26   27 2
    41   26   28 ar
    42   27   43 1
    43   28   29 ar
    44   28   45 1
    45   29   30 ar
    46   29   44 1
    47   30   31 ar
@<TRIPOS>SUBSTRUCTURE
     1 ATP         1 GROUP 0 A     ****
@<TRIPOS>MOLECULE
[[[3,4-dihydroxy-5-(6-imino-1~{H}-purin-9-yl)tetrahydrofuran-2-yl]methoxy-oxido-phosphoryl]oxy-hydroxy-phosphoryl] hydrogen phosphate
   45    47     1     0     0
SMALL
USER_CHARGES

@<TRIPOS>ATOM
      1 PG          1.0980    1.6832    7.6946 P.3       1 ATP         1.5496
      2 O1G         0.9192    0.2020    7.4461 O.co2     1 ATP        -0.8494
      3 O2G         0.4117    2.3643    8.8575 O.co2     1 ATP        -0.8494
      4 O3G         2.6966    2.0060    7.7747 O.3       1 ATP        -0.7845
      5 PB         -0.6499    2.6773    5.5371 P.3       1 ATP         1.9068
      6 O1B        -1.2898    1.4050    5.0659 O.2       1 ATP        -0.8942
      7 O2B        -1.5463    3.5602    6.5523 O.3       1 ATP        -0.8166
      8 O3B         0.7508    2.4944    6.3229 O.3       1 ATP        -0.8194
      9 PA         -1.1367    4.4807    3.2541 P.3       1 ATP         1.5903
     10 O1A        -0.2214    5.2471    2.3243 O.co2     1 ATP        -0.8519
     11 O2A        -2.2825    5.1752    3.9574 O.co2     1 ATP        -0.8519
     12 O3A        -0.2287    3.7225    4.3797 O.3       1 ATP        -0.8093
     13 O5'        -1.7337    3.1724    2.4752 O.3       1 ATP        -0.5649
     14 C5'        -0.8811    2.4285    1.6206 C.3       1 ATP         0.1979
     15 C4'        -0.1994    1.3333    2.4288 C.3       1 ATP         0.1179
     16 O4'        -1.1285    0.2356    2.5840 O.3       1 ATP        -0.3878
     17 C3'         1.0324    0.7610    1.7344 C.3       1 ATP         0.1185
     18 O3'         1.9175    0.2377    2.7247 O.3       1 ATP        -0.5544
     19 C2'         0.4468   -0.3802    0.9263 C.3       1 ATP         0.0542
     20 O2'         1.3993   -1.3703    0.5961 O.3       1 ATP        -0.5831
     21 C1'        -0.6159   -0.9100    1.8769 C.3       1 ATP         0.2222
     22 N9         -1.7127   -1.6108    1.2130 N.pl3     1 ATP        -0.1887
     23 C8         -2.5485   -1.0808    0.2609 C.ar      1 ATP         0.4447
     24 N7         -3.4476   -1.9486   -0.1593 N.2       1 ATP        -0.6159
     25 C5         -3.1762   -3.0816    0.5530 C.ar      1 ATP         0.2195
     26 C6         -3.8510   -4.3579    0.5006 C.ar      1 ATP         0.6144
     27 N6         -4.8468   -4.5293   -0.2961 N.2       1 ATP        -0.8160
     28 N1         -3.2499   -5.2342    1.3937 N.pl3     1 ATP        -0.8611
     29 C2         -2.1646   -4.9275    2.2116 C.ar      1 ATP         0.6141
     30 N3         -1.5382   -3.7840    2.2778 N.2       1 ATP        -0.5913
     31 C4         -2.1054   -2.9018    1.4120 C.ar      1 ATP         0.0067
     32 HOG3        2.9783    2.9322    7.9328 H         1 ATP         0.4313
     33 HOB2       -2.4194    3.8899    6.2503 H         1 ATP         0.4716
     34 H5'1       -1.4801    1.9928    0.8147 H         1 ATP         0.0452
     35 H5'2       -0.1369    3.1041    1.1872 H         1 ATP         0.0452
     36 H4'         0.0403    1.7078    3.4343 H         1 ATP         0.0998
     37 H3'         1.5906    1.4859    1.1353 H         1 ATP         0.0544
     38 HO3'        2.1521    0.9800    3.3017 H         1 ATP         0.3961
     39 H2'        -0.0017    0.0018    0.0005 H         1 ATP         0.0499
     40 HO2'        0.9369   -2.0558    0.0825 H         1 ATP         0.4045
     41 H1'        -0.1998   -1.6319    2.6178 H         1 ATP         0.0912
     42 H8         -2.4515   -0.0599   -0.0829 H         1 ATP         0.1090
     43 HN62       -5.1990   -5.4882   -0.2004 H         1 ATP         0.3694
     44 H2         -1.8555   -5.7783    2.8388 H         1 ATP         0.0371
     45 H45        -3.6312   -6.1750    1.4526 H         1 ATP         0.4283
@<TRIPOS>BOND
     1    1    2 2
     2    1    3 1
     3    1    4 1
     4    1    8 1
     5    4   32 1
     6    5    6 2
     7    5    7 1
     8    5    8 1
     9    5   12 1
    10    7   33 1
    11    9   10 2
    12    9   11 1
    13    9   12 1
    14    9   13 1
    15   13   14 1
    16   14   15 1
    17   14   34 1
    18   14   35 1
    19   15   16 1
    20   15   17 1
    21   15   36 1
    22   16   21 1
    23   17   18 1
    24   17   19 1
    25   17   37 1
    26   18   38 1
    27   19   20 1
    28   19   21 1
    29   19   39 1
    30   20   40 1
    31   21   22 1
    32   21   41 1
    33   22   23 ar
    34   22   31 ar
    35   23   24 ar
    36   23   42 1
    37   24   25 ar
    38   25   26 ar
    39   25   31 ar
    40   26   27 2
    41   26   28 ar
    42   27   43 1
    43   28   29 ar
    44   28   45 1
    45   29   30 ar
    46   29   44 1
    47   30   31 ar
@<TRIPOS>SUBSTRUCTURE
     1 ATP         1 GROUP 0 A     ****
@<TRIPOS>MOLECULE
[[[3,4-dihydroxy-5-(6-imino-1~{H}-purin-9-yl)tetrahydrofuran-2-yl]methoxy-oxido-phosphoryl]oxy-hydroxy-phosphoryl] hydrogen phosphate
   45    47     1     0     0
SMALL
USER_CHARGES

@<TRIPOS>ATOM
      1 PG          1.1570    1.6052    6.3676 P.3       1 ATP         1.5496
      2 O1G         1.8013    2.7377    5.5995 O.co2     1 ATP        -0.8494
      3 O2G         1.3189    0.1703    5.9177 O.co2     1 ATP        -0.8494
      4 O3G         1.6151    1.7129    7.9312 O.3       1 ATP        -0.7845
      5 PB         -1.6186    2.0175    5.4601 P.3       1 ATP         1.9068
      6 O1B        -1.8627    0.7615    4.6771 O.2       1 ATP        -0.8942
      7 O2B        -2.8845    2.5505    6.3128 O.3       1 ATP        -0.8166
      8 O3B        -0.4308    1.9286    6.5528 O.3       1 ATP        -0.8194
      9 PA         -1.9154    4.0917    3.3839 P.3       1 ATP         1.5903
     10 O1A        -0.9828    5.1481    2.8324 O.co2     1 ATP        -0.8519
     11 O2A        -3.3086    4.4564    3.8487 O.co2     1 ATP        -0.8519
     12 O3A        -1.1597    3.3045    4.5985 O.3       1 ATP        -0.8093
     13 O5'        -2.0402    2.8619    2.3130 O.3       1 ATP        -0.5649
     14 C5'        -0.8811    2.4285    1.6206 C.3       1 ATP         0.1979
     15 C4'        -0.1994    1.3333    2.4288 C.3       1 ATP         0.1179
     16 O4'        -1.1285    0.2356    2.5840 O.3       1 ATP        -0.3878
     17 C3'         1.0324    0.7610    1.7344 C.3       1 ATP         0.1185
     18 O3'         1.9175    0.2377    2.7247 O.3       1 ATP        -0.5544
     19 C2'         0.4468   -0.3802    0.9263 C.3       1 ATP         0.0542
     20 O2'         1.3993   -1.3703    0.5961 O.3       1 ATP        -0.5831
     21 C1'        -0.6159   -0.9100    1.8769 C.3       1 ATP         0.2222
     22 N9         -1.7127   -1.6108    1.2130 N.pl3     1 ATP        -0.1887
     23 C8         -2.5485   -1.0808    0.2609 C.ar      1 ATP         0.4447
     24 N7         -3.4476   -1.9486   -0.1593 N.2       1 ATP        -0.6159
     25 C5         -3.1762   -3.0816    0.5530 C.ar      1 ATP         0.2195
     26 C6         -3.8510   -4.3579    0.5006 C.ar      1 ATP         0.6144
     27 N6         -4.8468   -4.5293   -0.2961 N.2       1 ATP        -0.8160
     28 N1         -3.2499   -5.2342    1.3937 N.pl3     1 ATP        -0.8611
     29 C2         -2.1646   -4.9275    2.2116 C.ar      1 ATP         0.6141
     30 N3         -1.5382   -3.7840    2.2778 N.2       1 ATP        -0.5913
     31 C4         -2.1054   -2.9018    1.4120 C.ar      1 ATP         0.0067
     32 HOG3        1.2775    1.0435    8.5636 H         1 ATP         0.4313
     33 HOB2       -3.2692    1.9703    7.0039 H         1 ATP         0.4716
     34 H5'1       -1.1769    2.0503    0.6369 H         1 ATP         0.0452
     35 H5'2       -0.2081    3.2815    1.4877 H         1 ATP         0.0452
     36 H4'         0.0403    1.7078    3.4343 H         1 ATP         0.0998
     37 H3'         1.5906    1.4859    1.1353 H         1 ATP         0.0544
     38 HO3'        2.6839   -0.1150    2.2479 H         1 ATP         0.3961
     39 H2'        -0.0017    0.0018    0.0005 H         1 ATP         0.0499
     40 HO2'        0.9369   -2.0558    0.0825 H         1 ATP         0.4045
     41 H1'        -0.1998   -1.6319    2.6178 H         1 ATP         0.0912
     42 H8         -2.4515   -0.0599   -0.0829 H         1 ATP         0.1090
     43 HN62       -5.1990   -5.4882   -0.2004 H         1 ATP         0.3694
     44 H2         -1.8555   -5.7783    2.8388 H         1 ATP         0.0371
     45 H45        -3.6312   -6.1750    1.4526 H         1 ATP         0.4283
@<TRIPOS>BOND
     1    1    2 2
     2    1    3 1
     3    1    4 1
     4    1    8 1
     5    4   32 1
     6    5    6 2
     7    5    7 1
     8    5    8 1
     9    5   12 1
    10    7   33 1
    11    9   10 2
    12    9   11 1
    13    9   12 1
    14    9   13 1
    15   13   14 1
    16   14   15 1
    17   14   34 1
    18   14   35 1
    19   15   16 1
    20   15   17 1
    21   15   36 1
    22   16   21 1
    23   17   18 1
    24   17   19 1
    25   17   37 1
    26   18   38 1
    27   19   20 1
    28   19   21 1
    29   19   39 1
    30   20   40 1
    31   21   22 1
    32   21   41 1
    33   22   23 ar
    34   22   31 ar
    35   23   24 ar
    36   23   42 1
    37   24   25 ar
    38   25   26 ar
    39   25   31 ar
    40   26   27 2
    41   26   28 ar
    42   27   43 1
    43   28   29 ar
    44   28   45 1
    45   29   30 ar
    46   29   44 1
    47   30   31 ar
@<TRIPOS>SUBSTRUCTURE
     1 ATP         1 GROUP 0 A     ****
@<TRIPOS>MOLECULE
[[[3,4-dihydroxy-5-(6-imino-1~{H}-purin-9-yl)tetrahydrofuran-2-yl]methoxy-oxido-phosphoryl]oxy-hydroxy-phosphoryl] hydrogen phosphate
   45    47     1     0     0
SMALL
USER_CHARGES

@<TRIPOS>ATOM
      1 PG          1.1570    1.6052    6.3676 P.3       1 ATP         1.5496
      2 O1G         1.7934    1.4775    7.7338 O.co2     1 ATP        -0.8494
      3 O2G         1.7325    2.5393    5.3267 O.co2     1 ATP        -0.8494
      4 O3G         1.0308    0.1145    5.7133 O.3       1 ATP        -0.7845
      5 PB         -1.6186    2.0175    5.4601 P.3       1 ATP         1.9068
      6 O1B        -1.8627    0.7615    4.6771 O.2       1 ATP        -0.8942
      7 O2B        -2.8845    2.5505    6.3128 O.3       1 ATP        -0.8166
      8 O3B        -0.4308    1.9286    6.5528 O.3       1 ATP        -0.8194
      9 PA         -1.9154    4.0917    3.3839 P.3       1 ATP         1.5903
     10 O1A        -0.9828    5.1481    2.8324 O.co2     1 ATP        -0.8519
     11 O2A        -3.3086    4.4564    3.8487 O.co2     1 ATP        -0.8519
     12 O3A        -1.1597    3.3045    4.5985 O.3       1 ATP        -0.8093
     13 O5'        -2.0402    2.8619    2.3130 O.3       1 ATP        -0.5649
     14 C5'        -0.8811    2.4285    1.6206 C.3       1 ATP         0.1979
     15 C4'        -0.1994    1.3333    2.4288 C.3       1 ATP         0.1179
     16 O4'        -1.1285    0.2356    2.5840 O.3       1 ATP        -0.3878
     17 C3'         1.0324    0.7610    1.7344 C.3       1 ATP         0.1185
     18 O3'         1.9175    0.2377    2.7247 O.3       1 ATP        -0.5544
     19 C2'         0.4468   -0.3802    0.9263 C.3       1 ATP         0.0542
     20 O2'         1.3993   -1.3703    0.5961 O.3       1 ATP        -0.5831
     21 C1'        -0.6159   -0.9100    1.8769 C.3       1 ATP         0.2222
     22 N9         -1.7127   -1.6108    1.2130 N.pl3     1 ATP        -0.1887
     23 C8         -1.7690   -2.9583    0.9549 C.ar      1 ATP         0.4447
     24 N7         -2.8827   -3.3076    0.3418 N.2       1 ATP        -0.6159
     25 C5         -3.5683   -2.1351    0.2017 C.ar      1 ATP         0.2195
     26 C6         -4.8617   -1.9185   -0.4044 C.ar      1 ATP         0.6144
     27 N6         -5.5166   -2.9094   -0.8994 N.2       1 ATP        -0.8160
     28 N1         -5.1836   -0.5701   -0.3344 N.pl3     1 ATP        -0.8611
     29 C2         -4.3821    0.4180    0.2330 C.ar      1 ATP         0.6141
     30 N3         -3.2117    0.2488    0.7860 N.2       1 ATP        -0.5913
     31 C4         -2.8672   -1.0657    0.7327 C.ar      1 ATP         0.0067
     32 HOG3        0.6343    0.0288    4.8202 H         1 ATP         0.4313
     33 HOB2       -3.7118    2.7823    5.8394 H         1 ATP         0.4716
     34 H5'1       -1.1769    2.0503    0.6369 H         1 ATP         0.0452
     35 H5'2       -0.2081    3.2815    1.4877 H         1 ATP         0.0452
     36 H4'         0.0403    1.7078    3.4343 H         1 ATP         0.0998
     37 H3'         1.5906    1.4859    1.1353 H         1 ATP         0.0544
     38 HO3'        2.6839   -0.1150    2.2479 H         1 ATP         0.3961
     39 H2'        -0.0017    0.0018    0.0005 H         1 ATP         0.0499
     40 HO2'        2.0953   -0.9375    0.0709 H         1 ATP         0.4045
     41 H1'        -0.1998   -1.6319    2.6178 H         1 ATP         0.0912
     42 H8         -0.9697   -3.6300    1.2371 H         1 ATP         0.1090
     43 HN62       -6.4060   -2.5723   -1.2840 H         1 ATP         0.3694
     44 H2         -4.8409    1.4176    0.1757 H         1 ATP         0.0371
     45 H45        -6.0768   -0.2826   -0.7263 H         1 ATP         0.4283
@<TRIPOS>BOND
     1    1    2 2
     2    1    3 1
     3    1    4 1
     4    1    8 1
     5    4   32 1
     6    5    6 2
     7    5    7 1
     8    5    8 1
     9    5   12 1
    10    7   33 1
    11    9   10 2
    12    9   11 1
    13    9   12 1
    14    9   13 1
    15   13   14 1
    16   14   15 1
    17   14   34 1
    18   14   35 1
    19   15   16 1
    20   15   17 1
    21   15   36 1
    22   16   21 1
    23   17   18 1
    24   17   19 1
    25   17   37 1
    26   18   38 1
    27   19   20 1
    28   19   21 1
    29   19   39 1
    30   20   40 1
    31   21   22 1
    32   21   41 1
    33   22   23 ar
    34   22   31 ar
    35   23   24 ar
    36   23   42 1
    37   24   25 ar
    38   25   26 ar
    39   25   31 ar
    40   26   27 2
    41   26   28 ar
    42   27   43 1
    43   28   29 ar
    44   28   45 1
    45   29   30 ar
    46   29   44 1
    47   30   31 ar
@<TRIPOS>SUBSTRUCTURE
     1 ATP         1 GROUP 0 A     ****
@<TRIPOS>MOLECULE
[[[3,4-dihydroxy-5-(6-imino-1~{H}-purin-9-yl)tetrahydrofuran-2-yl]methoxy-oxido-phosphoryl]oxy-hydroxy-phosphoryl] hydrogen phosphate
   45    47     1     0     0
SMALL
USER_CHARGES

@<TRIPOS>ATOM
      1 PG          2.0580    1.7259    5.8485 P.3       1 ATP         1.5496
      2 O1G         1.0410    0.9355    5.0558 O.co2     1 ATP        -0.8494
      3 O2G         1.8873    1.9405    7.3359 O.co2     1 ATP        -0.8494
      4 O3G         3.5352    1.0825    5.5837 O.3       1 ATP        -0.7845
      5 PB          1.2797    4.4233    4.9449 P.3       1 ATP         1.9068
      6 O1B         0.7761    5.0284    6.2218 O.2       1 ATP        -0.8942
      7 O2B         2.0964    5.4339    3.9830 O.3       1 ATP        -0.8166
      8 O3B         2.2847    3.1702    5.1254 O.3       1 ATP        -0.8194
      9 PA         -1.1367    4.4807    3.2541 P.3       1 ATP         1.5903
     10 O1A        -0.6447    5.4904    2.2401 O.co2     1 ATP        -0.8519
     11 O2A        -2.1237    4.8817    4.3287 O.co2     1 ATP        -0.8519
     12 O3A         0.1537    3.7882    3.9763 O.3       1 ATP        -0.8093
     13 O5'        -1.7337    3.1724    2.4752 O.3       1 ATP        -0.5649
     14 C5'        -0.8811    2.4285    1.6206 C.3       1 ATP         0.1979
     15 C4'        -0.1994    1.3333    2.4288 C.3       1 ATP         0.1179
     16 O4'        -1.1285    0.2356    2.5840 O.3       1 ATP        -0.3878
     17 C3'         1.0324    0.7610    1.7344 C.3       1 ATP         0.1185
     18 O3'         1.9175    0.2377    2.7247 O.3       1 ATP        -0.5544
     19 C2'         0.4468   -0.3802    0.9263 C.3       1 ATP         0.0542
     20 O2'         1.3993   -1.3703    0.5961 O.3       1 ATP        -0.5831
     21 C1'        -0.6159   -0.9100    1.8769 C.3       1 ATP         0.2222
     22 N9         -1.7127   -1.6108    1.2130 N.pl3     1 ATP        -0.1887
     23 C8         -1.7690   -2.9583    0.9549 C.ar      1 ATP         0.4447
     24 N7         -2.8827   -3.3076    0.3418 N.2       1 ATP        -0.6159
     25 C5         -3.5683   -2.1351    0.2017 C.ar      1 ATP         0.2195
     26 C6         -4.8617   -1.9185   -0.4044 C.ar      1 ATP         0.6144
     27 N6         -5.5166   -2.9094   -0.8994 N.2       1 ATP        -0.8160
     28 N1         -5.1836   -0.5701   -0.3344 N.pl3     1 ATP        -0.8611
     29 C2         -4.3821    0.4180    0.2330 C.ar      1 ATP         0.6141
     30 N3         -3.2117    0.2488    0.7860 N.2       1 ATP        -0.5913
     31 C4         -2.8672   -1.0657    0.7327 C.ar      1 ATP         0.0067
     32 HOG3        4.3080    1.4878    6.0318 H         1 ATP         0.4313
     33 HOB2        2.9124    5.8583    4.3242 H         1 ATP         0.4716
     34 H5'1       -1.4801    1.9928    0.8147 H         1 ATP         0.0452
     35 H5'2       -0.1369    3.1041    1.1872 H         1 ATP         0.0452
     36 H4'         0.0403    1.7078    3.4343 H         1 ATP         0.0998
     37 H3'         1.5906    1.4859    1.1353 H         1 ATP         0.0544
     38 HO3'        2.1521    0.9800    3.3017 H         1 ATP         0.3961
     39 H2'        -0.0017    0.0018    0.0005 H         1 ATP         0.0499
     40 HO2'        1.7495   -1.7243    1.4324 H         1 ATP         0.4045
     41 H1'        -0.1998   -1.6319    2.6178 H         1 ATP         0.0912
     42 H8         -0.9697   -3.6300    1.2371 H         1 ATP         0.1090
     43 HN62       -6.4060   -2.5723   -1.2840 H         1 ATP         0.3694
     44 H2         -4.8409    1.4176    0.1757 H         1 ATP         0.0371
     45 H45        -6.0768   -0.2826   -0.7263 H         1 ATP         0.4283
@<TRIPOS>BOND
     1    1    2 2
     2    1    3 1
     3    1    4 1
     4    1    8 1
     5    4   32 1
     6    5    6 2
     7    5    7 1
     8    5    8 1
     9    5   12 1
    10    7   33 1
    11    9   10 2
    12    9   11 1
    13    9   12 1
    14    9   13 1
    15   13   14 1
    16   14   15 1
    17   14   34 1
    18   14   35 1
    19   15   16 1
    20   15   17 1
    21   15   36 1
    22   16   21 1
    23   17   18 1
    24   17   19 1
    25   17   37 1
    26   18   38 1
    27   19   20 1
    28   19   21 1
    29   19   39 1
    30   20   40 1
    31   21   22 1
    32   21   41 1
    33   22   23 ar
    34   22   31 ar
    35   23   24 ar
    36   23   42 1
    37   24   25 ar
    38   25   26 ar
    39   25   31 ar
    40   26   27 2
    41   26   28 ar
    42   27   43 1
    43   28   29 ar
    44   28   45 1
    45   29   30 ar
    46   29   44 1
    47   30   31 ar
@<TRIPOS>SUBSTRUCTURE
     1 ATP         1 GROUP 0 A     ****
@<TRIPOS>MOLECULE
[[[3,4-dihydroxy-5-(6-imino-1~{H}-purin-9-yl)tetrahydrofuran-2-yl]methoxy-oxido-phosphoryl]oxy-hydroxy-phosphoryl] hydrogen phosphate
   45    47     1     0     0
SMALL
USER_CHARGES

@<TRIPOS>ATOM
      1 PG         -0.2551    0.9556    7.8499 P.3       1 ATP         1.5496
      2 O1G        -0.0699   -0.4677    7.3729 O.co2     1 ATP        -0.8494
      3 O2G        -1.3147    1.3007    8.8724 O.co2     1 ATP        -0.8494
      4 O3G         1.1830    1.5142    8.3848 O.3       1 ATP        -0.7845
      5 PB         -1.6186    2.0175    5.4601 P.3       1 ATP         1.9068
      6 O1B        -1.8627    0.7615    4.6771 O.2       1 ATP        -0.8942
      7 O2B        -2.8845    2.5505    6.3128 O.3       1 ATP        -0.8166
      8 O3B        -0.4308    1.9286    6.5528 O.3       1 ATP        -0.8194
      9 PA         -1.9154    4.0917    3.3839 P.3       1 ATP         1.5903
     10 O1A        -0.9828    5.1481    2.8324 O.co2     1 ATP        -0.8519
     11 O2A        -3.3086    4.4564    3.8487 O.co2     1 ATP        -0.8519
     12 O3A        -1.1597    3.3045    4.5985 O.3       1 ATP        -0.8093
     13 O5'        -2.0402    2.8619    2.3130 O.3       1 ATP        -0.5649
     14 C5'        -0.8811    2.4285    1.6206 C.3       1 ATP         0.1979
     15 C4'        -0.1994    1.3333    2.4288 C.3       1 ATP         0.1179
     16 O4'        -1.1285    0.2356    2.5840 O.3       1 ATP        -0.3878
     17 C3'         1.0324    0.7610    1.7344 C.3       1 ATP         0.1185
     18 O3'         1.9175    0.2377    2.7247 O.3       1 ATP        -0.5544
     19 C2'         0.4468   -0.3802    0.9263 C.3       1 ATP         0.0542
     20 O2'         1.3993   -1.3703    0.5961 O.3       1 ATP        -0.5831
     21 C1'        -0.6159   -0.9100    1.8769 C.3       1 ATP         0.2222
     22 N9         -1.7127   -1.6108    1.2130 N.pl3     1 ATP        -0.1887
     23 C8         -1.7690   -2.9583    0.9549 C.ar      1 ATP         0.4447
     24 N7         -2.8827   -3.3076    0.3418 N.2       1 ATP        -0.6159
     25 C5         -3.5683   -2.1351    0.2017 C.ar      1 ATP         0.2195
     26 C6         -4.8617   -1.9185   -0.4044 C.ar      1 ATP         0.6144
     27 N6         -5.5166   -2.9094   -0.8994 N.2       1 ATP        -0.8160
     28 N1         -5.1836   -0.5701   -0.3344 N.pl3     1 ATP        -0.8611
     29 C2         -4.3821    0.4180    0.2330 C.ar      1 ATP         0.6141
     30 N3         -3.2117    0.2488    0.7860 N.2       1 ATP        -0.5913
     31 C4         -2.8672   -1.0657    0.7327 C.ar      1 ATP         0.0067
     32 HOG3        1.2283    2.4312    8.7300 H         1 ATP         0.4313
     33 HOB2       -3.7118    2.7823    5.8394 H         1 ATP         0.4716
     34 H5'1       -1.1769    2.0503    0.6369 H         1 ATP         0.0452
     35 H5'2       -0.2081    3.2815    1.4877 H         1 ATP         0.0452
     36 H4'         0.0403    1.7078    3.4343 H         1 ATP         0.0998
     37 H3'         1.5906    1.4859    1.1353 H         1 ATP         0.0544
     38 HO3'        2.6839   -0.1150    2.2479 H         1 ATP         0.3961
     39 H2'        -0.0017    0.0018    0.0005 H         1 ATP         0.0499
     40 HO2'        2.0953   -0.9375    0.0709 H         1 ATP         0.4045
     41 H1'        -0.1998   -1.6319    2.6178 H         1 ATP         0.0912
     42 H8         -0.9697   -3.6300    1.2371 H         1 ATP         0.1090
     43 HN62       -6.4060   -2.5723   -1.2840 H         1 ATP         0.3694
     44 H2         -4.8409    1.4176    0.1757 H         1 ATP         0.0371
     45 H45        -6.0768   -0.2826   -0.7263 H         1 ATP         0.4283
@<TRIPOS>BOND
     1    1    2 2
     2    1    3 1
     3    1    4 1
     4    1    8 1
     5    4   32 1
     6    5    6 2
     7    5    7 1
     8    5    8 1
     9    5   12 1
    10    7   33 1
    11    9   10 2
    12    9   11 1
    13    9   12 1
    14    9   13 1
    15   13   14 1
    16   14   15 1
    17   14   34 1
    18   14   35 1
    19   15   16 1
    20   15   17 1
    21   15   36 1
    22   16   21 1
    23   17   18 1
    24   17   19 1
    25   17   37 1
    26   18   38 1
    27   19   20 1
    28   19   21 1
    29   19   39 1
    30   20   40 1
    31   21   22 1
    32   21   41 1
    33   22   23 ar
    34   22   31 ar
    35   23   24 ar
    36   23   42 1
    37   24   25 ar
    38   25   26 ar
    39   25   31 ar
    40   26   27 2
    41   26   28 ar
    42   27   43 1
    43   28   29 ar
    44   28   45 1
    45   29   30 ar
    46   29   44 1
    47   30   31 ar
@<TRIPOS>SUBSTRUCTURE
     1 ATP         1 GROUP 0 A     ****
@<TRIPOS>MOLECULE
[[[3,4-dihydroxy-5-(6-imino-1~{H}-purin-9-yl)tetrahydrofuran-2-yl]methoxy-oxido-phosphoryl]oxy-hydroxy-phosphoryl] hydrogen phosphate
   45    47     1     0     0
SMALL
USER_CHARGES

@<TRIPOS>ATOM
      1 PG          3.1951    5.6290    5.3847 P.3       1 ATP         1.5496
      2 O1G         4.2351    4.6273    4.9345 O.co2     1 ATP        -0.8494
      3 O2G         2.8672    5.8027    6.8510 O.co2     1 ATP        -0.8494
      4 O3G         3.5784    7.0892    4.7627 O.3       1 ATP        -0.7845
      5 PB          0.7922    4.1118    4.5960 P.3       1 ATP         1.9068
      6 O1B         1.3892    2.7876    4.2210 O.2       1 ATP        -0.8942
      7 O2B         0.1555    4.1808    6.0804 O.3       1 ATP        -0.8166
      8 O3B         1.8139    5.3638    4.5588 O.3       1 ATP        -0.8194
      9 PA         -0.3961    4.9845    2.0411 P.3       1 ATP         1.5903
     10 O1A         0.7136    5.9718    1.7518 O.co2     1 ATP        -0.8519
     11 O2A        -1.8198    5.2756    1.6189 O.co2     1 ATP        -0.8519
     12 O3A        -0.3946    4.6439    3.6380 O.3       1 ATP        -0.8093
     13 O5'         0.0180    3.5131    1.4595 O.3       1 ATP        -0.5649
     14 C5'        -0.8811    2.4285    1.6206 C.3       1 ATP         0.1979
     15 C4'        -0.1994    1.3333    2.4288 C.3       1 ATP         0.1179
     16 O4'        -1.1285    0.2356    2.5840 O.3       1 ATP        -0.3878
     17 C3'         1.0324    0.7610    1.7344 C.3       1 ATP         0.1185
     18 O3'         1.9175    0.2377    2.7247 O.3       1 ATP        -0.5544
     19 C2'         0.4468   -0.3802    0.9263 C.3       1 ATP         0.0542
     20 O2'         1.3993   -1.3703    0.5961 O.3       1 ATP        -0.5831
     21 C1'        -0.6159   -0.9100    1.8769 C.3       1 ATP         0.2222
     22 N9         -1.7127   -1.6108    1.2130 N.pl3     1 ATP        -0.1887
     23 C8         -2.5485   -1.0808    0.2609 C.ar      1 ATP         0.4447
     24 N7         -3.4476   -1.9486   -0.1593 N.2       1 ATP        -0.6159
     25 C5         -3.1762   -3.0816    0.5530 C.ar      1 ATP         0.2195
     26 C6         -3.8510   -4.3579    0.5006 C.ar      1 ATP         0.6144
     27 N6         -4.8468   -4.5293   -0.2961 N.2       1 ATP        -0.8160
     28 N1         -3.2499   -5.2342    1.3937 N.pl3     1 ATP        -0.8611
     29 C2         -2.1646   -4.9275    2.2116 C.ar      1 ATP         0.6141
     30 N3         -1.5382   -3.7840    2.2778 N.2       1 ATP        -0.5913
     31 C4         -2.1054   -2.9018    1.4120 C.ar      1 ATP         0.0067
     32 HOG3        2.9946    7.8509    4.9658 H         1 ATP         0.4313
     33 HOB2       -0.5784    3.5721    6.3107 H         1 ATP         0.4716
     34 H5'1       -1.7770    2.7851    2.1387 H         1 ATP         0.0452
     35 H5'2       -1.1653    2.0543    0.6320 H         1 ATP         0.0452
     36 H4'         0.0403    1.7078    3.4343 H         1 ATP         0.0998
     37 H3'         1.5906    1.4859    1.1353 H         1 ATP         0.0544
     38 HO3'        2.1521    0.9800    3.3017 H         1 ATP         0.3961
     39 H2'        -0.0017    0.0018    0.0005 H         1 ATP         0.0499
     40 HO2'        2.0953   -0.9375    0.0709 H         1 ATP         0.4045
     41 H1'        -0.1998   -1.6319    2.6178 H         1 ATP         0.0912
     42 H8         -2.4515   -0.0599   -0.0829 H         1 ATP         0.1090
     43 HN62       -5.1990   -5.4882   -0.2004 H         1 ATP         0.3694
     44 H2         -1.8555   -5.7783    2.8388 H         1 ATP         0.0371
     45 H45        -3.6312   -6.1750    1.4526 H         1 ATP         0.4283
@<TRIPOS>BOND
     1    1    2 2
     2    1    3 1
     3    1    4 1
     4    1    8 1
     5    4   32 1
     6    5    6 2
     7    5    7 1
     8    5    8 1
     9    5   12 1
    10    7   33 1
    11    9   10 2
    12    9   11 1
    13    9   12 1
    14    9   13 1
    15   13   14 1
    16   14   15 1
    17   14   34 1
    18   14   35 1
    19   15   16 1
    20   15   17 1
    21   15   36 1
    22   16   21 1
    23   17   18 1
    24   17   19 1
    25   17   37 1
    26   18   38 1
    27   19   20 1
    28   19   21 1
    29   19   39 1
    30   20   40 1
    31   21   22 1
    32   21   41 1
    33   22   23 ar
    34   22   31 ar
    35   23   24 ar
    36   23   42 1
    37   24   25 ar
    38   25   26 ar
    39   25   31 ar
    40   26   27 2
    41   26   28 ar
    42   27   43 1
    43   28   29 ar
    44   28   45 1
    45   29   30 ar
    46   29   44 1
    47   30   31 ar
@<TRIPOS>SUBSTRUCTURE
     1 ATP         1 GROUP 0 A     ****
@<TRIPOS>MOLECULE
[[[3,4-dihydroxy-5-(6-imino-1~{H}-purin-9-yl)tetrahydrofuran-2-yl]methoxy-oxido-phosphoryl]oxy-hydroxy-phosphoryl] hydrogen phosphate
   45    47     1     0     0
SMALL
USER_CHARGES

@<TRIPOS>ATOM
      1 PG          3.1951    5.6290    5.3847 P.3       1 ATP         1.5496
      2 O1G         2.9213    5.4629    6.8630 O.co2     1 ATP        -0.8494
      3 O2G         3.8551    6.8815    4.8527 O.co2     1 ATP        -0.8494
      4 O3G         4.0452    4.3348    4.8666 O.3       1 ATP        -0.7845
      5 PB          0.7922    4.1118    4.5960 P.3       1 ATP         1.9068
      6 O1B         1.3892    2.7876    4.2210 O.2       1 ATP        -0.8942
      7 O2B         0.1555    4.1808    6.0804 O.3       1 ATP        -0.8166
      8 O3B         1.8139    5.3638    4.5588 O.3       1 ATP        -0.8194
      9 PA         -0.3961    4.9845    2.0411 P.3       1 ATP         1.5903
     10 O1A         0.7136    5.9718    1.7518 O.co2     1 ATP        -0.8519
     11 O2A        -1.8198    5.2756    1.6189 O.co2     1 ATP        -0.8519
     12 O3A        -0.3946    4.6439    3.6380 O.3       1 ATP        -0.8093
     13 O5'         0.0180    3.5131    1.4595 O.3       1 ATP        -0.5649
     14 C5'        -0.8811    2.4285    1.6206 C.3       1 ATP         0.1979
     15 C4'        -0.1994    1.3333    2.4288 C.3       1 ATP         0.1179
     16 O4'        -1.1285    0.2356    2.5840 O.3       1 ATP        -0.3878
     17 C3'         1.0324    0.7610    1.7344 C.3       1 ATP         0.1185
     18 O3'         1.9175    0.2377    2.7247 O.3       1 ATP        -0.5544
     19 C2'         0.4468   -0.3802    0.9263 C.3       1 ATP         0.0542
     20 O2'         1.3993   -1.3703    0.5961 O.3       1 ATP        -0.5831
     21 C1'        -0.6159   -0.9100    1.8769 C.3       1 ATP         0.2222
     22 N9         -1.7127   -1.6108    1.2130 N.pl3     1 ATP        -0.1887
     23 C8         -2.8662   -1.0361    0.7388 C.ar      1 ATP         0.4447
     24 N7         -3.6774   -1.9166    0.1867 N.2       1 ATP        -0.6159
     25 C5         -3.0159   -3.1045    0.3123 C.ar      1 ATP         0.2195
     26 C6         -3.4377   -4.4169   -0.1199 C.ar      1 ATP         0.6144
     27 N6         -4.5720   -4.5691   -0.7080 N.2       1 ATP        -0.8160
     28 N1         -2.4600   -5.3463    0.2071 N.pl3     1 ATP        -0.8611
     29 C2         -1.2595   -5.0554    0.8515 C.ar      1 ATP         0.6141
     30 N3         -0.8555   -3.8803    1.2516 N.2       1 ATP        -0.5913
     31 C4         -1.7946   -2.9457    0.9448 C.ar      1 ATP         0.0067
     32 HOG3        3.6433    3.4448    4.9592 H         1 ATP         0.4313
     33 HOB2        0.7347    4.0105    6.8535 H         1 ATP         0.4716
     34 H5'1       -1.7770    2.7851    2.1387 H         1 ATP         0.0452
     35 H5'2       -1.1653    2.0543    0.6320 H         1 ATP         0.0452
     36 H4'         0.0403    1.7078    3.4343 H         1 ATP         0.0998
     37 H3'         1.5906    1.4859    1.1353 H         1 ATP         0.0544
     38 HO3'        2.6839   -0.1150    2.2479 H         1 ATP         0.3961
     39 H2'        -0.0017    0.0018    0.0005 H         1 ATP         0.0499
     40 HO2'        2.0953   -0.9375    0.0709 H         1 ATP         0.4045
     41 H1'        -0.1998   -1.6319    2.6178 H         1 ATP         0.0912
     42 H8         -3.0558    0.0252    0.8256 H         1 ATP         0.1090
     43 HN62       -4.7047   -5.5592   -0.9421 H         1 ATP         0.3694
     44 H2         -0.6372   -5.9505    1.0077 H         1 ATP         0.0371
     45 H45        -2.6338   -6.3155   -0.0469 H         1 ATP         0.4283
@<TRIPOS>BOND
     1    1    2 2
     2    1    3 1
     3    1    4 1
     4    1    8 1
     5    4   32 1
     6    5    6 2
     7    5    7 1
     8    5    8 1
     9    5   12 1
    10    7   33 1
    11    9   10 2
    12    9   11 1
    13    9   12 1
    14    9   13 1
    15   13   14 1
    16   14   15 1
    17   14   34 1
    18   14   35 1
    19   15   16 1
    20   15   17 1
    21   15   36 1
    22   16   21 1
    23   17   18 1
    24   17   19 1
    25   17   37 1
    26   18   38 1
    27   19   20 1
    28   19   21 1
    29   19   39 1
    30   20   40 1
    31   21   22 1
    32   21   41 1
    33   22   23 ar
    34   22   31 ar
    35   23   24 ar
    36   23   42 1
    37   24   25 ar
    38   25   26 ar
    39   25   31 ar
    40   26   27 2
    41   26   28 ar
    42   27   43 1
    43   28   29 ar
    44   28   45 1
    45   29   30 ar
    46   29   44 1
    47   30   31 ar
@<TRIPOS>SUBSTRUCTURE
     1 ATP         1 GROUP 0 A     ****
@<TRIPOS>MOLECULE
[[[3,4-dihydroxy-5-(6-imino-1~{H}-purin-9-yl)tetrahydrofuran-2-yl]methoxy-oxido-phosphoryl]oxy-hydroxy-phosphoryl] hydrogen phosphate
   45    47     1     0     0
SMALL
USER_CHARGES

@<TRIPOS>ATOM
      1 PG         -6.5490    1.4660    4.4446 P.3       1 ATP         1.5496
      2 O1G        -5.7576    0.9237    5.6139 O.co2     1 ATP        -0.8494
      3 O2G        -7.5877    0.6154    3.7481 O.co2     1 ATP        -0.8494
      4 O3G        -7.2483    2.8699    4.8987 O.3       1 ATP        -0.7845
      5 PB         -4.4309    1.2978    2.3993 P.3       1 ATP         1.9068
      6 O1B        -3.3670    0.5408    3.1378 O.2       1 ATP        -0.8942
      7 O2B        -5.3418    0.4059    1.4051 O.3       1 ATP        -0.8166
      8 O3B        -5.5116    2.0554    3.3326 O.3       1 ATP        -0.8194
      9 PA         -3.0798    3.8626    1.8537 P.3       1 ATP         1.5903
     10 O1A        -3.8221    4.5966    2.9492 O.co2     1 ATP        -0.8519
     11 O2A        -2.6992    4.5683    0.5704 O.co2     1 ATP        -0.8519
     12 O3A        -3.9117    2.5115    1.4682 O.3       1 ATP        -0.8093
     13 O5'        -1.7337    3.1724    2.4752 O.3       1 ATP        -0.5649
     14 C5'        -0.8811    2.4285    1.6206 C.3       1 ATP         0.1979
     15 C4'        -0.1994    1.3333    2.4288 C.3       1 ATP         0.1179
     16 O4'        -1.1285    0.2356    2.5840 O.3       1 ATP        -0.3878
     17 C3'         1.0324    0.7610    1.7344 C.3       1 ATP         0.1185
     18 O3'         1.9175    0.2377    2.7247 O.3       1 ATP        -0.5544
     19 C2'         0.4468   -0.3802    0.9263 C.3       1 ATP         0.0542
     20 O2'         1.3993   -1.3703    0.5961 O.3       1 ATP        -0.5831
     21 C1'        -0.6159   -0.9100    1.8769 C.3       1 ATP         0.2222
     22 N9         -1.7127   -1.6108    1.2130 N.pl3     1 ATP        -0.1887
     23 C8         -2.8662   -1.0361    0.7388 C.ar      1 ATP         0.4447
     24 N7         -3.6774   -1.9166    0.1867 N.2       1 ATP        -0.6159
     25 C5         -3.0159   -3.1045    0.3123 C.ar      1 ATP         0.2195
     26 C6         -3.4377   -4.4169   -0.1199 C.ar      1 ATP         0.6144
     27 N6         -4.5720   -4.5691   -0.7080 N.2       1 ATP        -0.8160
     28 N1         -2.4600   -5.3463    0.2071 N.pl3     1 ATP        -0.8611
     29 C2         -1.2595   -5.0554    0.8515 C.ar      1 ATP         0.6141
     30 N3         -0.8555   -3.8803    1.2516 N.2       1 ATP        -0.5913
     31 C4         -1.7946   -2.9457    0.9448 C.ar      1 ATP         0.0067
     32 HOG3       -7.8006    3.3491    4.2448 H         1 ATP         0.4313
     33 HOB2       -5.8639   -0.3362    1.7776 H         1 ATP         0.4716
     34 H5'1       -1.4801    1.9928    0.8147 H         1 ATP         0.0452
     35 H5'2       -0.1369    3.1041    1.1872 H         1 ATP         0.0452
     36 H4'         0.0403    1.7078    3.4343 H         1 ATP         0.0998
     37 H3'         1.5906    1.4859    1.1353 H         1 ATP         0.0544
     38 HO3'        2.1521    0.9800    3.3017 H         1 ATP         0.3961
     39 H2'        -0.0017    0.0018    0.0005 H         1 ATP         0.0499
     40 HO2'        1.7495   -1.7243    1.4324 H         1 ATP         0.4045
     41 H1'        -0.1998   -1.6319    2.6178 H         1 ATP         0.0912
     42 H8         -3.0558    0.0252    0.8256 H         1 ATP         0.1090
     43 HN62       -4.7047   -5.5592   -0.9421 H         1 ATP         0.3694
     44 H2         -0.6372   -5.9505    1.0077 H         1 ATP         0.0371
     45 H45        -2.6338   -6.3155   -0.0469 H         1 ATP         0.4283
@<TRIPOS>BOND
     1    1    2 2
     2    1    3 1
     3    1    4 1
     4    1    8 1
     5    4   32 1
     6    5    6 2
     7    5    7 1
     8    5    8 1
     9    5   12 1
    10    7   33 1
    11    9   10 2
    12    9   11 1
    13    9   12 1
    14    9   13 1
    15   13   14 1
    16   14   15 1
    17   14   34 1
    18   14   35 1
    19   15   16 1
    20   15   17 1
    21   15   36 1
    22   16   21 1
    23   17   18 1
    24   17   19 1
    25   17   37 1
    26   18   38 1
    27   19   20 1
    28   19   21 1
    29   19   39 1
    30   20   40 1
    31   21   22 1
    32   21   41 1
    33   22   23 ar
    34   22   31 ar
    35   23   24 ar
    36   23   42 1
    37   24   25 ar
    38   25   26 ar
    39   25   31 ar
    40   26   27 2
    41   26   28 ar
    42   27   43 1
    43   28   29 ar
    44   28   45 1
    45   29   30 ar
    46   29   44 1
    47   30   31 ar
@<TRIPOS>SUBSTRUCTURE
     1 ATP         1 GROUP 0 A     ****
@<TRIPOS>MOLECULE
[[[3,4-dihydroxy-5-(6-imino-1~{H}-purin-9-yl)tetrahydrofuran-2-yl]methoxy-oxido-phosphoryl]oxy-hydroxy-phosphoryl] hydrogen phosphate
   45    47     1     0     0
SMALL
USER_CHARGES

@<TRIPOS>ATOM
      1 PG         -0.0686    6.1940    2.7318 P.3       1 ATP         1.5496
      2 O1G        -1.0991    5.5191    1.8541 O.co2     1 ATP        -0.8494
      3 O2G         0.1530    7.6885    2.6612 O.co2     1 ATP        -0.8494
      4 O3G        -0.3641    5.7865    4.2851 O.3       1 ATP        -0.7845
      5 PB          2.3440    5.3437    1.2642 P.3       1 ATP         1.9068
      6 O1B         1.7407    4.7227    0.0392 O.2       1 ATP        -0.8942
      7 O2B         2.8693    6.8610    1.0755 O.3       1 ATP        -0.8166
      8 O3B         1.3627    5.4347    2.5454 O.3       1 ATP        -0.8194
      9 PA          5.0662    4.2077    1.2400 P.3       1 ATP         1.5903
     10 O1A         5.8385    3.3445    2.2138 O.co2     1 ATP        -0.8519
     11 O2A         5.6685    5.4824    0.6904 O.co2     1 ATP        -0.8519
     12 O3A         3.6135    4.5674    1.8929 O.3       1 ATP        -0.8093
     13 O5'         4.5669    3.2939   -0.0211 O.3       1 ATP        -0.5649
     14 C5'         4.0922    1.9801    0.2227 C.3       1 ATP         0.1979
     15 C4'         2.5944    2.0310    0.4653 C.3       1 ATP         0.1179
     16 O4'         1.9327    2.5740   -0.6889 O.3       1 ATP        -0.3878
     17 C3'         1.9685    0.6634    0.6767 C.3       1 ATP         0.1185
     18 O3'         2.1425    0.1975    1.9977 O.3       1 ATP        -0.5544
     19 C2'         0.5176    0.9128    0.3099 C.3       1 ATP         0.0542
     20 O2'        -0.2103    1.4454    1.4152 O.3       1 ATP        -0.5831
     21 C1'         0.6219    1.9765   -0.7844 C.3       1 ATP         0.2222
     22 N9          0.4237    1.4496   -2.1357 N.pl3     1 ATP        -0.1887
     23 C8          1.4069    0.9710   -2.9662 C.ar      1 ATP         0.4447
     24 N7          0.9316    0.5623   -4.1260 N.2       1 ATP        -0.6159
     25 C5         -0.4120    0.7884   -4.0344 C.ar      1 ATP         0.2195
     26 C6         -1.4353    0.5283   -5.0204 C.ar      1 ATP         0.6144
     27 N6         -1.1199    0.0176   -6.1586 N.2       1 ATP        -0.8160
     28 N1         -2.6704    0.9095   -4.5147 N.pl3     1 ATP        -0.8611
     29 C2         -2.8863    1.4571   -3.2520 C.ar      1 ATP         0.6141
     30 N3         -1.9805    1.7017   -2.3442 N.2       1 ATP        -0.5913
     31 C4         -0.7561    1.3381   -2.8112 C.ar      1 ATP         0.0067
     32 HOG3        0.2235    6.1481    4.9823 H         1 ATP         0.4313
     33 HOB2        3.5670    7.0423    0.4101 H         1 ATP         0.4716
     34 H5'1        4.3180    1.3550   -0.6470 H         1 ATP         0.0452
     35 H5'2        4.6084    1.5739    1.0983 H         1 ATP         0.0452
     36 H4'         2.3751    2.7029    1.3156 H         1 ATP         0.0998
     37 H3'         2.4336   -0.1217   -0.0015 H         1 ATP         0.0544
     38 HO3'        3.0987    0.1465    2.1461 H         1 ATP         0.3961
     39 H2'         0.0316    0.0155   -0.0339 H         1 ATP         0.0499
     40 HO2'       -0.1608    0.7921    2.1351 H         1 ATP         0.4045
     41 H1'        -0.1474    2.7798   -0.6651 H         1 ATP         0.0912
     42 H8          2.4466    0.9468   -2.6694 H         1 ATP         0.1090
     43 HN62       -1.9661   -0.0965   -6.7275 H         1 ATP         0.3694
     44 H2         -3.9481    1.6825   -3.0660 H         1 ATP         0.0371
     45 H45        -3.4814    0.7753   -5.1133 H         1 ATP         0.4283
@<TRIPOS>BOND
     1    1    2 2
     2    1    3 1
     3    1    4 1
     4    1    8 1
     5    4   32 1
     6    5    6 2
     7    5    7 1
     8    5    8 1
     9    5   12 1
    10    7   33 1
    11    9   10 2
    12    9   11 1
    13    9   12 1
    14    9   13 1
    15   13   14 1
    16   14   15 1
    17   14   34 1
    18   14   35 1
    19   15   16 1
    20   15   17 1
    21   15   36 1
    22   16   21 1
    23   17   18 1
    24   17   19 1
    25   17   37 1
    26   18   38 1
    27   19   20 1
    28   19   21 1
    29   19   39 1
    30   20   40 1
    31   21   22 1
    32   21   41 1
    33   22   23 ar
    34   22   31 ar
    35   23   24 ar
    36   23   42 1
    37   24   25 ar
    38   25   26 ar
    39   25   31 ar
    40   26   27 2
    41   26   28 ar
    42   27   43 1
    43   28   29 ar
    44   28   45 1
    45   29   30 ar
    46   29   44 1
    47   30   31 ar
@<TRIPOS>SUBSTRUCTURE
     1 ATP         1 GROUP 0 A     ****
