@<TRIPOS>MOLECULE
[[[3,4-dihydroxy-5-(6-imino-7,8-dihydro-1~{H}-purin-8-ylium-9-yl)tetrahydrofuran-2-yl]methoxy-hydroxy-phosphoryl]oxy-oxido-phosphoryl] hydrogen phosphate
   46    48     1     0     0
SMALL
USER_CHARGES

@<TRIPOS>ATOM
      1 PG          1.7973    4.4520   -3.2901 P.3       1 ATP         1.5644
      2 O1G         2.5656    4.6032   -1.9961 O.co2     1 ATP        -0.8581
      3 O2G         0.3889    4.9863   -3.4251 O.co2     1 ATP        -0.8581
      4 O3G         2.7025    5.0618   -4.5047 O.3       1 ATP        -0.7962
      5 PB          1.2852    2.1689   -5.1032 P.3       1 ATP         1.6830
      6 O1B        -0.2217    2.2871   -5.1577 O.co2     1 ATP        -0.8633
      7 O2B         2.1461    2.6311   -6.2578 O.co2     1 ATP        -0.8633
      8 O3B         1.8149    2.8836   -3.7356 O.3       1 ATP        -0.8097
      9 PA          3.0915   -0.0732   -4.4165 P.3       1 ATP         1.7610
     10 O1A         4.2296    0.4201   -5.2621 O.2       1 ATP        -0.8554
     11 O2A         2.7765   -1.6519   -4.5791 O.3       1 ATP        -0.8102
     12 O3A         1.6695    0.6231   -4.7478 O.3       1 ATP        -0.7693
     13 O5'         3.2903    0.1346   -2.8241 O.3       1 ATP        -0.5757
     14 C5'         2.2816   -0.2918   -1.9206 C.3       1 ATP         0.1911
     15 C4'         2.7248    0.0226   -0.4980 C.3       1 ATP         0.1218
     16 O4'         2.4697    1.4219   -0.2462 O.3       1 ATP        -0.4138
     17 C3'         1.9404   -0.7419    0.5596 C.3       1 ATP         0.1338
     18 O3'         2.7418   -0.8086    1.7389 O.3       1 ATP        -0.5756
     19 C2'         0.7477    0.1630    0.7858 C.3       1 ATP         0.0673
     20 O2'         0.1373   -0.0577    2.0407 O.3       1 ATP        -0.5671
     21 C1'         1.3733    1.5427    0.6747 C.3       1 ATP         0.3795
     22 N9          0.4520    2.5240    0.1767 N.pl3     1 ATP        -0.4175
     23 C8         -0.2004    2.4829   -0.9804 C.ar      1 ATP         0.2552
     24 N7         -0.9830    3.5431   -1.1568 N.pl3     1 ATP        -0.4731
     25 C5         -0.8095    4.3012   -0.0331 C.ar      1 ATP        -0.1295
     26 C6         -1.4065    5.5904    0.3585 C.ar      1 ATP         0.7196
     27 N6         -2.2501    6.2030   -0.4084 N.2       1 ATP        -0.8094
     28 N1         -0.9585    6.0272    1.5994 N.pl3     1 ATP        -0.8312
     29 C2         -0.0508    5.3009    2.3532 C.ar      1 ATP         0.6744
     30 N3          0.4890    4.1592    2.0257 N.2       1 ATP        -0.5937
     31 C4          0.0637    3.7006    0.7995 C.ar      1 ATP         0.2810
     32 HOG3        2.3388    5.0372   -5.4154 H         1 ATP         0.4152
     33 HOA2        3.4791   -2.3005   -4.3603 H         1 ATP         0.4571
     34 H5'1        1.3514    0.2330   -2.1577 H         1 ATP         0.0465
     35 H5'2        2.1280   -1.3678   -2.0460 H         1 ATP         0.0465
     36 H4'         3.8044   -0.1397   -0.4040 H         1 ATP         0.1379
     37 H3'         1.6764   -1.7639    0.2728 H         1 ATP         0.1317
     38 HO3'        2.2232   -1.2979    2.3953 H         1 ATP         0.4175
     39 H2'        -0.0011    0.0027    0.0003 H         1 ATP         0.0669
     40 HO2'       -0.6141    0.5574    2.1082 H         1 ATP         0.4064
     41 H1'         1.7826    1.9024    1.6451 H         1 ATP         0.1285
     42 H8         -0.1116    1.6863   -1.6984 H         1 ATP         0.2954
     43 HN62       -2.5420    7.0730    0.0447 H         1 ATP         0.4226
     44 H2          0.1969    5.7893    3.3086 H         1 ATP         0.0826
     45 H45        -1.3097    6.9080    1.9642 H         1 ATP         0.4581
     46 H46        -1.5735    3.7351   -1.9538 H         1 ATP         0.5252
@<TRIPOS>BOND
     1    1    2 2
     2    1    3 1
     3    1    4 1
     4    1    8 1
     5    4   32 1
     6    5    6 2
     7    5    7 1
     8    5    8 1
     9    5   12 1
    10    9   10 2
    11    9   11 1
    12    9   12 1
    13    9   13 1
    14   11   33 1
    15   13   14 1
    16   14   15 1
    17   14   34 1
    18   14   35 1
    19   15   16 1
    20   15   17 1
    21   15   36 1
    22   16   21 1
    23   17   18 1
    24   17   19 1
    25   17   37 1
    26   18   38 1
    27   19   20 1
    28   19   21 1
    29   19   39 1
    30   20   40 1
    31   21   22 1
    32   21   41 1
    33   22   23 ar
    34   22   31 ar
    35   23   24 ar
    36   23   42 1
    37   24   25 ar
    38   24   46 1
    39   25   26 ar
    40   25   31 ar
    41   26   27 2
    42   26   28 ar
    43   27   43 1
    44   28   29 ar
    45   28   45 1
    46   29   30 ar
    47   29   44 1
    48   30   31 ar
@<TRIPOS>SUBSTRUCTURE
     1 ATP         1 GROUP 0 A     ****
@<TRIPOS>MOLECULE
[[[3,4-dihydroxy-5-(6-imino-7,8-dihydro-1~{H}-purin-8-ylium-9-yl)tetrahydrofuran-2-yl]methoxy-hydroxy-phosphoryl]oxy-oxido-phosphoryl] hydrogen phosphate
   46    48     1     0     0
SMALL
USER_CHARGES

@<TRIPOS>ATOM
      1 PG         -2.0266    0.1650   -3.9799 P.3       1 ATP         1.5644
      2 O1G        -1.2306    0.3293   -2.7044 O.co2     1 ATP        -0.8581
      3 O2G        -2.4941   -1.1997   -4.4344 O.co2     1 ATP        -0.8581
      4 O3G        -3.3184    1.1617   -3.9169 O.3       1 ATP        -0.7962
      5 PB          0.2012    0.4988   -5.9002 P.3       1 ATP         1.6830
      6 O1B         0.1531   -0.9518   -6.3259 O.co2     1 ATP        -0.8633
      7 O2B         0.5716    1.5880   -6.8821 O.co2     1 ATP        -0.8633
      8 O3B        -1.2220    0.8845   -5.2020 O.3       1 ATP        -0.8097
      9 PA          2.7605    0.3953   -4.4169 P.3       1 ATP         1.7610
     10 O1A         3.6064    1.3021   -5.2629 O.2       1 ATP        -0.8554
     11 O2A         2.9475   -1.1798   -4.7368 O.3       1 ATP        -0.8102
     12 O3A         1.1682    0.6209   -4.5912 O.3       1 ATP        -0.7693
     13 O5'         3.0213    0.5153   -2.8245 O.3       1 ATP        -0.5757
     14 C5'         2.2816   -0.2918   -1.9206 C.3       1 ATP         0.1911
     15 C4'         2.7248    0.0226   -0.4980 C.3       1 ATP         0.1218
     16 O4'         2.4697    1.4219   -0.2462 O.3       1 ATP        -0.4138
     17 C3'         1.9404   -0.7419    0.5596 C.3       1 ATP         0.1338
     18 O3'         2.7418   -0.8086    1.7389 O.3       1 ATP        -0.5756
     19 C2'         0.7477    0.1630    0.7858 C.3       1 ATP         0.0673
     20 O2'         0.1373   -0.0577    2.0407 O.3       1 ATP        -0.5671
     21 C1'         1.3733    1.5427    0.6747 C.3       1 ATP         0.3795
     22 N9          0.4520    2.5240    0.1767 N.pl3     1 ATP        -0.4175
     23 C8          0.2216    2.8192   -1.0985 C.ar      1 ATP         0.2552
     24 N7         -0.6906    3.7763   -1.2384 N.pl3     1 ATP        -0.4731
     25 C5         -1.0575    4.1037    0.0366 C.ar      1 ATP        -0.1295
     26 C6         -2.0291    5.0943    0.5330 C.ar      1 ATP         0.7196
     27 N6         -2.7093    5.8371   -0.2800 N.2       1 ATP        -0.8094
     28 N1         -2.1051    5.1136    1.9204 N.pl3     1 ATP        -0.8312
     29 C2         -1.3354    4.2774    2.7129 C.ar      1 ATP         0.6744
     30 N3         -0.4707    3.3945    2.2944 N.2       1 ATP        -0.5937
     31 C4         -0.3734    3.3525    0.9220 C.ar      1 ATP         0.2810
     32 HOG3       -3.9380    1.1714   -4.6774 H         1 ATP         0.4152
     33 HOA2        3.8352   -1.5832   -4.6298 H         1 ATP         0.4571
     34 H5'1        1.2163   -0.0770   -2.0471 H         1 ATP         0.0465
     35 H5'2        2.4655   -1.3443   -2.1563 H         1 ATP         0.0465
     36 H4'         3.8044   -0.1397   -0.4040 H         1 ATP         0.1379
     37 H3'         1.6764   -1.7639    0.2728 H         1 ATP         0.1317
     38 HO3'        2.2232   -1.2979    2.3953 H         1 ATP         0.4175
     39 H2'        -0.0011    0.0027    0.0003 H         1 ATP         0.0669
     40 HO2'       -0.6141    0.5574    2.1082 H         1 ATP         0.4064
     41 H1'         1.7826    1.9024    1.6451 H         1 ATP         0.1285
     42 H8          0.7125    2.3429   -1.9292 H         1 ATP         0.2954
     43 HN62       -3.3217    6.4517    0.2629 H         1 ATP         0.4226
     44 H2         -1.5188    4.4223    3.7890 H         1 ATP         0.0826
     45 H45        -2.7470    5.7626    2.3665 H         1 ATP         0.4581
     46 H46        -1.0305    4.1680   -2.1054 H         1 ATP         0.5252
@<TRIPOS>BOND
     1    1    2 2
     2    1    3 1
     3    1    4 1
     4    1    8 1
     5    4   32 1
     6    5    6 2
     7    5    7 1
     8    5    8 1
     9    5   12 1
    10    9   10 2
    11    9   11 1
    12    9   12 1
    13    9   13 1
    14   11   33 1
    15   13   14 1
    16   14   15 1
    17   14   34 1
    18   14   35 1
    19   15   16 1
    20   15   17 1
    21   15   36 1
    22   16   21 1
    23   17   18 1
    24   17   19 1
    25   17   37 1
    26   18   38 1
    27   19   20 1
    28   19   21 1
    29   19   39 1
    30   20   40 1
    31   21   22 1
    32   21   41 1
    33   22   23 ar
    34   22   31 ar
    35   23   24 ar
    36   23   42 1
    37   24   25 ar
    38   24   46 1
    39   25   26 ar
    40   25   31 ar
    41   26   27 2
    42   26   28 ar
    43   27   43 1
    44   28   29 ar
    45   28   45 1
    46   29   30 ar
    47   29   44 1
    48   30   31 ar
@<TRIPOS>SUBSTRUCTURE
     1 ATP         1 GROUP 0 A     ****
@<TRIPOS>MOLECULE
[[[3,4-dihydroxy-5-(6-imino-7,8-dihydro-1~{H}-purin-8-ylium-9-yl)tetrahydrofuran-2-yl]methoxy-hydroxy-phosphoryl]oxy-oxido-phosphoryl] hydrogen phosphate
   46    48     1     0     0
SMALL
USER_CHARGES

@<TRIPOS>ATOM
      1 PG          3.3519    4.5356   -1.5151 P.3       1 ATP         1.5644
      2 O1G         4.2375    3.9530   -0.4363 O.co2     1 ATP        -0.8581
      3 O2G         2.2101    5.4641   -1.1664 O.co2     1 ATP        -0.8581
      4 O3G         4.2996    5.2715   -2.6226 O.3       1 ATP        -0.7962
      5 PB          1.9196    3.3696   -3.8284 P.3       1 ATP         1.6830
      6 O1B         0.5487    3.9306   -3.5220 O.co2     1 ATP        -0.8633
      7 O2B         2.7802    3.9659   -4.9200 O.co2     1 ATP        -0.8633
      8 O3B         2.7845    3.3230   -2.4458 O.3       1 ATP        -0.8097
      9 PA          2.8900    0.6162   -4.3161 P.3       1 ATP         1.7610
     10 O1A         4.0478    1.0418   -5.1716 O.2       1 ATP        -0.8554
     11 O2A         2.0339   -0.6169   -4.9198 O.3       1 ATP        -0.8102
     12 O3A         1.7740    1.7656   -4.0918 O.3       1 ATP        -0.7693
     13 O5'         3.2903    0.1346   -2.8241 O.3       1 ATP        -0.5757
     14 C5'         2.2816   -0.2918   -1.9206 C.3       1 ATP         0.1911
     15 C4'         2.7248    0.0226   -0.4980 C.3       1 ATP         0.1218
     16 O4'         2.4697    1.4219   -0.2462 O.3       1 ATP        -0.4138
     17 C3'         1.9404   -0.7419    0.5596 C.3       1 ATP         0.1338
     18 O3'         2.7418   -0.8086    1.7389 O.3       1 ATP        -0.5756
     19 C2'         0.7477    0.1630    0.7858 C.3       1 ATP         0.0673
     20 O2'         0.1373   -0.0577    2.0407 O.3       1 ATP        -0.5671
     21 C1'         1.3733    1.5427    0.6747 C.3       1 ATP         0.3795
     22 N9          0.4520    2.5240    0.1767 N.pl3     1 ATP        -0.4175
     23 C8         -0.2004    2.4829   -0.9804 C.ar      1 ATP         0.2552
     24 N7         -0.9830    3.5431   -1.1568 N.pl3     1 ATP        -0.4731
     25 C5         -0.8095    4.3012   -0.0331 C.ar      1 ATP        -0.1295
     26 C6         -1.4065    5.5904    0.3585 C.ar      1 ATP         0.7196
     27 N6         -2.2501    6.2030   -0.4084 N.2       1 ATP        -0.8094
     28 N1         -0.9585    6.0272    1.5994 N.pl3     1 ATP        -0.8312
     29 C2         -0.0508    5.3009    2.3532 C.ar      1 ATP         0.6744
     30 N3          0.4890    4.1592    2.0257 N.2       1 ATP        -0.5937
     31 C4          0.0637    3.7006    0.7995 C.ar      1 ATP         0.2810
     32 HOG3        3.8699    5.7021   -3.3922 H         1 ATP         0.4152
     33 HOA2        1.6031   -0.5116   -5.7948 H         1 ATP         0.4571
     34 H5'1        1.3514    0.2330   -2.1577 H         1 ATP         0.0465
     35 H5'2        2.1280   -1.3678   -2.0460 H         1 ATP         0.0465
     36 H4'         3.8044   -0.1397   -0.4040 H         1 ATP         0.1379
     37 H3'         1.6764   -1.7639    0.2728 H         1 ATP         0.1317
     38 HO3'        3.5554   -1.2733    1.4914 H         1 ATP         0.4175
     39 H2'        -0.0011    0.0027    0.0003 H         1 ATP         0.0669
     40 HO2'       -0.1563   -0.9855    2.0596 H         1 ATP         0.4064
     41 H1'         1.7826    1.9024    1.6451 H         1 ATP         0.1285
     42 H8         -0.1116    1.6863   -1.6984 H         1 ATP         0.2954
     43 HN62       -2.5420    7.0730    0.0447 H         1 ATP         0.4226
     44 H2          0.1969    5.7893    3.3086 H         1 ATP         0.0826
     45 H45        -1.3097    6.9080    1.9642 H         1 ATP         0.4581
     46 H46        -1.5735    3.7351   -1.9538 H         1 ATP         0.5252
@<TRIPOS>BOND
     1    1    2 2
     2    1    3 1
     3    1    4 1
     4    1    8 1
     5    4   32 1
     6    5    6 2
     7    5    7 1
     8    5    8 1
     9    5   12 1
    10    9   10 2
    11    9   11 1
    12    9   12 1
    13    9   13 1
    14   11   33 1
    15   13   14 1
    16   14   15 1
    17   14   34 1
    18   14   35 1
    19   15   16 1
    20   15   17 1
    21   15   36 1
    22   16   21 1
    23   17   18 1
    24   17   19 1
    25   17   37 1
    26   18   38 1
    27   19   20 1
    28   19   21 1
    29   19   39 1
    30   20   40 1
    31   21   22 1
    32   21   41 1
    33   22   23 ar
    34   22   31 ar
    35   23   24 ar
    36   23   42 1
    37   24   25 ar
    38   24   46 1
    39   25   26 ar
    40   25   31 ar
    41   26   27 2
    42   26   28 ar
    43   27   43 1
    44   28   29 ar
    45   28   45 1
    46   29   30 ar
    47   29   44 1
    48   30   31 ar
@<TRIPOS>SUBSTRUCTURE
     1 ATP         1 GROUP 0 A     ****
@<TRIPOS>MOLECULE
[[[3,4-dihydroxy-5-(6-imino-7,8-dihydro-1~{H}-purin-8-ylium-9-yl)tetrahydrofuran-2-yl]methoxy-hydroxy-phosphoryl]oxy-oxido-phosphoryl] hydrogen phosphate
   46    48     1     0     0
SMALL
USER_CHARGES

@<TRIPOS>ATOM
      1 PG          0.5360    2.1222   -8.3526 P.3       1 ATP         1.5644
      2 O1G        -0.7991    2.8320   -8.3183 O.co2     1 ATP        -0.8581
      3 O2G         0.7897    0.9895   -9.3223 O.co2     1 ATP        -0.8581
      4 O3G         1.7123    3.2391   -8.5399 O.3       1 ATP        -0.7962
      5 PB          0.2012    0.4988   -5.9002 P.3       1 ATP         1.6830
      6 O1B        -1.1801    0.9853   -5.5218 O.co2     1 ATP        -0.8633
      7 O2B         0.4037   -0.8616   -6.5295 O.co2     1 ATP        -0.8633
      8 O3B         0.9092    1.6242   -6.8456 O.3       1 ATP        -0.8097
      9 PA          2.7605    0.3953   -4.4169 P.3       1 ATP         1.7610
     10 O1A         3.6064    1.3021   -5.2629 O.2       1 ATP        -0.8554
     11 O2A         2.9475   -1.1798   -4.7368 O.3       1 ATP        -0.8102
     12 O3A         1.1682    0.6209   -4.5912 O.3       1 ATP        -0.7693
     13 O5'         3.0213    0.5153   -2.8245 O.3       1 ATP        -0.5757
     14 C5'         2.2816   -0.2918   -1.9206 C.3       1 ATP         0.1911
     15 C4'         2.7248    0.0226   -0.4980 C.3       1 ATP         0.1218
     16 O4'         2.4697    1.4219   -0.2462 O.3       1 ATP        -0.4138
     17 C3'         1.9404   -0.7419    0.5596 C.3       1 ATP         0.1338
     18 O3'         2.7418   -0.8086    1.7389 O.3       1 ATP        -0.5756
     19 C2'         0.7477    0.1630    0.7858 C.3       1 ATP         0.0673
     20 O2'         0.1373   -0.0577    2.0407 O.3       1 ATP        -0.5671
     21 C1'         1.3733    1.5427    0.6747 C.3       1 ATP         0.3795
     22 N9          0.4520    2.5240    0.1767 N.pl3     1 ATP        -0.4175
     23 C8          0.2216    2.8192   -1.0985 C.ar      1 ATP         0.2552
     24 N7         -0.6906    3.7763   -1.2384 N.pl3     1 ATP        -0.4731
     25 C5         -1.0575    4.1037    0.0366 C.ar      1 ATP        -0.1295
     26 C6         -2.0291    5.0943    0.5330 C.ar      1 ATP         0.7196
     27 N6         -2.7093    5.8371   -0.2800 N.2       1 ATP        -0.8094
     28 N1         -2.1051    5.1136    1.9204 N.pl3     1 ATP        -0.8312
     29 C2         -1.3354    4.2774    2.7129 C.ar      1 ATP         0.6744
     30 N3         -0.4707    3.3945    2.2944 N.2       1 ATP        -0.5937
     31 C4         -0.3734    3.3525    0.9220 C.ar      1 ATP         0.2810
     32 HOG3        2.6436    2.9336   -8.5809 H         1 ATP         0.4152
     33 HOA2        3.8352   -1.5832   -4.6298 H         1 ATP         0.4571
     34 H5'1        1.2163   -0.0770   -2.0471 H         1 ATP         0.0465
     35 H5'2        2.4655   -1.3443   -2.1563 H         1 ATP         0.0465
     36 H4'         3.8044   -0.1397   -0.4040 H         1 ATP         0.1379
     37 H3'         1.6764   -1.7639    0.2728 H         1 ATP         0.1317
     38 HO3'        2.2232   -1.2979    2.3953 H         1 ATP         0.4175
     39 H2'        -0.0011    0.0027    0.0003 H         1 ATP         0.0669
     40 HO2'       -0.6141    0.5574    2.1082 H         1 ATP         0.4064
     41 H1'         1.7826    1.9024    1.6451 H         1 ATP         0.1285
     42 H8          0.7125    2.3429   -1.9292 H         1 ATP         0.2954
     43 HN62       -3.3217    6.4517    0.2629 H         1 ATP         0.4226
     44 H2         -1.5188    4.4223    3.7890 H         1 ATP         0.0826
     45 H45        -2.7470    5.7626    2.3665 H         1 ATP         0.4581
     46 H46        -1.0305    4.1680   -2.1054 H         1 ATP         0.5252
@<TRIPOS>BOND
     1    1    2 2
     2    1    3 1
     3    1    4 1
     4    1    8 1
     5    4   32 1
     6    5    6 2
     7    5    7 1
     8    5    8 1
     9    5   12 1
    10    9   10 2
    11    9   11 1
    12    9   12 1
    13    9   13 1
    14   11   33 1
    15   13   14 1
    16   14   15 1
    17   14   34 1
    18   14   35 1
    19   15   16 1
    20   15   17 1
    21   15   36 1
    22   16   21 1
    23   17   18 1
    24   17   19 1
    25   17   37 1
    26   18   38 1
    27   19   20 1
    28   19   21 1
    29   19   39 1
    30   20   40 1
    31   21   22 1
    32   21   41 1
    33   22   23 ar
    34   22   31 ar
    35   23   24 ar
    36   23   42 1
    37   24   25 ar
    38   24   46 1
    39   25   26 ar
    40   25   31 ar
    41   26   27 2
    42   26   28 ar
    43   27   43 1
    44   28   29 ar
    45   28   45 1
    46   29   30 ar
    47   29   44 1
    48   30   31 ar
@<TRIPOS>SUBSTRUCTURE
     1 ATP         1 GROUP 0 A     ****
@<TRIPOS>MOLECULE
[[[3,4-dihydroxy-5-(6-imino-7,8-dihydro-1~{H}-purin-8-ylium-9-yl)tetrahydrofuran-2-yl]methoxy-hydroxy-phosphoryl]oxy-oxido-phosphoryl] hydrogen phosphate
   46    48     1     0     0
SMALL
USER_CHARGES

@<TRIPOS>ATOM
      1 PG         -0.8670    3.5841   -4.8036 P.3       1 ATP         1.5644
      2 O1G        -1.1271    2.1102   -5.0214 O.co2     1 ATP        -0.8581
      3 O2G        -0.6108    4.5094   -5.9722 O.co2     1 ATP        -0.8581
      4 O3G        -2.0885    4.1999   -3.9120 O.3       1 ATP        -0.7962
      5 PB          1.9196    3.3696   -3.8284 P.3       1 ATP         1.6830
      6 O1B         2.4866    4.0100   -5.0758 O.co2     1 ATP        -0.8633
      7 O2B         2.5668    3.5842   -2.4783 O.co2     1 ATP        -0.8633
      8 O3B         0.3378    3.7539   -3.7182 O.3       1 ATP        -0.8097
      9 PA          2.8900    0.6162   -4.3161 P.3       1 ATP         1.7610
     10 O1A         4.0478    1.0418   -5.1716 O.2       1 ATP        -0.8554
     11 O2A         2.0339   -0.6169   -4.9198 O.3       1 ATP        -0.8102
     12 O3A         1.7740    1.7656   -4.0918 O.3       1 ATP        -0.7693
     13 O5'         3.2903    0.1346   -2.8241 O.3       1 ATP        -0.5757
     14 C5'         2.2816   -0.2918   -1.9206 C.3       1 ATP         0.1911
     15 C4'         2.7248    0.0226   -0.4980 C.3       1 ATP         0.1218
     16 O4'         2.4697    1.4219   -0.2462 O.3       1 ATP        -0.4138
     17 C3'         1.9404   -0.7419    0.5596 C.3       1 ATP         0.1338
     18 O3'         2.7418   -0.8086    1.7389 O.3       1 ATP        -0.5756
     19 C2'         0.7477    0.1630    0.7858 C.3       1 ATP         0.0673
     20 O2'         0.1373   -0.0577    2.0407 O.3       1 ATP        -0.5671
     21 C1'         1.3733    1.5427    0.6747 C.3       1 ATP         0.3795
     22 N9          0.4520    2.5240    0.1767 N.pl3     1 ATP        -0.4175
     23 C8         -0.2004    2.4829   -0.9804 C.ar      1 ATP         0.2552
     24 N7         -0.9830    3.5431   -1.1568 N.pl3     1 ATP        -0.4731
     25 C5         -0.8095    4.3012   -0.0331 C.ar      1 ATP        -0.1295
     26 C6         -1.4065    5.5904    0.3585 C.ar      1 ATP         0.7196
     27 N6         -2.2501    6.2030   -0.4084 N.2       1 ATP        -0.8094
     28 N1         -0.9585    6.0272    1.5994 N.pl3     1 ATP        -0.8312
     29 C2         -0.0508    5.3009    2.3532 C.ar      1 ATP         0.6744
     30 N3          0.4890    4.1592    2.0257 N.2       1 ATP        -0.5937
     31 C4          0.0637    3.7006    0.7995 C.ar      1 ATP         0.2810
     32 HOG3       -2.0650    5.1538   -3.6839 H         1 ATP         0.4152
     33 HOA2        2.4845   -1.4733   -5.0803 H         1 ATP         0.4571
     34 H5'1        1.3514    0.2330   -2.1577 H         1 ATP         0.0465
     35 H5'2        2.1280   -1.3678   -2.0460 H         1 ATP         0.0465
     36 H4'         3.8044   -0.1397   -0.4040 H         1 ATP         0.1379
     37 H3'         1.6764   -1.7639    0.2728 H         1 ATP         0.1317
     38 HO3'        2.2232   -1.2979    2.3953 H         1 ATP         0.4175
     39 H2'        -0.0011    0.0027    0.0003 H         1 ATP         0.0669
     40 HO2'       -0.6141    0.5574    2.1082 H         1 ATP         0.4064
     41 H1'         1.7826    1.9024    1.6451 H         1 ATP         0.1285
     42 H8         -0.1116    1.6863   -1.6984 H         1 ATP         0.2954
     43 HN62       -2.5420    7.0730    0.0447 H         1 ATP         0.4226
     44 H2          0.1969    5.7893    3.3086 H         1 ATP         0.0826
     45 H45        -1.3097    6.9080    1.9642 H         1 ATP         0.4581
     46 H46        -1.5735    3.7351   -1.9538 H         1 ATP         0.5252
@<TRIPOS>BOND
     1    1    2 2
     2    1    3 1
     3    1    4 1
     4    1    8 1
     5    4   32 1
     6    5    6 2
     7    5    7 1
     8    5    8 1
     9    5   12 1
    10    9   10 2
    11    9   11 1
    12    9   12 1
    13    9   13 1
    14   11   33 1
    15   13   14 1
    16   14   15 1
    17   14   34 1
    18   14   35 1
    19   15   16 1
    20   15   17 1
    21   15   36 1
    22   16   21 1
    23   17   18 1
    24   17   19 1
    25   17   37 1
    26   18   38 1
    27   19   20 1
    28   19   21 1
    29   19   39 1
    30   20   40 1
    31   21   22 1
    32   21   41 1
    33   22   23 ar
    34   22   31 ar
    35   23   24 ar
    36   23   42 1
    37   24   25 ar
    38   24   46 1
    39   25   26 ar
    40   25   31 ar
    41   26   27 2
    42   26   28 ar
    43   27   43 1
    44   28   29 ar
    45   28   45 1
    46   29   30 ar
    47   29   44 1
    48   30   31 ar
@<TRIPOS>SUBSTRUCTURE
     1 ATP         1 GROUP 0 A     ****
@<TRIPOS>MOLECULE
[[[3,4-dihydroxy-5-(6-imino-7,8-dihydro-1~{H}-purin-8-ylium-9-yl)tetrahydrofuran-2-yl]methoxy-hydroxy-phosphoryl]oxy-oxido-phosphoryl] hydrogen phosphate
   46    48     1     0     0
SMALL
USER_CHARGES

@<TRIPOS>ATOM
      1 PG         -2.7168    0.9932   -5.8442 P.3       1 ATP         1.5644
      2 O1G        -3.6591    1.5529   -4.8020 O.co2     1 ATP        -0.8581
      3 O2G        -3.0360   -0.2952   -6.5692 O.co2     1 ATP        -0.8581
      4 O3G        -2.4226    2.1542   -6.9541 O.3       1 ATP        -0.7962
      5 PB          0.2012    0.4988   -5.9002 P.3       1 ATP         1.6830
      6 O1B         0.1531   -0.9518   -6.3259 O.co2     1 ATP        -0.8633
      7 O2B         0.5716    1.5880   -6.8821 O.co2     1 ATP        -0.8633
      8 O3B        -1.2220    0.8845   -5.2020 O.3       1 ATP        -0.8097
      9 PA          2.7605    0.3953   -4.4169 P.3       1 ATP         1.7610
     10 O1A         3.6064    1.3021   -5.2629 O.2       1 ATP        -0.8554
     11 O2A         2.9475   -1.1798   -4.7368 O.3       1 ATP        -0.8102
     12 O3A         1.1682    0.6209   -4.5912 O.3       1 ATP        -0.7693
     13 O5'         3.0213    0.5153   -2.8245 O.3       1 ATP        -0.5757
     14 C5'         2.2816   -0.2918   -1.9206 C.3       1 ATP         0.1911
     15 C4'         2.7248    0.0226   -0.4980 C.3       1 ATP         0.1218
     16 O4'         2.4697    1.4219   -0.2462 O.3       1 ATP        -0.4138
     17 C3'         1.9404   -0.7419    0.5596 C.3       1 ATP         0.1338
     18 O3'         2.7418   -0.8086    1.7389 O.3       1 ATP        -0.5756
     19 C2'         0.7477    0.1630    0.7858 C.3       1 ATP         0.0673
     20 O2'         0.1373   -0.0577    2.0407 O.3       1 ATP        -0.5671
     21 C1'         1.3733    1.5427    0.6747 C.3       1 ATP         0.3795
     22 N9          0.4520    2.5240    0.1767 N.pl3     1 ATP        -0.4175
     23 C8          0.2216    2.8192   -1.0985 C.ar      1 ATP         0.2552
     24 N7         -0.6906    3.7763   -1.2384 N.pl3     1 ATP        -0.4731
     25 C5         -1.0575    4.1037    0.0366 C.ar      1 ATP        -0.1295
     26 C6         -2.0291    5.0943    0.5330 C.ar      1 ATP         0.7196
     27 N6         -2.7093    5.8371   -0.2800 N.2       1 ATP        -0.8094
     28 N1         -2.1051    5.1136    1.9204 N.pl3     1 ATP        -0.8312
     29 C2         -1.3354    4.2774    2.7129 C.ar      1 ATP         0.6744
     30 N3         -0.4707    3.3945    2.2944 N.2       1 ATP        -0.5937
     31 C4         -0.3734    3.3525    0.9220 C.ar      1 ATP         0.2810
     32 HOG3       -1.8237    1.9438   -7.7020 H         1 ATP         0.4152
     33 HOA2        3.8352   -1.5832   -4.6298 H         1 ATP         0.4571
     34 H5'1        1.2163   -0.0770   -2.0471 H         1 ATP         0.0465
     35 H5'2        2.4655   -1.3443   -2.1563 H         1 ATP         0.0465
     36 H4'         3.8044   -0.1397   -0.4040 H         1 ATP         0.1379
     37 H3'         1.6764   -1.7639    0.2728 H         1 ATP         0.1317
     38 HO3'        2.2232   -1.2979    2.3953 H         1 ATP         0.4175
     39 H2'        -0.0011    0.0027    0.0003 H         1 ATP         0.0669
     40 HO2'       -0.6141    0.5574    2.1082 H         1 ATP         0.4064
     41 H1'         1.7826    1.9024    1.6451 H         1 ATP         0.1285
     42 H8          0.7125    2.3429   -1.9292 H         1 ATP         0.2954
     43 HN62       -3.3217    6.4517    0.2629 H         1 ATP         0.4226
     44 H2         -1.5188    4.4223    3.7890 H         1 ATP         0.0826
     45 H45        -2.7470    5.7626    2.3665 H         1 ATP         0.4581
     46 H46        -1.0305    4.1680   -2.1054 H         1 ATP         0.5252
@<TRIPOS>BOND
     1    1    2 2
     2    1    3 1
     3    1    4 1
     4    1    8 1
     5    4   32 1
     6    5    6 2
     7    5    7 1
     8    5    8 1
     9    5   12 1
    10    9   10 2
    11    9   11 1
    12    9   12 1
    13    9   13 1
    14   11   33 1
    15   13   14 1
    16   14   15 1
    17   14   34 1
    18   14   35 1
    19   15   16 1
    20   15   17 1
    21   15   36 1
    22   16   21 1
    23   17   18 1
    24   17   19 1
    25   17   37 1
    26   18   38 1
    27   19   20 1
    28   19   21 1
    29   19   39 1
    30   20   40 1
    31   21   22 1
    32   21   41 1
    33   22   23 ar
    34   22   31 ar
    35   23   24 ar
    36   23   42 1
    37   24   25 ar
    38   24   46 1
    39   25   26 ar
    40   25   31 ar
    41   26   27 2
    42   26   28 ar
    43   27   43 1
    44   28   29 ar
    45   28   45 1
    46   29   30 ar
    47   29   44 1
    48   30   31 ar
@<TRIPOS>SUBSTRUCTURE
     1 ATP         1 GROUP 0 A     ****
@<TRIPOS>MOLECULE
[[[3,4-dihydroxy-5-(6-imino-7,8-dihydro-1~{H}-purin-8-ylium-9-yl)tetrahydrofuran-2-yl]methoxy-hydroxy-phosphoryl]oxy-oxido-phosphoryl] hydrogen phosphate
   46    48     1     0     0
SMALL
USER_CHARGES

@<TRIPOS>ATOM
      1 PG         -0.1436   -1.9889   -7.4669 P.3       1 ATP         1.5644
      2 O1G         0.3834   -1.4786   -8.7896 O.co2     1 ATP        -0.8581
      3 O2G        -1.6273   -2.1763   -7.2413 O.co2     1 ATP        -0.8581
      4 O3G         0.6165   -3.3897   -7.1117 O.3       1 ATP        -0.7962
      5 PB          0.2012    0.4988   -5.9002 P.3       1 ATP         1.6830
      6 O1B         0.7799    1.3554   -7.0043 O.co2     1 ATP        -0.8633
      7 O2B        -1.2367    0.6607   -5.4597 O.co2     1 ATP        -0.8633
      8 O3B         0.4640   -1.0695   -6.2652 O.3       1 ATP        -0.8097
      9 PA          2.7605    0.3953   -4.4169 P.3       1 ATP         1.7610
     10 O1A         3.6064    1.3021   -5.2629 O.2       1 ATP        -0.8554
     11 O2A         2.9475   -1.1798   -4.7368 O.3       1 ATP        -0.8102
     12 O3A         1.1682    0.6209   -4.5912 O.3       1 ATP        -0.7693
     13 O5'         3.0213    0.5153   -2.8245 O.3       1 ATP        -0.5757
     14 C5'         2.2816   -0.2918   -1.9206 C.3       1 ATP         0.1911
     15 C4'         2.7248    0.0226   -0.4980 C.3       1 ATP         0.1218
     16 O4'         2.4697    1.4219   -0.2462 O.3       1 ATP        -0.4138
     17 C3'         1.9404   -0.7419    0.5596 C.3       1 ATP         0.1338
     18 O3'         2.7418   -0.8086    1.7389 O.3       1 ATP        -0.5756
     19 C2'         0.7477    0.1630    0.7858 C.3       1 ATP         0.0673
     20 O2'         0.1373   -0.0577    2.0407 O.3       1 ATP        -0.5671
     21 C1'         1.3733    1.5427    0.6747 C.3       1 ATP         0.3795
     22 N9          0.4520    2.5240    0.1767 N.pl3     1 ATP        -0.4175
     23 C8          0.2216    2.8192   -1.0985 C.ar      1 ATP         0.2552
     24 N7         -0.6906    3.7763   -1.2384 N.pl3     1 ATP        -0.4731
     25 C5         -1.0575    4.1037    0.0366 C.ar      1 ATP        -0.1295
     26 C6         -2.0291    5.0943    0.5330 C.ar      1 ATP         0.7196
     27 N6         -2.7093    5.8371   -0.2800 N.2       1 ATP        -0.8094
     28 N1         -2.1051    5.1136    1.9204 N.pl3     1 ATP        -0.8312
     29 C2         -1.3354    4.2774    2.7129 C.ar      1 ATP         0.6744
     30 N3         -0.4707    3.3945    2.2944 N.2       1 ATP        -0.5937
     31 C4         -0.3734    3.3525    0.9220 C.ar      1 ATP         0.2810
     32 HOG3        0.3822   -3.8493   -6.2773 H         1 ATP         0.4152
     33 HOA2        2.7451   -1.5077   -5.6388 H         1 ATP         0.4571
     34 H5'1        1.2163   -0.0770   -2.0471 H         1 ATP         0.0465
     35 H5'2        2.4655   -1.3443   -2.1563 H         1 ATP         0.0465
     36 H4'         3.8044   -0.1397   -0.4040 H         1 ATP         0.1379
     37 H3'         1.6764   -1.7639    0.2728 H         1 ATP         0.1317
     38 HO3'        2.2232   -1.2979    2.3953 H         1 ATP         0.4175
     39 H2'        -0.0011    0.0027    0.0003 H         1 ATP         0.0669
     40 HO2'       -0.6141    0.5574    2.1082 H         1 ATP         0.4064
     41 H1'         1.7826    1.9024    1.6451 H         1 ATP         0.1285
     42 H8          0.7125    2.3429   -1.9292 H         1 ATP         0.2954
     43 HN62       -3.3217    6.4517    0.2629 H         1 ATP         0.4226
     44 H2         -1.5188    4.4223    3.7890 H         1 ATP         0.0826
     45 H45        -2.7470    5.7626    2.3665 H         1 ATP         0.4581
     46 H46        -1.0305    4.1680   -2.1054 H         1 ATP         0.5252
@<TRIPOS>BOND
     1    1    2 2
     2    1    3 1
     3    1    4 1
     4    1    8 1
     5    4   32 1
     6    5    6 2
     7    5    7 1
     8    5    8 1
     9    5   12 1
    10    9   10 2
    11    9   11 1
    12    9   12 1
    13    9   13 1
    14   11   33 1
    15   13   14 1
    16   14   15 1
    17   14   34 1
    18   14   35 1
    19   15   16 1
    20   15   17 1
    21   15   36 1
    22   16   21 1
    23   17   18 1
    24   17   19 1
    25   17   37 1
    26   18   38 1
    27   19   20 1
    28   19   21 1
    29   19   39 1
    30   20   40 1
    31   21   22 1
    32   21   41 1
    33   22   23 ar
    34   22   31 ar
    35   23   24 ar
    36   23   42 1
    37   24   25 ar
    38   24   46 1
    39   25   26 ar
    40   25   31 ar
    41   26   27 2
    42   26   28 ar
    43   27   43 1
    44   28   29 ar
    45   28   45 1
    46   29   30 ar
    47   29   44 1
    48   30   31 ar
@<TRIPOS>SUBSTRUCTURE
     1 ATP         1 GROUP 0 A     ****
@<TRIPOS>MOLECULE
[[[3,4-dihydroxy-5-(6-imino-7,8-dihydro-1~{H}-purin-8-ylium-9-yl)tetrahydrofuran-2-yl]methoxy-hydroxy-phosphoryl]oxy-oxido-phosphoryl] hydrogen phosphate
   46    48     1     0     0
SMALL
USER_CHARGES

@<TRIPOS>ATOM
      1 PG          1.0979    3.7434   -5.6082 P.3       1 ATP         1.5644
      2 O1G         2.0132    3.5629   -4.4177 O.co2     1 ATP        -0.8581
      3 O2G        -0.2766    4.3536   -5.4468 O.co2     1 ATP        -0.8581
      4 O3G         1.9030    4.5749   -6.7599 O.3       1 ATP        -0.7962
      5 PB          0.2626    0.9203   -5.9155 P.3       1 ATP         1.6830
      6 O1B        -1.1537    1.2108   -5.4710 O.co2     1 ATP        -0.8633
      7 O2B         0.5521   -0.1415   -6.9531 O.co2     1 ATP        -0.8633
      8 O3B         0.9576    2.3185   -6.3883 O.3       1 ATP        -0.8097
      9 PA          2.7605    0.3953   -4.4169 P.3       1 ATP         1.7610
     10 O1A         3.6064    1.3021   -5.2629 O.2       1 ATP        -0.8554
     11 O2A         2.9475   -1.1798   -4.7368 O.3       1 ATP        -0.8102
     12 O3A         1.1682    0.6209   -4.5912 O.3       1 ATP        -0.7693
     13 O5'         3.0213    0.5153   -2.8245 O.3       1 ATP        -0.5757
     14 C5'         2.2816   -0.2918   -1.9206 C.3       1 ATP         0.1911
     15 C4'         2.7248    0.0226   -0.4980 C.3       1 ATP         0.1218
     16 O4'         2.4697    1.4219   -0.2462 O.3       1 ATP        -0.4138
     17 C3'         1.9404   -0.7419    0.5596 C.3       1 ATP         0.1338
     18 O3'         2.7418   -0.8086    1.7389 O.3       1 ATP        -0.5756
     19 C2'         0.7477    0.1630    0.7858 C.3       1 ATP         0.0673
     20 O2'         0.1373   -0.0577    2.0407 O.3       1 ATP        -0.5671
     21 C1'         1.3733    1.5427    0.6747 C.3       1 ATP         0.3795
     22 N9          0.4520    2.5240    0.1767 N.pl3     1 ATP        -0.4175
     23 C8          0.2216    2.8192   -1.0985 C.ar      1 ATP         0.2552
     24 N7         -0.6906    3.7763   -1.2384 N.pl3     1 ATP        -0.4731
     25 C5         -1.0575    4.1037    0.0366 C.ar      1 ATP        -0.1295
     26 C6         -2.0291    5.0943    0.5330 C.ar      1 ATP         0.7196
     27 N6         -2.7093    5.8371   -0.2800 N.2       1 ATP        -0.8094
     28 N1         -2.1051    5.1136    1.9204 N.pl3     1 ATP        -0.8312
     29 C2         -1.3354    4.2774    2.7129 C.ar      1 ATP         0.6744
     30 N3         -0.4707    3.3945    2.2944 N.2       1 ATP        -0.5937
     31 C4         -0.3734    3.3525    0.9220 C.ar      1 ATP         0.2810
     32 HOG3        1.4400    4.7740   -7.6015 H         1 ATP         0.4152
     33 HOA2        3.8352   -1.5832   -4.6298 H         1 ATP         0.4571
     34 H5'1        1.2163   -0.0770   -2.0471 H         1 ATP         0.0465
     35 H5'2        2.4655   -1.3443   -2.1563 H         1 ATP         0.0465
     36 H4'         3.8044   -0.1397   -0.4040 H         1 ATP         0.1379
     37 H3'         1.6764   -1.7639    0.2728 H         1 ATP         0.1317
     38 HO3'        2.2232   -1.2979    2.3953 H         1 ATP         0.4175
     39 H2'        -0.0011    0.0027    0.0003 H         1 ATP         0.0669
     40 HO2'       -0.6141    0.5574    2.1082 H         1 ATP         0.4064
     41 H1'         1.7826    1.9024    1.6451 H         1 ATP         0.1285
     42 H8          0.7125    2.3429   -1.9292 H         1 ATP         0.2954
     43 HN62       -3.3217    6.4517    0.2629 H         1 ATP         0.4226
     44 H2         -1.5188    4.4223    3.7890 H         1 ATP         0.0826
     45 H45        -2.7470    5.7626    2.3665 H         1 ATP         0.4581
     46 H46        -1.0305    4.1680   -2.1054 H         1 ATP         0.5252
@<TRIPOS>BOND
     1    1    2 2
     2    1    3 1
     3    1    4 1
     4    1    8 1
     5    4   32 1
     6    5    6 2
     7    5    7 1
     8    5    8 1
     9    5   12 1
    10    9   10 2
    11    9   11 1
    12    9   12 1
    13    9   13 1
    14   11   33 1
    15   13   14 1
    16   14   15 1
    17   14   34 1
    18   14   35 1
    19   15   16 1
    20   15   17 1
    21   15   36 1
    22   16   21 1
    23   17   18 1
    24   17   19 1
    25   17   37 1
    26   18   38 1
    27   19   20 1
    28   19   21 1
    29   19   39 1
    30   20   40 1
    31   21   22 1
    32   21   41 1
    33   22   23 ar
    34   22   31 ar
    35   23   24 ar
    36   23   42 1
    37   24   25 ar
    38   24   46 1
    39   25   26 ar
    40   25   31 ar
    41   26   27 2
    42   26   28 ar
    43   27   43 1
    44   28   29 ar
    45   28   45 1
    46   29   30 ar
    47   29   44 1
    48   30   31 ar
@<TRIPOS>SUBSTRUCTURE
     1 ATP         1 GROUP 0 A     ****
@<TRIPOS>MOLECULE
[[[3,4-dihydroxy-5-(6-imino-7,8-dihydro-1~{H}-purin-8-ylium-9-yl)tetrahydrofuran-2-yl]methoxy-hydroxy-phosphoryl]oxy-oxido-phosphoryl] hydrogen phosphate
   46    48     1     0     0
SMALL
USER_CHARGES

@<TRIPOS>ATOM
      1 PG         -1.1561   -1.6291   -4.9040 P.3       1 ATP         1.5644
      2 O1G        -2.0963   -0.7517   -4.1080 O.co2     1 ATP        -0.8581
      3 O2G        -0.1849   -2.5581   -4.2104 O.co2     1 ATP        -0.8581
      4 O3G        -2.0361   -2.4994   -5.9692 O.3       1 ATP        -0.7962
      5 PB          0.7769    0.4636   -5.7077 P.3       1 ATP         1.6830
      6 O1B         1.3466    0.8903   -7.0423 O.co2     1 ATP        -0.8633
      7 O2B         0.2048    1.4788   -4.7434 O.co2     1 ATP        -0.8633
      8 O3B        -0.3368   -0.7006   -5.9647 O.3       1 ATP        -0.8097
      9 PA          3.3429   -0.0249   -4.3155 P.3       1 ATP         1.7610
     10 O1A         4.1316    0.9232   -5.1715 O.2       1 ATP        -0.8554
     11 O2A         4.0556   -1.4579   -4.0783 O.3       1 ATP        -0.8102
     12 O3A         1.9004   -0.4266   -4.9275 O.3       1 ATP        -0.7693
     13 O5'         3.0213    0.5153   -2.8245 O.3       1 ATP        -0.5757
     14 C5'         2.2816   -0.2918   -1.9206 C.3       1 ATP         0.1911
     15 C4'         2.7248    0.0226   -0.4980 C.3       1 ATP         0.1218
     16 O4'         2.4697    1.4219   -0.2462 O.3       1 ATP        -0.4138
     17 C3'         1.9404   -0.7419    0.5596 C.3       1 ATP         0.1338
     18 O3'         2.7418   -0.8086    1.7389 O.3       1 ATP        -0.5756
     19 C2'         0.7477    0.1630    0.7858 C.3       1 ATP         0.0673
     20 O2'         0.1373   -0.0577    2.0407 O.3       1 ATP        -0.5671
     21 C1'         1.3733    1.5427    0.6747 C.3       1 ATP         0.3795
     22 N9          0.4520    2.5240    0.1767 N.pl3     1 ATP        -0.4175
     23 C8          0.2216    2.8192   -1.0985 C.ar      1 ATP         0.2552
     24 N7         -0.6906    3.7763   -1.2384 N.pl3     1 ATP        -0.4731
     25 C5         -1.0575    4.1037    0.0366 C.ar      1 ATP        -0.1295
     26 C6         -2.0291    5.0943    0.5330 C.ar      1 ATP         0.7196
     27 N6         -2.7093    5.8371   -0.2800 N.2       1 ATP        -0.8094
     28 N1         -2.1051    5.1136    1.9204 N.pl3     1 ATP        -0.8312
     29 C2         -1.3354    4.2774    2.7129 C.ar      1 ATP         0.6744
     30 N3         -0.4707    3.3945    2.2944 N.2       1 ATP        -0.5937
     31 C4         -0.3734    3.3525    0.9220 C.ar      1 ATP         0.2810
     32 HOG3       -1.5662   -3.1220   -6.5641 H         1 ATP         0.4152
     33 HOA2        4.9339   -1.4843   -3.6423 H         1 ATP         0.4571
     34 H5'1        1.2163   -0.0770   -2.0471 H         1 ATP         0.0465
     35 H5'2        2.4655   -1.3443   -2.1563 H         1 ATP         0.0465
     36 H4'         3.8044   -0.1397   -0.4040 H         1 ATP         0.1379
     37 H3'         1.6764   -1.7639    0.2728 H         1 ATP         0.1317
     38 HO3'        2.2232   -1.2979    2.3953 H         1 ATP         0.4175
     39 H2'        -0.0011    0.0027    0.0003 H         1 ATP         0.0669
     40 HO2'       -0.6141    0.5574    2.1082 H         1 ATP         0.4064
     41 H1'         1.7826    1.9024    1.6451 H         1 ATP         0.1285
     42 H8          0.7125    2.3429   -1.9292 H         1 ATP         0.2954
     43 HN62       -3.3217    6.4517    0.2629 H         1 ATP         0.4226
     44 H2         -1.5188    4.4223    3.7890 H         1 ATP         0.0826
     45 H45        -2.7470    5.7626    2.3665 H         1 ATP         0.4581
     46 H46        -1.0305    4.1680   -2.1054 H         1 ATP         0.5252
@<TRIPOS>BOND
     1    1    2 2
     2    1    3 1
     3    1    4 1
     4    1    8 1
     5    4   32 1
     6    5    6 2
     7    5    7 1
     8    5    8 1
     9    5   12 1
    10    9   10 2
    11    9   11 1
    12    9   12 1
    13    9   13 1
    14   11   33 1
    15   13   14 1
    16   14   15 1
    17   14   34 1
    18   14   35 1
    19   15   16 1
    20   15   17 1
    21   15   36 1
    22   16   21 1
    23   17   18 1
    24   17   19 1
    25   17   37 1
    26   18   38 1
    27   19   20 1
    28   19   21 1
    29   19   39 1
    30   20   40 1
    31   21   22 1
    32   21   41 1
    33   22   23 ar
    34   22   31 ar
    35   23   24 ar
    36   23   42 1
    37   24   25 ar
    38   24   46 1
    39   25   26 ar
    40   25   31 ar
    41   26   27 2
    42   26   28 ar
    43   27   43 1
    44   28   29 ar
    45   28   45 1
    46   29   30 ar
    47   29   44 1
    48   30   31 ar
@<TRIPOS>SUBSTRUCTURE
     1 ATP         1 GROUP 0 A     ****
@<TRIPOS>MOLECULE
[[[3,4-dihydroxy-5-(6-imino-7,8-dihydro-1~{H}-purin-8-ylium-9-yl)tetrahydrofuran-2-yl]methoxy-hydroxy-phosphoryl]oxy-oxido-phosphoryl] hydrogen phosphate
   46    48     1     0     0
SMALL
USER_CHARGES

@<TRIPOS>ATOM
      1 PG          3.6798    1.4731   -6.2180 P.3       1 ATP         1.5644
      2 O1G         4.4699    2.3964   -5.3176 O.co2     1 ATP        -0.8581
      3 O2G         2.1840    1.3200   -6.0546 O.co2     1 ATP        -0.8581
      4 O3G         3.9945    1.8688   -7.7707 O.3       1 ATP        -0.7962
      5 PB          4.4941   -1.0941   -4.9899 P.3       1 ATP         1.6830
      6 O1B         5.0776   -2.3719   -5.5508 O.co2     1 ATP        -0.8633
      7 O2B         5.1111   -0.4175   -3.7861 O.co2     1 ATP        -0.8633
      8 O3B         4.3698   -0.0040   -6.1974 O.3       1 ATP        -0.8097
      9 PA          2.1493   -2.2871   -3.6336 P.3       1 ATP         1.7610
     10 O1A         2.4555   -3.7486   -3.7880 O.2       1 ATP        -0.8554
     11 O2A         0.5901   -1.9079   -3.8415 O.3       1 ATP        -0.8102
     12 O3A         2.9062   -1.3352   -4.7002 O.3       1 ATP        -0.7693
     13 O5'         2.5245   -1.6648   -2.1878 O.3       1 ATP        -0.5757
     14 C5'         2.2816   -0.2918   -1.9206 C.3       1 ATP         0.1911
     15 C4'         2.7248    0.0226   -0.4980 C.3       1 ATP         0.1218
     16 O4'         2.4697    1.4219   -0.2462 O.3       1 ATP        -0.4138
     17 C3'         1.9404   -0.7419    0.5596 C.3       1 ATP         0.1338
     18 O3'         2.7418   -0.8086    1.7389 O.3       1 ATP        -0.5756
     19 C2'         0.7477    0.1630    0.7858 C.3       1 ATP         0.0673
     20 O2'         0.1373   -0.0577    2.0407 O.3       1 ATP        -0.5671
     21 C1'         1.3733    1.5427    0.6747 C.3       1 ATP         0.3795
     22 N9          0.4520    2.5240    0.1767 N.pl3     1 ATP        -0.4175
     23 C8          0.2216    2.8192   -1.0985 C.ar      1 ATP         0.2552
     24 N7         -0.6906    3.7763   -1.2384 N.pl3     1 ATP        -0.4731
     25 C5         -1.0575    4.1037    0.0366 C.ar      1 ATP        -0.1295
     26 C6         -2.0291    5.0943    0.5330 C.ar      1 ATP         0.7196
     27 N6         -2.7093    5.8371   -0.2800 N.2       1 ATP        -0.8094
     28 N1         -2.1051    5.1136    1.9204 N.pl3     1 ATP        -0.8312
     29 C2         -1.3354    4.2774    2.7129 C.ar      1 ATP         0.6744
     30 N3         -0.4707    3.3945    2.2944 N.2       1 ATP        -0.5937
     31 C4         -0.3734    3.3525    0.9220 C.ar      1 ATP         0.2810
     32 HOG3        3.5534    1.3563   -8.4815 H         1 ATP         0.4152
     33 HOA2       -0.0792   -2.3122   -3.2493 H         1 ATP         0.4571
     34 H5'1        2.8432    0.3119   -2.6398 H         1 ATP         0.0465
     35 H5'2        1.2128   -0.0927   -2.0428 H         1 ATP         0.0465
     36 H4'         3.8044   -0.1397   -0.4040 H         1 ATP         0.1379
     37 H3'         1.6764   -1.7639    0.2728 H         1 ATP         0.1317
     38 HO3'        2.2232   -1.2979    2.3953 H         1 ATP         0.4175
     39 H2'        -0.0011    0.0027    0.0003 H         1 ATP         0.0669
     40 HO2'       -0.6141    0.5574    2.1082 H         1 ATP         0.4064
     41 H1'         1.7826    1.9024    1.6451 H         1 ATP         0.1285
     42 H8          0.7125    2.3429   -1.9292 H         1 ATP         0.2954
     43 HN62       -3.3217    6.4517    0.2629 H         1 ATP         0.4226
     44 H2         -1.5188    4.4223    3.7890 H         1 ATP         0.0826
     45 H45        -2.7470    5.7626    2.3665 H         1 ATP         0.4581
     46 H46        -1.0305    4.1680   -2.1054 H         1 ATP         0.5252
@<TRIPOS>BOND
     1    1    2 2
     2    1    3 1
     3    1    4 1
     4    1    8 1
     5    4   32 1
     6    5    6 2
     7    5    7 1
     8    5    8 1
     9    5   12 1
    10    9   10 2
    11    9   11 1
    12    9   12 1
    13    9   13 1
    14   11   33 1
    15   13   14 1
    16   14   15 1
    17   14   34 1
    18   14   35 1
    19   15   16 1
    20   15   17 1
    21   15   36 1
    22   16   21 1
    23   17   18 1
    24   17   19 1
    25   17   37 1
    26   18   38 1
    27   19   20 1
    28   19   21 1
    29   19   39 1
    30   20   40 1
    31   21   22 1
    32   21   41 1
    33   22   23 ar
    34   22   31 ar
    35   23   24 ar
    36   23   42 1
    37   24   25 ar
    38   24   46 1
    39   25   26 ar
    40   25   31 ar
    41   26   27 2
    42   26   28 ar
    43   27   43 1
    44   28   29 ar
    45   28   45 1
    46   29   30 ar
    47   29   44 1
    48   30   31 ar
@<TRIPOS>SUBSTRUCTURE
     1 ATP         1 GROUP 0 A     ****
@<TRIPOS>MOLECULE
[[[3,4-dihydroxy-5-(6-imino-7,8-dihydro-1~{H}-purin-8-ylium-9-yl)tetrahydrofuran-2-yl]methoxy-hydroxy-phosphoryl]oxy-oxido-phosphoryl] hydrogen phosphate
   46    48     1     0     0
SMALL
USER_CHARGES

@<TRIPOS>ATOM
      1 PG         -4.9742   -4.6129   -0.3399 P.3       1 ATP         1.5644
      2 O1G        -5.9542   -3.5044   -0.0263 O.co2     1 ATP        -0.8581
      3 O2G        -5.4418   -5.9131   -0.9550 O.co2     1 ATP        -0.8581
      4 O3G        -3.7781   -4.0004   -1.2675 O.3       1 ATP        -0.7962
      5 PB         -4.5602   -5.5890    2.4238 P.3       1 ATP         1.6830
      6 O1B        -5.4804   -4.6136    3.1235 O.co2     1 ATP        -0.8633
      7 O2B        -4.9749   -7.0254    2.1947 O.co2     1 ATP        -0.8633
      8 O3B        -4.1021   -4.9420    0.9979 O.3       1 ATP        -0.8097
      9 PA         -1.7101   -6.2838    2.8184 P.3       1 ATP         1.7610
     10 O1A        -1.8467   -7.6794    2.2823 O.2       1 ATP        -0.8554
     11 O2A        -0.8728   -6.1797    4.1989 O.3       1 ATP        -0.8102
     12 O3A        -3.1168   -5.5743    3.1854 O.3       1 ATP        -0.7693
     13 O5'        -0.9724   -5.2440    1.8220 O.3       1 ATP        -0.5757
     14 C5'        -0.7840   -3.8935    2.2172 C.3       1 ATP         0.1911
     15 C4'        -0.0724   -3.1466    1.1027 C.3       1 ATP         0.1218
     16 O4'        -0.8674   -3.1929   -0.0945 O.3       1 ATP        -0.4138
     17 C3'         0.1338   -1.6715    1.4027 C.3       1 ATP         0.1338
     18 O3'         1.2893   -1.4445    2.1808 O.3       1 ATP        -0.5756
     19 C2'         0.2158   -1.0724    0.0128 C.3       1 ATP         0.0673
     20 O2'         1.5141   -1.2448   -0.5513 O.3       1 ATP        -0.5671
     21 C1'        -0.7897   -1.9176   -0.7583 C.3       1 ATP         0.3795
     22 N9         -2.1040   -1.3333   -0.7704 N.pl3     1 ATP        -0.4175
     23 C8         -3.0590   -1.5123    0.1363 C.ar      1 ATP         0.2552
     24 N7         -4.1655   -0.8354   -0.1554 N.pl3     1 ATP        -0.4731
     25 C5         -3.8852   -0.1874   -1.3253 C.ar      1 ATP        -0.1295
     26 C6         -4.7113    0.7160   -2.1458 C.ar      1 ATP         0.7196
     27 N6         -5.9213    1.0209   -1.8021 N.2       1 ATP        -0.8094
     28 N1         -4.0411    1.1673   -3.2764 N.pl3     1 ATP        -0.8312
     29 C2         -2.7403    0.7865   -3.5638 C.ar      1 ATP         0.6744
     30 N3         -1.9921   -0.0108   -2.8519 N.2       1 ATP        -0.5937
     31 C4         -2.6302   -0.4747   -1.7239 C.ar      1 ATP         0.2810
     32 HOG3       -3.0583   -4.6006   -1.5572 H         1 ATP         0.4152
     33 HOA2        0.0586   -6.4873    4.2129 H         1 ATP         0.4571
     34 H5'1       -1.7618   -3.4448    2.4164 H         1 ATP         0.0465
     35 H5'2       -0.1874   -3.8744    3.1341 H         1 ATP         0.0465
     36 H4'         0.8874   -3.6466    0.8805 H         1 ATP         0.1379
     37 H3'        -0.7376   -1.2333    1.9867 H         1 ATP         0.1317
     38 HO3'        1.3408   -0.4870    2.3219 H         1 ATP         0.4175
     39 H2'        -0.0384   -0.0310    0.0096 H         1 ATP         0.0669
     40 HO2'        2.1463   -0.7958    0.0370 H         1 ATP         0.4064
     41 H1'        -0.4769   -2.1002   -1.8093 H         1 ATP         0.1285
     42 H8         -2.9569   -2.1323    1.0098 H         1 ATP         0.2954
     43 HN62       -6.3169    1.6552   -2.5012 H         1 ATP         0.4226
     44 H2         -2.3612    1.2343   -4.4957 H         1 ATP         0.0826
     45 H45        -4.5223    1.7976   -3.9117 H         1 ATP         0.4581
     46 H46        -5.0218   -0.8132    0.3804 H         1 ATP         0.5252
@<TRIPOS>BOND
     1    1    2 2
     2    1    3 1
     3    1    4 1
     4    1    8 1
     5    4   32 1
     6    5    6 2
     7    5    7 1
     8    5    8 1
     9    5   12 1
    10    9   10 2
    11    9   11 1
    12    9   12 1
    13    9   13 1
    14   11   33 1
    15   13   14 1
    16   14   15 1
    17   14   34 1
    18   14   35 1
    19   15   16 1
    20   15   17 1
    21   15   36 1
    22   16   21 1
    23   17   18 1
    24   17   19 1
    25   17   37 1
    26   18   38 1
    27   19   20 1
    28   19   21 1
    29   19   39 1
    30   20   40 1
    31   21   22 1
    32   21   41 1
    33   22   23 ar
    34   22   31 ar
    35   23   24 ar
    36   23   42 1
    37   24   25 ar
    38   24   46 1
    39   25   26 ar
    40   25   31 ar
    41   26   27 2
    42   26   28 ar
    43   27   43 1
    44   28   29 ar
    45   28   45 1
    46   29   30 ar
    47   29   44 1
    48   30   31 ar
@<TRIPOS>SUBSTRUCTURE
     1 ATP         1 GROUP 0 A     ****
@<TRIPOS>MOLECULE
[[[3,4-dihydroxy-5-(6-imino-7,8-dihydro-1~{H}-purin-8-ylium-9-yl)tetrahydrofuran-2-yl]methoxy-hydroxy-phosphoryl]oxy-oxido-phosphoryl] hydrogen phosphate
   46    48     1     0     0
SMALL
USER_CHARGES

@<TRIPOS>ATOM
      1 PG          3.2297    5.2366   -5.7152 P.3       1 ATP         1.5644
      2 O1G         4.3414    5.7090   -4.8051 O.co2     1 ATP        -0.8581
      3 O2G         2.0345    6.1171   -6.0046 O.co2     1 ATP        -0.8581
      4 O3G         3.8858    4.7688   -7.1354 O.3       1 ATP        -0.7962
      5 PB          1.9196    3.3696   -3.8284 P.3       1 ATP         1.6830
      6 O1B         2.8514    3.5794   -2.6555 O.co2     1 ATP        -0.8633
      7 O2B         0.5419    3.9934   -3.8512 O.co2     1 ATP        -0.8633
      8 O3B         2.7044    3.7822   -5.1978 O.3       1 ATP        -0.8097
      9 PA          2.8900    0.6162   -4.3161 P.3       1 ATP         1.7610
     10 O1A         4.0478    1.0418   -5.1716 O.2       1 ATP        -0.8554
     11 O2A         2.0339   -0.6169   -4.9198 O.3       1 ATP        -0.8102
     12 O3A         1.7740    1.7656   -4.0918 O.3       1 ATP        -0.7693
     13 O5'         3.2903    0.1346   -2.8241 O.3       1 ATP        -0.5757
     14 C5'         2.2816   -0.2918   -1.9206 C.3       1 ATP         0.1911
     15 C4'         2.7248    0.0226   -0.4980 C.3       1 ATP         0.1218
     16 O4'         2.4697    1.4219   -0.2462 O.3       1 ATP        -0.4138
     17 C3'         1.9404   -0.7419    0.5596 C.3       1 ATP         0.1338
     18 O3'         2.7418   -0.8086    1.7389 O.3       1 ATP        -0.5756
     19 C2'         0.7477    0.1630    0.7858 C.3       1 ATP         0.0673
     20 O2'         0.1373   -0.0577    2.0407 O.3       1 ATP        -0.5671
     21 C1'         1.3733    1.5427    0.6747 C.3       1 ATP         0.3795
     22 N9          0.4520    2.5240    0.1767 N.pl3     1 ATP        -0.4175
     23 C8         -0.2004    2.4829   -0.9804 C.ar      1 ATP         0.2552
     24 N7         -0.9830    3.5431   -1.1568 N.pl3     1 ATP        -0.4731
     25 C5         -0.8095    4.3012   -0.0331 C.ar      1 ATP        -0.1295
     26 C6         -1.4065    5.5904    0.3585 C.ar      1 ATP         0.7196
     27 N6         -2.2501    6.2030   -0.4084 N.2       1 ATP        -0.8094
     28 N1         -0.9585    6.0272    1.5994 N.pl3     1 ATP        -0.8312
     29 C2         -0.0508    5.3009    2.3532 C.ar      1 ATP         0.6744
     30 N3          0.4890    4.1592    2.0257 N.2       1 ATP        -0.5937
     31 C4          0.0637    3.7006    0.7995 C.ar      1 ATP         0.2810
     32 HOG3        3.2884    4.4337   -7.8376 H         1 ATP         0.4152
     33 HOA2        2.4845   -1.4733   -5.0803 H         1 ATP         0.4571
     34 H5'1        1.3514    0.2330   -2.1577 H         1 ATP         0.0465
     35 H5'2        2.1280   -1.3678   -2.0460 H         1 ATP         0.0465
     36 H4'         3.8044   -0.1397   -0.4040 H         1 ATP         0.1379
     37 H3'         1.6764   -1.7639    0.2728 H         1 ATP         0.1317
     38 HO3'        2.2232   -1.2979    2.3953 H         1 ATP         0.4175
     39 H2'        -0.0011    0.0027    0.0003 H         1 ATP         0.0669
     40 HO2'       -0.6141    0.5574    2.1082 H         1 ATP         0.4064
     41 H1'         1.7826    1.9024    1.6451 H         1 ATP         0.1285
     42 H8         -0.1116    1.6863   -1.6984 H         1 ATP         0.2954
     43 HN62       -2.5420    7.0730    0.0447 H         1 ATP         0.4226
     44 H2          0.1969    5.7893    3.3086 H         1 ATP         0.0826
     45 H45        -1.3097    6.9080    1.9642 H         1 ATP         0.4581
     46 H46        -1.5735    3.7351   -1.9538 H         1 ATP         0.5252
@<TRIPOS>BOND
     1    1    2 2
     2    1    3 1
     3    1    4 1
     4    1    8 1
     5    4   32 1
     6    5    6 2
     7    5    7 1
     8    5    8 1
     9    5   12 1
    10    9   10 2
    11    9   11 1
    12    9   12 1
    13    9   13 1
    14   11   33 1
    15   13   14 1
    16   14   15 1
    17   14   34 1
    18   14   35 1
    19   15   16 1
    20   15   17 1
    21   15   36 1
    22   16   21 1
    23   17   18 1
    24   17   19 1
    25   17   37 1
    26   18   38 1
    27   19   20 1
    28   19   21 1
    29   19   39 1
    30   20   40 1
    31   21   22 1
    32   21   41 1
    33   22   23 ar
    34   22   31 ar
    35   23   24 ar
    36   23   42 1
    37   24   25 ar
    38   24   46 1
    39   25   26 ar
    40   25   31 ar
    41   26   27 2
    42   26   28 ar
    43   27   43 1
    44   28   29 ar
    45   28   45 1
    46   29   30 ar
    47   29   44 1
    48   30   31 ar
@<TRIPOS>SUBSTRUCTURE
     1 ATP         1 GROUP 0 A     ****
@<TRIPOS>MOLECULE
[[[3,4-dihydroxy-5-(6-imino-7,8-dihydro-1~{H}-purin-8-ylium-9-yl)tetrahydrofuran-2-yl]methoxy-hydroxy-phosphoryl]oxy-oxido-phosphoryl] hydrogen phosphate
   46    48     1     0     0
SMALL
USER_CHARGES

@<TRIPOS>ATOM
      1 PG         -1.8129    2.0618   -6.3620 P.3       1 ATP         1.5644
      2 O1G        -2.6655    0.8585   -6.6981 O.co2     1 ATP        -0.8581
      3 O2G        -1.4194    3.0585   -7.4293 O.co2     1 ATP        -0.8581
      4 O3G        -2.5193    2.8703   -5.1317 O.3       1 ATP        -0.7962
      5 PB          0.7873    0.6679   -6.1202 P.3       1 ATP         1.6830
      6 O1B         0.2962   -0.7310   -6.4193 O.co2     1 ATP        -0.8633
      7 O2B         1.5424    1.4681   -7.1581 O.co2     1 ATP        -0.8633
      8 O3B        -0.4706    1.5585   -5.5851 O.3       1 ATP        -0.8097
      9 PA          3.0915   -0.0732   -4.4165 P.3       1 ATP         1.7610
     10 O1A         4.2296    0.4201   -5.2621 O.2       1 ATP        -0.8554
     11 O2A         2.7765   -1.6519   -4.5791 O.3       1 ATP        -0.8102
     12 O3A         1.6695    0.6231   -4.7478 O.3       1 ATP        -0.7693
     13 O5'         3.2903    0.1346   -2.8241 O.3       1 ATP        -0.5757
     14 C5'         2.2816   -0.2918   -1.9206 C.3       1 ATP         0.1911
     15 C4'         2.7248    0.0226   -0.4980 C.3       1 ATP         0.1218
     16 O4'         2.4697    1.4219   -0.2462 O.3       1 ATP        -0.4138
     17 C3'         1.9404   -0.7419    0.5596 C.3       1 ATP         0.1338
     18 O3'         2.7418   -0.8086    1.7389 O.3       1 ATP        -0.5756
     19 C2'         0.7477    0.1630    0.7858 C.3       1 ATP         0.0673
     20 O2'         0.1373   -0.0577    2.0407 O.3       1 ATP        -0.5671
     21 C1'         1.3733    1.5427    0.6747 C.3       1 ATP         0.3795
     22 N9          0.4520    2.5240    0.1767 N.pl3     1 ATP        -0.4175
     23 C8          0.2216    2.8192   -1.0985 C.ar      1 ATP         0.2552
     24 N7         -0.6906    3.7763   -1.2384 N.pl3     1 ATP        -0.4731
     25 C5         -1.0575    4.1037    0.0366 C.ar      1 ATP        -0.1295
     26 C6         -2.0291    5.0943    0.5330 C.ar      1 ATP         0.7196
     27 N6         -2.7093    5.8371   -0.2800 N.2       1 ATP        -0.8094
     28 N1         -2.1051    5.1136    1.9204 N.pl3     1 ATP        -0.8312
     29 C2         -1.3354    4.2774    2.7129 C.ar      1 ATP         0.6744
     30 N3         -0.4707    3.3945    2.2944 N.2       1 ATP        -0.5937
     31 C4         -0.3734    3.3525    0.9220 C.ar      1 ATP         0.2810
     32 HOG3       -2.0832    3.6822   -4.7956 H         1 ATP         0.4152
     33 HOA2        2.5282   -1.9972   -5.4631 H         1 ATP         0.4571
     34 H5'1        1.3514    0.2330   -2.1577 H         1 ATP         0.0465
     35 H5'2        2.1280   -1.3678   -2.0460 H         1 ATP         0.0465
     36 H4'         3.8044   -0.1397   -0.4040 H         1 ATP         0.1379
     37 H3'         1.6764   -1.7639    0.2728 H         1 ATP         0.1317
     38 HO3'        2.2232   -1.2979    2.3953 H         1 ATP         0.4175
     39 H2'        -0.0011    0.0027    0.0003 H         1 ATP         0.0669
     40 HO2'       -0.1563   -0.9855    2.0596 H         1 ATP         0.4064
     41 H1'         1.7826    1.9024    1.6451 H         1 ATP         0.1285
     42 H8          0.7125    2.3429   -1.9292 H         1 ATP         0.2954
     43 HN62       -3.3217    6.4517    0.2629 H         1 ATP         0.4226
     44 H2         -1.5188    4.4223    3.7890 H         1 ATP         0.0826
     45 H45        -2.7470    5.7626    2.3665 H         1 ATP         0.4581
     46 H46        -1.0305    4.1680   -2.1054 H         1 ATP         0.5252
@<TRIPOS>BOND
     1    1    2 2
     2    1    3 1
     3    1    4 1
     4    1    8 1
     5    4   32 1
     6    5    6 2
     7    5    7 1
     8    5    8 1
     9    5   12 1
    10    9   10 2
    11    9   11 1
    12    9   12 1
    13    9   13 1
    14   11   33 1
    15   13   14 1
    16   14   15 1
    17   14   34 1
    18   14   35 1
    19   15   16 1
    20   15   17 1
    21   15   36 1
    22   16   21 1
    23   17   18 1
    24   17   19 1
    25   17   37 1
    26   18   38 1
    27   19   20 1
    28   19   21 1
    29   19   39 1
    30   20   40 1
    31   21   22 1
    32   21   41 1
    33   22   23 ar
    34   22   31 ar
    35   23   24 ar
    36   23   42 1
    37   24   25 ar
    38   24   46 1
    39   25   26 ar
    40   25   31 ar
    41   26   27 2
    42   26   28 ar
    43   27   43 1
    44   28   29 ar
    45   28   45 1
    46   29   30 ar
    47   29   44 1
    48   30   31 ar
@<TRIPOS>SUBSTRUCTURE
     1 ATP         1 GROUP 0 A     ****
@<TRIPOS>MOLECULE
[[[3,4-dihydroxy-5-(6-imino-7,8-dihydro-1~{H}-purin-8-ylium-9-yl)tetrahydrofuran-2-yl]methoxy-hydroxy-phosphoryl]oxy-oxido-phosphoryl] hydrogen phosphate
   46    48     1     0     0
SMALL
USER_CHARGES

@<TRIPOS>ATOM
      1 PG         -1.4703    3.0945   -5.6623 P.3       1 ATP         1.5644
      2 O1G        -1.2470    3.5742   -7.0792 O.co2     1 ATP        -0.8581
      3 O2G        -1.5985    4.0772   -4.5198 O.co2     1 ATP        -0.8581
      4 O3G        -2.7719    2.1088   -5.6477 O.3       1 ATP        -0.7962
      5 PB          1.2852    2.1689   -5.1032 P.3       1 ATP         1.6830
      6 O1B         1.8921    2.5166   -6.4443 O.co2     1 ATP        -0.8633
      7 O2B         1.5429    3.0269   -3.8845 O.co2     1 ATP        -0.8633
      8 O3B        -0.3260    1.9942   -5.2899 O.3       1 ATP        -0.8097
      9 PA          3.0915   -0.0732   -4.4165 P.3       1 ATP         1.7610
     10 O1A         4.2296    0.4201   -5.2621 O.2       1 ATP        -0.8554
     11 O2A         2.7765   -1.6519   -4.5791 O.3       1 ATP        -0.8102
     12 O3A         1.6695    0.6231   -4.7478 O.3       1 ATP        -0.7693
     13 O5'         3.2903    0.1346   -2.8241 O.3       1 ATP        -0.5757
     14 C5'         2.2816   -0.2918   -1.9206 C.3       1 ATP         0.1911
     15 C4'         2.7248    0.0226   -0.4980 C.3       1 ATP         0.1218
     16 O4'         2.4697    1.4219   -0.2462 O.3       1 ATP        -0.4138
     17 C3'         1.9404   -0.7419    0.5596 C.3       1 ATP         0.1338
     18 O3'         2.7418   -0.8086    1.7389 O.3       1 ATP        -0.5756
     19 C2'         0.7477    0.1630    0.7858 C.3       1 ATP         0.0673
     20 O2'         0.1373   -0.0577    2.0407 O.3       1 ATP        -0.5671
     21 C1'         1.3733    1.5427    0.6747 C.3       1 ATP         0.3795
     22 N9          0.4520    2.5240    0.1767 N.pl3     1 ATP        -0.4175
     23 C8         -0.2004    2.4829   -0.9804 C.ar      1 ATP         0.2552
     24 N7         -0.9830    3.5431   -1.1568 N.pl3     1 ATP        -0.4731
     25 C5         -0.8095    4.3012   -0.0331 C.ar      1 ATP        -0.1295
     26 C6         -1.4065    5.5904    0.3585 C.ar      1 ATP         0.7196
     27 N6         -2.2501    6.2030   -0.4084 N.2       1 ATP        -0.8094
     28 N1         -0.9585    6.0272    1.5994 N.pl3     1 ATP        -0.8312
     29 C2         -0.0508    5.3009    2.3532 C.ar      1 ATP         0.6744
     30 N3          0.4890    4.1592    2.0257 N.2       1 ATP        -0.5937
     31 C4          0.0637    3.7006    0.7995 C.ar      1 ATP         0.2810
     32 HOG3       -3.0479    1.7128   -4.7937 H         1 ATP         0.4152
     33 HOA2        3.4791   -2.3005   -4.3603 H         1 ATP         0.4571
     34 H5'1        1.3514    0.2330   -2.1577 H         1 ATP         0.0465
     35 H5'2        2.1280   -1.3678   -2.0460 H         1 ATP         0.0465
     36 H4'         3.8044   -0.1397   -0.4040 H         1 ATP         0.1379
     37 H3'         1.6764   -1.7639    0.2728 H         1 ATP         0.1317
     38 HO3'        2.2232   -1.2979    2.3953 H         1 ATP         0.4175
     39 H2'        -0.0011    0.0027    0.0003 H         1 ATP         0.0669
     40 HO2'       -0.1563   -0.9855    2.0596 H         1 ATP         0.4064
     41 H1'         1.7826    1.9024    1.6451 H         1 ATP         0.1285
     42 H8         -0.1116    1.6863   -1.6984 H         1 ATP         0.2954
     43 HN62       -2.5420    7.0730    0.0447 H         1 ATP         0.4226
     44 H2          0.1969    5.7893    3.3086 H         1 ATP         0.0826
     45 H45        -1.3097    6.9080    1.9642 H         1 ATP         0.4581
     46 H46        -1.5735    3.7351   -1.9538 H         1 ATP         0.5252
@<TRIPOS>BOND
     1    1    2 2
     2    1    3 1
     3    1    4 1
     4    1    8 1
     5    4   32 1
     6    5    6 2
     7    5    7 1
     8    5    8 1
     9    5   12 1
    10    9   10 2
    11    9   11 1
    12    9   12 1
    13    9   13 1
    14   11   33 1
    15   13   14 1
    16   14   15 1
    17   14   34 1
    18   14   35 1
    19   15   16 1
    20   15   17 1
    21   15   36 1
    22   16   21 1
    23   17   18 1
    24   17   19 1
    25   17   37 1
    26   18   38 1
    27   19   20 1
    28   19   21 1
    29   19   39 1
    30   20   40 1
    31   21   22 1
    32   21   41 1
    33   22   23 ar
    34   22   31 ar
    35   23   24 ar
    36   23   42 1
    37   24   25 ar
    38   24   46 1
    39   25   26 ar
    40   25   31 ar
    41   26   27 2
    42   26   28 ar
    43   27   43 1
    44   28   29 ar
    45   28   45 1
    46   29   30 ar
    47   29   44 1
    48   30   31 ar
@<TRIPOS>SUBSTRUCTURE
     1 ATP         1 GROUP 0 A     ****
@<TRIPOS>MOLECULE
[[[3,4-dihydroxy-5-(6-imino-7,8-dihydro-1~{H}-purin-8-ylium-9-yl)tetrahydrofuran-2-yl]methoxy-hydroxy-phosphoryl]oxy-oxido-phosphoryl] hydrogen phosphate
   46    48     1     0     0
SMALL
USER_CHARGES

@<TRIPOS>ATOM
      1 PG         -1.1784    0.0625   -5.9621 P.3       1 ATP         1.5644
      2 O1G        -1.2172    0.8664   -7.2426 O.co2     1 ATP        -0.8581
      3 O2G        -0.9233    0.7328   -4.6305 O.co2     1 ATP        -0.8581
      4 O3G        -2.5585   -0.8032   -5.8515 O.3       1 ATP        -0.7962
      5 PB          1.4920   -1.1615   -6.3264 P.3       1 ATP         1.6830
      6 O1B         1.9927   -2.5880   -6.2815 O.co2     1 ATP        -0.8633
      7 O2B         1.8455   -0.2466   -7.4778 O.co2     1 ATP        -0.8633
      8 O3B        -0.1292   -1.1723   -6.1443 O.3       1 ATP        -0.8097
      9 PA          3.3429   -0.0249   -4.3155 P.3       1 ATP         1.7610
     10 O1A         4.1316    0.9232   -5.1715 O.2       1 ATP        -0.8554
     11 O2A         4.0556   -1.4579   -4.0783 O.3       1 ATP        -0.8102
     12 O3A         1.9004   -0.4266   -4.9275 O.3       1 ATP        -0.7693
     13 O5'         3.0213    0.5153   -2.8245 O.3       1 ATP        -0.5757
     14 C5'         2.2816   -0.2918   -1.9206 C.3       1 ATP         0.1911
     15 C4'         2.7248    0.0226   -0.4980 C.3       1 ATP         0.1218
     16 O4'         2.4697    1.4219   -0.2462 O.3       1 ATP        -0.4138
     17 C3'         1.9404   -0.7419    0.5596 C.3       1 ATP         0.1338
     18 O3'         2.7418   -0.8086    1.7389 O.3       1 ATP        -0.5756
     19 C2'         0.7477    0.1630    0.7858 C.3       1 ATP         0.0673
     20 O2'         0.1373   -0.0577    2.0407 O.3       1 ATP        -0.5671
     21 C1'         1.3733    1.5427    0.6747 C.3       1 ATP         0.3795
     22 N9          0.4520    2.5240    0.1767 N.pl3     1 ATP        -0.4175
     23 C8          0.2216    2.8192   -1.0985 C.ar      1 ATP         0.2552
     24 N7         -0.6906    3.7763   -1.2384 N.pl3     1 ATP        -0.4731
     25 C5         -1.0575    4.1037    0.0366 C.ar      1 ATP        -0.1295
     26 C6         -2.0291    5.0943    0.5330 C.ar      1 ATP         0.7196
     27 N6         -2.7093    5.8371   -0.2800 N.2       1 ATP        -0.8094
     28 N1         -2.1051    5.1136    1.9204 N.pl3     1 ATP        -0.8312
     29 C2         -1.3354    4.2774    2.7129 C.ar      1 ATP         0.6744
     30 N3         -0.4707    3.3945    2.2944 N.2       1 ATP        -0.5937
     31 C4         -0.3734    3.3525    0.9220 C.ar      1 ATP         0.2810
     32 HOG3       -2.6855   -1.3811   -5.0691 H         1 ATP         0.4152
     33 HOA2        4.9339   -1.4843   -3.6423 H         1 ATP         0.4571
     34 H5'1        1.2163   -0.0770   -2.0471 H         1 ATP         0.0465
     35 H5'2        2.4655   -1.3443   -2.1563 H         1 ATP         0.0465
     36 H4'         3.8044   -0.1397   -0.4040 H         1 ATP         0.1379
     37 H3'         1.6764   -1.7639    0.2728 H         1 ATP         0.1317
     38 HO3'        2.2232   -1.2979    2.3953 H         1 ATP         0.4175
     39 H2'        -0.0011    0.0027    0.0003 H         1 ATP         0.0669
     40 HO2'       -0.6141    0.5574    2.1082 H         1 ATP         0.4064
     41 H1'         1.7826    1.9024    1.6451 H         1 ATP         0.1285
     42 H8          0.7125    2.3429   -1.9292 H         1 ATP         0.2954
     43 HN62       -3.3217    6.4517    0.2629 H         1 ATP         0.4226
     44 H2         -1.5188    4.4223    3.7890 H         1 ATP         0.0826
     45 H45        -2.7470    5.7626    2.3665 H         1 ATP         0.4581
     46 H46        -1.0305    4.1680   -2.1054 H         1 ATP         0.5252
@<TRIPOS>BOND
     1    1    2 2
     2    1    3 1
     3    1    4 1
     4    1    8 1
     5    4   32 1
     6    5    6 2
     7    5    7 1
     8    5    8 1
     9    5   12 1
    10    9   10 2
    11    9   11 1
    12    9   12 1
    13    9   13 1
    14   11   33 1
    15   13   14 1
    16   14   15 1
    17   14   34 1
    18   14   35 1
    19   15   16 1
    20   15   17 1
    21   15   36 1
    22   16   21 1
    23   17   18 1
    24   17   19 1
    25   17   37 1
    26   18   38 1
    27   19   20 1
    28   19   21 1
    29   19   39 1
    30   20   40 1
    31   21   22 1
    32   21   41 1
    33   22   23 ar
    34   22   31 ar
    35   23   24 ar
    36   23   42 1
    37   24   25 ar
    38   24   46 1
    39   25   26 ar
    40   25   31 ar
    41   26   27 2
    42   26   28 ar
    43   27   43 1
    44   28   29 ar
    45   28   45 1
    46   29   30 ar
    47   29   44 1
    48   30   31 ar
@<TRIPOS>SUBSTRUCTURE
     1 ATP         1 GROUP 0 A     ****
@<TRIPOS>MOLECULE
[[[3,4-dihydroxy-5-(6-imino-7,8-dihydro-1~{H}-purin-8-ylium-9-yl)tetrahydrofuran-2-yl]methoxy-hydroxy-phosphoryl]oxy-oxido-phosphoryl] hydrogen phosphate
   46    48     1     0     0
SMALL
USER_CHARGES

@<TRIPOS>ATOM
      1 PG          1.4180    1.1280   -6.4205 P.3       1 ATP         1.5644
      2 O1G         2.2581    1.3499   -5.1826 O.co2     1 ATP        -0.8581
      3 O2G        -0.0001    1.6478   -6.5013 O.co2     1 ATP        -0.8581
      4 O3G         2.2470    1.6781   -7.7152 O.3       1 ATP        -0.7962
      5 PB          0.7855   -1.7301   -5.9806 P.3       1 ATP         1.6830
      6 O1B        -0.6737   -1.4437   -5.7038 O.co2     1 ATP        -0.8633
      7 O2B         1.2126   -3.0065   -6.6706 O.co2     1 ATP        -0.8633
      8 O3B         1.4222   -0.4613   -6.7847 O.3       1 ATP        -0.8097
      9 PA          1.5776   -2.4676   -3.2256 P.3       1 ATP         1.7610
     10 O1A         1.9399   -3.9114   -3.4201 O.2       1 ATP        -0.8554
     11 O2A         0.0775   -2.2267   -2.6692 O.3       1 ATP        -0.8102
     12 O3A         1.6142   -1.5868   -4.5819 O.3       1 ATP        -0.7693
     13 O5'         2.5245   -1.6648   -2.1878 O.3       1 ATP        -0.5757
     14 C5'         2.2816   -0.2918   -1.9206 C.3       1 ATP         0.1911
     15 C4'         2.7248    0.0226   -0.4980 C.3       1 ATP         0.1218
     16 O4'         2.4697    1.4219   -0.2462 O.3       1 ATP        -0.4138
     17 C3'         1.9404   -0.7419    0.5596 C.3       1 ATP         0.1338
     18 O3'         2.7418   -0.8086    1.7389 O.3       1 ATP        -0.5756
     19 C2'         0.7477    0.1630    0.7858 C.3       1 ATP         0.0673
     20 O2'         0.1373   -0.0577    2.0407 O.3       1 ATP        -0.5671
     21 C1'         1.3733    1.5427    0.6747 C.3       1 ATP         0.3795
     22 N9          0.4520    2.5240    0.1767 N.pl3     1 ATP        -0.4175
     23 C8          0.2216    2.8192   -1.0985 C.ar      1 ATP         0.2552
     24 N7         -0.6906    3.7763   -1.2384 N.pl3     1 ATP        -0.4731
     25 C5         -1.0575    4.1037    0.0366 C.ar      1 ATP        -0.1295
     26 C6         -2.0291    5.0943    0.5330 C.ar      1 ATP         0.7196
     27 N6         -2.7093    5.8371   -0.2800 N.2       1 ATP        -0.8094
     28 N1         -2.1051    5.1136    1.9204 N.pl3     1 ATP        -0.8312
     29 C2         -1.3354    4.2774    2.7129 C.ar      1 ATP         0.6744
     30 N3         -0.4707    3.3945    2.2944 N.2       1 ATP        -0.5937
     31 C4         -0.3734    3.3525    0.9220 C.ar      1 ATP         0.2810
     32 HOG3        1.8318    1.6045   -8.6009 H         1 ATP         0.4152
     33 HOA2       -0.1740   -2.6106   -1.8022 H         1 ATP         0.4571
     34 H5'1        2.8432    0.3119   -2.6398 H         1 ATP         0.0465
     35 H5'2        1.2128   -0.0927   -2.0428 H         1 ATP         0.0465
     36 H4'         3.8044   -0.1397   -0.4040 H         1 ATP         0.1379
     37 H3'         1.6764   -1.7639    0.2728 H         1 ATP         0.1317
     38 HO3'        2.2232   -1.2979    2.3953 H         1 ATP         0.4175
     39 H2'        -0.0011    0.0027    0.0003 H         1 ATP         0.0669
     40 HO2'       -0.6141    0.5574    2.1082 H         1 ATP         0.4064
     41 H1'         1.7826    1.9024    1.6451 H         1 ATP         0.1285
     42 H8          0.7125    2.3429   -1.9292 H         1 ATP         0.2954
     43 HN62       -3.3217    6.4517    0.2629 H         1 ATP         0.4226
     44 H2         -1.5188    4.4223    3.7890 H         1 ATP         0.0826
     45 H45        -2.7470    5.7626    2.3665 H         1 ATP         0.4581
     46 H46        -1.0305    4.1680   -2.1054 H         1 ATP         0.5252
@<TRIPOS>BOND
     1    1    2 2
     2    1    3 1
     3    1    4 1
     4    1    8 1
     5    4   32 1
     6    5    6 2
     7    5    7 1
     8    5    8 1
     9    5   12 1
    10    9   10 2
    11    9   11 1
    12    9   12 1
    13    9   13 1
    14   11   33 1
    15   13   14 1
    16   14   15 1
    17   14   34 1
    18   14   35 1
    19   15   16 1
    20   15   17 1
    21   15   36 1
    22   16   21 1
    23   17   18 1
    24   17   19 1
    25   17   37 1
    26   18   38 1
    27   19   20 1
    28   19   21 1
    29   19   39 1
    30   20   40 1
    31   21   22 1
    32   21   41 1
    33   22   23 ar
    34   22   31 ar
    35   23   24 ar
    36   23   42 1
    37   24   25 ar
    38   24   46 1
    39   25   26 ar
    40   25   31 ar
    41   26   27 2
    42   26   28 ar
    43   27   43 1
    44   28   29 ar
    45   28   45 1
    46   29   30 ar
    47   29   44 1
    48   30   31 ar
@<TRIPOS>SUBSTRUCTURE
     1 ATP         1 GROUP 0 A     ****
@<TRIPOS>MOLECULE
[[[3,4-dihydroxy-5-(6-imino-7,8-dihydro-1~{H}-purin-8-ylium-9-yl)tetrahydrofuran-2-yl]methoxy-hydroxy-phosphoryl]oxy-oxido-phosphoryl] hydrogen phosphate
   46    48     1     0     0
SMALL
USER_CHARGES

@<TRIPOS>ATOM
      1 PG          6.8579   -1.1693   -3.6240 P.3       1 ATP         1.5644
      2 O1G         7.4214    0.0951   -4.2334 O.co2     1 ATP        -0.8581
      3 O2G         7.4547   -2.5210   -3.9470 O.co2     1 ATP        -0.8581
      4 O3G         6.8228   -0.9917   -2.0012 O.3       1 ATP        -0.7962
      5 PB          4.4248   -1.3822   -5.2963 P.3       1 ATP         1.6830
      6 O1B         4.6474   -0.1447   -6.1370 O.co2     1 ATP        -0.8633
      7 O2B         4.6851   -2.7629   -5.8564 O.co2     1 ATP        -0.8633
      8 O3B         5.2516   -1.2190   -3.8994 O.3       1 ATP        -0.8097
      9 PA          2.1493   -2.2871   -3.6336 P.3       1 ATP         1.7610
     10 O1A         2.4555   -3.7486   -3.7880 O.2       1 ATP        -0.8554
     11 O2A         0.5901   -1.9079   -3.8415 O.3       1 ATP        -0.8102
     12 O3A         2.9062   -1.3352   -4.7002 O.3       1 ATP        -0.7693
     13 O5'         2.5245   -1.6648   -2.1878 O.3       1 ATP        -0.5757
     14 C5'         2.2816   -0.2918   -1.9206 C.3       1 ATP         0.1911
     15 C4'         2.7248    0.0226   -0.4980 C.3       1 ATP         0.1218
     16 O4'         2.4697    1.4219   -0.2462 O.3       1 ATP        -0.4138
     17 C3'         1.9404   -0.7419    0.5596 C.3       1 ATP         0.1338
     18 O3'         2.7418   -0.8086    1.7389 O.3       1 ATP        -0.5756
     19 C2'         0.7477    0.1630    0.7858 C.3       1 ATP         0.0673
     20 O2'         0.1373   -0.0577    2.0407 O.3       1 ATP        -0.5671
     21 C1'         1.3733    1.5427    0.6747 C.3       1 ATP         0.3795
     22 N9          0.4520    2.5240    0.1767 N.pl3     1 ATP        -0.4175
     23 C8          0.2216    2.8192   -1.0985 C.ar      1 ATP         0.2552
     24 N7         -0.6906    3.7763   -1.2384 N.pl3     1 ATP        -0.4731
     25 C5         -1.0575    4.1037    0.0366 C.ar      1 ATP        -0.1295
     26 C6         -2.0291    5.0943    0.5330 C.ar      1 ATP         0.7196
     27 N6         -2.7093    5.8371   -0.2800 N.2       1 ATP        -0.8094
     28 N1         -2.1051    5.1136    1.9204 N.pl3     1 ATP        -0.8312
     29 C2         -1.3354    4.2774    2.7129 C.ar      1 ATP         0.6744
     30 N3         -0.4707    3.3945    2.2944 N.2       1 ATP        -0.5937
     31 C4         -0.3734    3.3525    0.9220 C.ar      1 ATP         0.2810
     32 HOG3        6.4800   -1.7331   -1.4579 H         1 ATP         0.4152
     33 HOA2       -0.0792   -2.3122   -3.2493 H         1 ATP         0.4571
     34 H5'1        2.8432    0.3119   -2.6398 H         1 ATP         0.0465
     35 H5'2        1.2128   -0.0927   -2.0428 H         1 ATP         0.0465
     36 H4'         3.8044   -0.1397   -0.4040 H         1 ATP         0.1379
     37 H3'         1.6764   -1.7639    0.2728 H         1 ATP         0.1317
     38 HO3'        2.2232   -1.2979    2.3953 H         1 ATP         0.4175
     39 H2'        -0.0011    0.0027    0.0003 H         1 ATP         0.0669
     40 HO2'       -0.6141    0.5574    2.1082 H         1 ATP         0.4064
     41 H1'         1.7826    1.9024    1.6451 H         1 ATP         0.1285
     42 H8          0.7125    2.3429   -1.9292 H         1 ATP         0.2954
     43 HN62       -3.3217    6.4517    0.2629 H         1 ATP         0.4226
     44 H2         -1.5188    4.4223    3.7890 H         1 ATP         0.0826
     45 H45        -2.7470    5.7626    2.3665 H         1 ATP         0.4581
     46 H46        -1.0305    4.1680   -2.1054 H         1 ATP         0.5252
@<TRIPOS>BOND
     1    1    2 2
     2    1    3 1
     3    1    4 1
     4    1    8 1
     5    4   32 1
     6    5    6 2
     7    5    7 1
     8    5    8 1
     9    5   12 1
    10    9   10 2
    11    9   11 1
    12    9   12 1
    13    9   13 1
    14   11   33 1
    15   13   14 1
    16   14   15 1
    17   14   34 1
    18   14   35 1
    19   15   16 1
    20   15   17 1
    21   15   36 1
    22   16   21 1
    23   17   18 1
    24   17   19 1
    25   17   37 1
    26   18   38 1
    27   19   20 1
    28   19   21 1
    29   19   39 1
    30   20   40 1
    31   21   22 1
    32   21   41 1
    33   22   23 ar
    34   22   31 ar
    35   23   24 ar
    36   23   42 1
    37   24   25 ar
    38   24   46 1
    39   25   26 ar
    40   25   31 ar
    41   26   27 2
    42   26   28 ar
    43   27   43 1
    44   28   29 ar
    45   28   45 1
    46   29   30 ar
    47   29   44 1
    48   30   31 ar
@<TRIPOS>SUBSTRUCTURE
     1 ATP         1 GROUP 0 A     ****
@<TRIPOS>MOLECULE
[[[3,4-dihydroxy-5-(6-imino-7,8-dihydro-1~{H}-purin-8-ylium-9-yl)tetrahydrofuran-2-yl]methoxy-hydroxy-phosphoryl]oxy-oxido-phosphoryl] hydrogen phosphate
   46    48     1     0     0
SMALL
USER_CHARGES

@<TRIPOS>ATOM
      1 PG          6.3604   -3.2360   -5.8215 P.3       1 ATP         1.5644
      2 O1G         7.2969   -3.1703   -4.6357 O.co2     1 ATP        -0.8581
      3 O2G         6.7603   -2.6588   -7.1611 O.co2     1 ATP        -0.8581
      4 O3G         5.9085   -4.7898   -6.0398 O.3       1 ATP        -0.7962
      5 PB          4.4941   -1.0941   -4.9899 P.3       1 ATP         1.6830
      6 O1B         5.1690   -0.7320   -3.6856 O.co2     1 ATP        -0.8633
      7 O2B         4.6377   -0.2154   -6.2127 O.co2     1 ATP        -0.8633
      8 O3B         4.9145   -2.6193   -5.3884 O.3       1 ATP        -0.8097
      9 PA          2.1493   -2.2871   -3.6336 P.3       1 ATP         1.7610
     10 O1A         2.4555   -3.7486   -3.7880 O.2       1 ATP        -0.8554
     11 O2A         0.5901   -1.9079   -3.8415 O.3       1 ATP        -0.8102
     12 O3A         2.9062   -1.3352   -4.7002 O.3       1 ATP        -0.7693
     13 O5'         2.5245   -1.6648   -2.1878 O.3       1 ATP        -0.5757
     14 C5'         2.2816   -0.2918   -1.9206 C.3       1 ATP         0.1911
     15 C4'         2.7248    0.0226   -0.4980 C.3       1 ATP         0.1218
     16 O4'         2.4697    1.4219   -0.2462 O.3       1 ATP        -0.4138
     17 C3'         1.9404   -0.7419    0.5596 C.3       1 ATP         0.1338
     18 O3'         2.7418   -0.8086    1.7389 O.3       1 ATP        -0.5756
     19 C2'         0.7477    0.1630    0.7858 C.3       1 ATP         0.0673
     20 O2'         0.1373   -0.0577    2.0407 O.3       1 ATP        -0.5671
     21 C1'         1.3733    1.5427    0.6747 C.3       1 ATP         0.3795
     22 N9          0.4520    2.5240    0.1767 N.pl3     1 ATP        -0.4175
     23 C8          0.2216    2.8192   -1.0985 C.ar      1 ATP         0.2552
     24 N7         -0.6906    3.7763   -1.2384 N.pl3     1 ATP        -0.4731
     25 C5         -1.0575    4.1037    0.0366 C.ar      1 ATP        -0.1295
     26 C6         -2.0291    5.0943    0.5330 C.ar      1 ATP         0.7196
     27 N6         -2.7093    5.8371   -0.2800 N.2       1 ATP        -0.8094
     28 N1         -2.1051    5.1136    1.9204 N.pl3     1 ATP        -0.8312
     29 C2         -1.3354    4.2774    2.7129 C.ar      1 ATP         0.6744
     30 N3         -0.4707    3.3945    2.2944 N.2       1 ATP        -0.5937
     31 C4         -0.3734    3.3525    0.9220 C.ar      1 ATP         0.2810
     32 HOG3        5.2958   -4.9985   -6.7770 H         1 ATP         0.4152
     33 HOA2       -0.0792   -2.3122   -3.2493 H         1 ATP         0.4571
     34 H5'1        2.8432    0.3119   -2.6398 H         1 ATP         0.0465
     35 H5'2        1.2128   -0.0927   -2.0428 H         1 ATP         0.0465
     36 H4'         3.8044   -0.1397   -0.4040 H         1 ATP         0.1379
     37 H3'         1.6764   -1.7639    0.2728 H         1 ATP         0.1317
     38 HO3'        2.2232   -1.2979    2.3953 H         1 ATP         0.4175
     39 H2'        -0.0011    0.0027    0.0003 H         1 ATP         0.0669
     40 HO2'       -0.6141    0.5574    2.1082 H         1 ATP         0.4064
     41 H1'         1.7826    1.9024    1.6451 H         1 ATP         0.1285
     42 H8          0.7125    2.3429   -1.9292 H         1 ATP         0.2954
     43 HN62       -3.3217    6.4517    0.2629 H         1 ATP         0.4226
     44 H2         -1.5188    4.4223    3.7890 H         1 ATP         0.0826
     45 H45        -2.7470    5.7626    2.3665 H         1 ATP         0.4581
     46 H46        -1.0305    4.1680   -2.1054 H         1 ATP         0.5252
@<TRIPOS>BOND
     1    1    2 2
     2    1    3 1
     3    1    4 1
     4    1    8 1
     5    4   32 1
     6    5    6 2
     7    5    7 1
     8    5    8 1
     9    5   12 1
    10    9   10 2
    11    9   11 1
    12    9   12 1
    13    9   13 1
    14   11   33 1
    15   13   14 1
    16   14   15 1
    17   14   34 1
    18   14   35 1
    19   15   16 1
    20   15   17 1
    21   15   36 1
    22   16   21 1
    23   17   18 1
    24   17   19 1
    25   17   37 1
    26   18   38 1
    27   19   20 1
    28   19   21 1
    29   19   39 1
    30   20   40 1
    31   21   22 1
    32   21   41 1
    33   22   23 ar
    34   22   31 ar
    35   23   24 ar
    36   23   42 1
    37   24   25 ar
    38   24   46 1
    39   25   26 ar
    40   25   31 ar
    41   26   27 2
    42   26   28 ar
    43   27   43 1
    44   28   29 ar
    45   28   45 1
    46   29   30 ar
    47   29   44 1
    48   30   31 ar
@<TRIPOS>SUBSTRUCTURE
     1 ATP         1 GROUP 0 A     ****
@<TRIPOS>MOLECULE
[[[3,4-dihydroxy-5-(6-imino-7,8-dihydro-1~{H}-purin-8-ylium-9-yl)tetrahydrofuran-2-yl]methoxy-hydroxy-phosphoryl]oxy-oxido-phosphoryl] hydrogen phosphate
   46    48     1     0     0
SMALL
USER_CHARGES

@<TRIPOS>ATOM
      1 PG          5.4658    0.0957   -6.1799 P.3       1 ATP         1.5644
      2 O1G         6.2810   -0.9001   -6.9745 O.co2     1 ATP        -0.8581
      3 O2G         5.5795    0.1677   -4.6735 O.co2     1 ATP        -0.8581
      4 O3G         5.7284    1.5865   -6.7922 O.3       1 ATP        -0.7962
      5 PB          2.8573   -1.2953   -6.3311 P.3       1 ATP         1.6830
      6 O1B         1.4735   -0.8587   -6.7578 O.co2     1 ATP        -0.8633
      7 O2B         3.4737   -2.5681   -6.8675 O.co2     1 ATP        -0.8633
      8 O3B         3.8948   -0.0624   -6.5867 O.3       1 ATP        -0.8097
      9 PA          2.1493   -2.2871   -3.6336 P.3       1 ATP         1.7610
     10 O1A         2.4555   -3.7486   -3.7880 O.2       1 ATP        -0.8554
     11 O2A         0.5901   -1.9079   -3.8415 O.3       1 ATP        -0.8102
     12 O3A         2.9062   -1.3352   -4.7002 O.3       1 ATP        -0.7693
     13 O5'         2.5245   -1.6648   -2.1878 O.3       1 ATP        -0.5757
     14 C5'         2.2816   -0.2918   -1.9206 C.3       1 ATP         0.1911
     15 C4'         2.7248    0.0226   -0.4980 C.3       1 ATP         0.1218
     16 O4'         2.4697    1.4219   -0.2462 O.3       1 ATP        -0.4138
     17 C3'         1.9404   -0.7419    0.5596 C.3       1 ATP         0.1338
     18 O3'         2.7418   -0.8086    1.7389 O.3       1 ATP        -0.5756
     19 C2'         0.7477    0.1630    0.7858 C.3       1 ATP         0.0673
     20 O2'         0.1373   -0.0577    2.0407 O.3       1 ATP        -0.5671
     21 C1'         1.3733    1.5427    0.6747 C.3       1 ATP         0.3795
     22 N9          0.4520    2.5240    0.1767 N.pl3     1 ATP        -0.4175
     23 C8          0.2216    2.8192   -1.0985 C.ar      1 ATP         0.2552
     24 N7         -0.6906    3.7763   -1.2384 N.pl3     1 ATP        -0.4731
     25 C5         -1.0575    4.1037    0.0366 C.ar      1 ATP        -0.1295
     26 C6         -2.0291    5.0943    0.5330 C.ar      1 ATP         0.7196
     27 N6         -2.7093    5.8371   -0.2800 N.2       1 ATP        -0.8094
     28 N1         -2.1051    5.1136    1.9204 N.pl3     1 ATP        -0.8312
     29 C2         -1.3354    4.2774    2.7129 C.ar      1 ATP         0.6744
     30 N3         -0.4707    3.3945    2.2944 N.2       1 ATP        -0.5937
     31 C4         -0.3734    3.3525    0.9220 C.ar      1 ATP         0.2810
     32 HOG3        5.2665    2.3480   -6.3808 H         1 ATP         0.4152
     33 HOA2       -0.0792   -2.3122   -3.2493 H         1 ATP         0.4571
     34 H5'1        2.8432    0.3119   -2.6398 H         1 ATP         0.0465
     35 H5'2        1.2128   -0.0927   -2.0428 H         1 ATP         0.0465
     36 H4'         3.8044   -0.1397   -0.4040 H         1 ATP         0.1379
     37 H3'         1.6764   -1.7639    0.2728 H         1 ATP         0.1317
     38 HO3'        2.2232   -1.2979    2.3953 H         1 ATP         0.4175
     39 H2'        -0.0011    0.0027    0.0003 H         1 ATP         0.0669
     40 HO2'       -0.6141    0.5574    2.1082 H         1 ATP         0.4064
     41 H1'         1.7826    1.9024    1.6451 H         1 ATP         0.1285
     42 H8          0.7125    2.3429   -1.9292 H         1 ATP         0.2954
     43 HN62       -3.3217    6.4517    0.2629 H         1 ATP         0.4226
     44 H2         -1.5188    4.4223    3.7890 H         1 ATP         0.0826
     45 H45        -2.7470    5.7626    2.3665 H         1 ATP         0.4581
     46 H46        -1.0305    4.1680   -2.1054 H         1 ATP         0.5252
@<TRIPOS>BOND
     1    1    2 2
     2    1    3 1
     3    1    4 1
     4    1    8 1
     5    4   32 1
     6    5    6 2
     7    5    7 1
     8    5    8 1
     9    5   12 1
    10    9   10 2
    11    9   11 1
    12    9   12 1
    13    9   13 1
    14   11   33 1
    15   13   14 1
    16   14   15 1
    17   14   34 1
    18   14   35 1
    19   15   16 1
    20   15   17 1
    21   15   36 1
    22   16   21 1
    23   17   18 1
    24   17   19 1
    25   17   37 1
    26   18   38 1
    27   19   20 1
    28   19   21 1
    29   19   39 1
    30   20   40 1
    31   21   22 1
    32   21   41 1
    33   22   23 ar
    34   22   31 ar
    35   23   24 ar
    36   23   42 1
    37   24   25 ar
    38   24   46 1
    39   25   26 ar
    40   25   31 ar
    41   26   27 2
    42   26   28 ar
    43   27   43 1
    44   28   29 ar
    45   28   45 1
    46   29   30 ar
    47   29   44 1
    48   30   31 ar
@<TRIPOS>SUBSTRUCTURE
     1 ATP         1 GROUP 0 A     ****
@<TRIPOS>MOLECULE
[[[3,4-dihydroxy-5-(6-imino-7,8-dihydro-1~{H}-purin-8-ylium-9-yl)tetrahydrofuran-2-yl]methoxy-hydroxy-phosphoryl]oxy-oxido-phosphoryl] hydrogen phosphate
   46    48     1     0     0
SMALL
USER_CHARGES

@<TRIPOS>ATOM
      1 PG          0.0954   -0.9013   -8.2428 P.3       1 ATP         1.5644
      2 O1G         0.5845   -2.3089   -8.5016 O.co2     1 ATP        -0.8581
      3 O2G         0.3550    0.2074   -9.2382 O.co2     1 ATP        -0.8581
      4 O3G        -1.5071   -0.9576   -7.9347 O.3       1 ATP        -0.7962
      5 PB          0.2626    0.9203   -5.9155 P.3       1 ATP         1.6830
      6 O1B         0.8472    2.1155   -6.6349 O.co2     1 ATP        -0.8633
      7 O2B        -1.1981    0.8828   -5.5247 O.co2     1 ATP        -0.8633
      8 O3B         0.6107   -0.4245   -6.7711 O.3       1 ATP        -0.8097
      9 PA          2.7605    0.3953   -4.4169 P.3       1 ATP         1.7610
     10 O1A         3.6064    1.3021   -5.2629 O.2       1 ATP        -0.8554
     11 O2A         2.9475   -1.1798   -4.7368 O.3       1 ATP        -0.8102
     12 O3A         1.1682    0.6209   -4.5912 O.3       1 ATP        -0.7693
     13 O5'         3.0213    0.5153   -2.8245 O.3       1 ATP        -0.5757
     14 C5'         2.2816   -0.2918   -1.9206 C.3       1 ATP         0.1911
     15 C4'         2.7248    0.0226   -0.4980 C.3       1 ATP         0.1218
     16 O4'         2.4697    1.4219   -0.2462 O.3       1 ATP        -0.4138
     17 C3'         1.9404   -0.7419    0.5596 C.3       1 ATP         0.1338
     18 O3'         2.7418   -0.8086    1.7389 O.3       1 ATP        -0.5756
     19 C2'         0.7477    0.1630    0.7858 C.3       1 ATP         0.0673
     20 O2'         0.1373   -0.0577    2.0407 O.3       1 ATP        -0.5671
     21 C1'         1.3733    1.5427    0.6747 C.3       1 ATP         0.3795
     22 N9          0.4520    2.5240    0.1767 N.pl3     1 ATP        -0.4175
     23 C8          0.2216    2.8192   -1.0985 C.ar      1 ATP         0.2552
     24 N7         -0.6906    3.7763   -1.2384 N.pl3     1 ATP        -0.4731
     25 C5         -1.0575    4.1037    0.0366 C.ar      1 ATP        -0.1295
     26 C6         -2.0291    5.0943    0.5330 C.ar      1 ATP         0.7196
     27 N6         -2.7093    5.8371   -0.2800 N.2       1 ATP        -0.8094
     28 N1         -2.1051    5.1136    1.9204 N.pl3     1 ATP        -0.8312
     29 C2         -1.3354    4.2774    2.7129 C.ar      1 ATP         0.6744
     30 N3         -0.4707    3.3945    2.2944 N.2       1 ATP        -0.5937
     31 C4         -0.3734    3.3525    0.9220 C.ar      1 ATP         0.2810
     32 HOG3       -1.9758   -0.1169   -7.7454 H         1 ATP         0.4152
     33 HOA2        3.8352   -1.5832   -4.6298 H         1 ATP         0.4571
     34 H5'1        1.2163   -0.0770   -2.0471 H         1 ATP         0.0465
     35 H5'2        2.4655   -1.3443   -2.1563 H         1 ATP         0.0465
     36 H4'         3.8044   -0.1397   -0.4040 H         1 ATP         0.1379
     37 H3'         1.6764   -1.7639    0.2728 H         1 ATP         0.1317
     38 HO3'        2.2232   -1.2979    2.3953 H         1 ATP         0.4175
     39 H2'        -0.0011    0.0027    0.0003 H         1 ATP         0.0669
     40 HO2'       -0.6141    0.5574    2.1082 H         1 ATP         0.4064
     41 H1'         1.7826    1.9024    1.6451 H         1 ATP         0.1285
     42 H8          0.7125    2.3429   -1.9292 H         1 ATP         0.2954
     43 HN62       -3.3217    6.4517    0.2629 H         1 ATP         0.4226
     44 H2         -1.5188    4.4223    3.7890 H         1 ATP         0.0826
     45 H45        -2.7470    5.7626    2.3665 H         1 ATP         0.4581
     46 H46        -1.0305    4.1680   -2.1054 H         1 ATP         0.5252
@<TRIPOS>BOND
     1    1    2 2
     2    1    3 1
     3    1    4 1
     4    1    8 1
     5    4   32 1
     6    5    6 2
     7    5    7 1
     8    5    8 1
     9    5   12 1
    10    9   10 2
    11    9   11 1
    12    9   12 1
    13    9   13 1
    14   11   33 1
    15   13   14 1
    16   14   15 1
    17   14   34 1
    18   14   35 1
    19   15   16 1
    20   15   17 1
    21   15   36 1
    22   16   21 1
    23   17   18 1
    24   17   19 1
    25   17   37 1
    26   18   38 1
    27   19   20 1
    28   19   21 1
    29   19   39 1
    30   20   40 1
    31   21   22 1
    32   21   41 1
    33   22   23 ar
    34   22   31 ar
    35   23   24 ar
    36   23   42 1
    37   24   25 ar
    38   24   46 1
    39   25   26 ar
    40   25   31 ar
    41   26   27 2
    42   26   28 ar
    43   27   43 1
    44   28   29 ar
    45   28   45 1
    46   29   30 ar
    47   29   44 1
    48   30   31 ar
@<TRIPOS>SUBSTRUCTURE
     1 ATP         1 GROUP 0 A     ****
@<TRIPOS>MOLECULE
[[[3,4-dihydroxy-5-(6-imino-7,8-dihydro-1~{H}-purin-8-ylium-9-yl)tetrahydrofuran-2-yl]methoxy-hydroxy-phosphoryl]oxy-oxido-phosphoryl] hydrogen phosphate
   46    48     1     0     0
SMALL
USER_CHARGES

@<TRIPOS>ATOM
      1 PG         -0.2955    0.9725   -5.9671 P.3       1 ATP         1.5644
      2 O1G        -1.4180   -0.0184   -6.1814 O.co2     1 ATP        -0.8581
      3 O2G         0.1748    1.8695   -7.0904 O.co2     1 ATP        -0.8581
      4 O3G        -0.6658    1.9047   -4.6787 O.3       1 ATP        -0.7962
      5 PB          1.9581   -0.9465   -6.0003 P.3       1 ATP         1.6830
      6 O1B         1.1489   -2.2061   -6.2158 O.co2     1 ATP        -0.8633
      7 O2B         2.7407   -0.3190   -7.1323 O.co2     1 ATP        -0.8633
      8 O3B         0.9896    0.1886   -5.3405 O.3       1 ATP        -0.8097
      9 PA          3.9521   -0.1769   -3.9527 P.3       1 ATP         1.7610
     10 O1A         4.6810    0.7861   -4.8443 O.2       1 ATP        -0.8554
     11 O2A         4.9166   -1.1746   -3.1207 O.3       1 ATP        -0.8102
     12 O3A         2.9635   -1.1884   -4.7377 O.3       1 ATP        -0.7693
     13 O5'         3.0213    0.5153   -2.8245 O.3       1 ATP        -0.5757
     14 C5'         2.2816   -0.2918   -1.9206 C.3       1 ATP         0.1911
     15 C4'         2.7248    0.0226   -0.4980 C.3       1 ATP         0.1218
     16 O4'         2.4697    1.4219   -0.2462 O.3       1 ATP        -0.4138
     17 C3'         1.9404   -0.7419    0.5596 C.3       1 ATP         0.1338
     18 O3'         2.7418   -0.8086    1.7389 O.3       1 ATP        -0.5756
     19 C2'         0.7477    0.1630    0.7858 C.3       1 ATP         0.0673
     20 O2'         0.1373   -0.0577    2.0407 O.3       1 ATP        -0.5671
     21 C1'         1.3733    1.5427    0.6747 C.3       1 ATP         0.3795
     22 N9          0.4520    2.5240    0.1767 N.pl3     1 ATP        -0.4175
     23 C8          0.2216    2.8192   -1.0985 C.ar      1 ATP         0.2552
     24 N7         -0.6906    3.7763   -1.2384 N.pl3     1 ATP        -0.4731
     25 C5         -1.0575    4.1037    0.0366 C.ar      1 ATP        -0.1295
     26 C6         -2.0291    5.0943    0.5330 C.ar      1 ATP         0.7196
     27 N6         -2.7093    5.8371   -0.2800 N.2       1 ATP        -0.8094
     28 N1         -2.1051    5.1136    1.9204 N.pl3     1 ATP        -0.8312
     29 C2         -1.3354    4.2774    2.7129 C.ar      1 ATP         0.6744
     30 N3         -0.4707    3.3945    2.2944 N.2       1 ATP        -0.5937
     31 C4         -0.3734    3.3525    0.9220 C.ar      1 ATP         0.2810
     32 HOG3       -0.0308    2.6023   -4.4095 H         1 ATP         0.4152
     33 HOA2        5.5732   -0.7917   -2.5006 H         1 ATP         0.4571
     34 H5'1        1.2163   -0.0770   -2.0471 H         1 ATP         0.0465
     35 H5'2        2.4655   -1.3443   -2.1563 H         1 ATP         0.0465
     36 H4'         3.8044   -0.1397   -0.4040 H         1 ATP         0.1379
     37 H3'         1.6764   -1.7639    0.2728 H         1 ATP         0.1317
     38 HO3'        3.5554   -1.2733    1.4914 H         1 ATP         0.4175
     39 H2'        -0.0011    0.0027    0.0003 H         1 ATP         0.0669
     40 HO2'       -0.6141    0.5574    2.1082 H         1 ATP         0.4064
     41 H1'         1.7826    1.9024    1.6451 H         1 ATP         0.1285
     42 H8          0.7125    2.3429   -1.9292 H         1 ATP         0.2954
     43 HN62       -3.3217    6.4517    0.2629 H         1 ATP         0.4226
     44 H2         -1.5188    4.4223    3.7890 H         1 ATP         0.0826
     45 H45        -2.7470    5.7626    2.3665 H         1 ATP         0.4581
     46 H46        -1.0305    4.1680   -2.1054 H         1 ATP         0.5252
@<TRIPOS>BOND
     1    1    2 2
     2    1    3 1
     3    1    4 1
     4    1    8 1
     5    4   32 1
     6    5    6 2
     7    5    7 1
     8    5    8 1
     9    5   12 1
    10    9   10 2
    11    9   11 1
    12    9   12 1
    13    9   13 1
    14   11   33 1
    15   13   14 1
    16   14   15 1
    17   14   34 1
    18   14   35 1
    19   15   16 1
    20   15   17 1
    21   15   36 1
    22   16   21 1
    23   17   18 1
    24   17   19 1
    25   17   37 1
    26   18   38 1
    27   19   20 1
    28   19   21 1
    29   19   39 1
    30   20   40 1
    31   21   22 1
    32   21   41 1
    33   22   23 ar
    34   22   31 ar
    35   23   24 ar
    36   23   42 1
    37   24   25 ar
    38   24   46 1
    39   25   26 ar
    40   25   31 ar
    41   26   27 2
    42   26   28 ar
    43   27   43 1
    44   28   29 ar
    45   28   45 1
    46   29   30 ar
    47   29   44 1
    48   30   31 ar
@<TRIPOS>SUBSTRUCTURE
     1 ATP         1 GROUP 0 A     ****
@<TRIPOS>MOLECULE
[[[3,4-dihydroxy-5-(6-imino-7,8-dihydro-1~{H}-purin-8-ylium-9-yl)tetrahydrofuran-2-yl]methoxy-hydroxy-phosphoryl]oxy-oxido-phosphoryl] hydrogen phosphate
   46    48     1     0     0
SMALL
USER_CHARGES

@<TRIPOS>ATOM
      1 PG          0.6248    3.2851   -7.6586 P.3       1 ATP         1.5644
      2 O1G         0.6387    2.4557   -8.9233 O.co2     1 ATP        -0.8581
      3 O2G         1.4515    4.5467   -7.5470 O.co2     1 ATP        -0.8581
      4 O3G        -0.9250    3.6460   -7.2923 O.3       1 ATP        -0.7962
      5 PB          0.2626    0.9203   -5.9155 P.3       1 ATP         1.6830
      6 O1B        -1.1537    1.2108   -5.4710 O.co2     1 ATP        -0.8633
      7 O2B         0.5521   -0.1415   -6.9531 O.co2     1 ATP        -0.8633
      8 O3B         0.9576    2.3185   -6.3883 O.3       1 ATP        -0.8097
      9 PA          2.7605    0.3953   -4.4169 P.3       1 ATP         1.7610
     10 O1A         3.6064    1.3021   -5.2629 O.2       1 ATP        -0.8554
     11 O2A         2.9475   -1.1798   -4.7368 O.3       1 ATP        -0.8102
     12 O3A         1.1682    0.6209   -4.5912 O.3       1 ATP        -0.7693
     13 O5'         3.0213    0.5153   -2.8245 O.3       1 ATP        -0.5757
     14 C5'         2.2816   -0.2918   -1.9206 C.3       1 ATP         0.1911
     15 C4'         2.7248    0.0226   -0.4980 C.3       1 ATP         0.1218
     16 O4'         2.4697    1.4219   -0.2462 O.3       1 ATP        -0.4138
     17 C3'         1.9404   -0.7419    0.5596 C.3       1 ATP         0.1338
     18 O3'         2.7418   -0.8086    1.7389 O.3       1 ATP        -0.5756
     19 C2'         0.7477    0.1630    0.7858 C.3       1 ATP         0.0673
     20 O2'         0.1373   -0.0577    2.0407 O.3       1 ATP        -0.5671
     21 C1'         1.3733    1.5427    0.6747 C.3       1 ATP         0.3795
     22 N9          0.4520    2.5240    0.1767 N.pl3     1 ATP        -0.4175
     23 C8          0.2216    2.8192   -1.0985 C.ar      1 ATP         0.2552
     24 N7         -0.6906    3.7763   -1.2384 N.pl3     1 ATP        -0.4731
     25 C5         -1.0575    4.1037    0.0366 C.ar      1 ATP        -0.1295
     26 C6         -2.0291    5.0943    0.5330 C.ar      1 ATP         0.7196
     27 N6         -2.7093    5.8371   -0.2800 N.2       1 ATP        -0.8094
     28 N1         -2.1051    5.1136    1.9204 N.pl3     1 ATP        -0.8312
     29 C2         -1.3354    4.2774    2.7129 C.ar      1 ATP         0.6744
     30 N3         -0.4707    3.3945    2.2944 N.2       1 ATP        -0.5937
     31 C4         -0.3734    3.3525    0.9220 C.ar      1 ATP         0.2810
     32 HOG3       -1.1021    4.1843   -6.4915 H         1 ATP         0.4152
     33 HOA2        3.8352   -1.5832   -4.6298 H         1 ATP         0.4571
     34 H5'1        1.2163   -0.0770   -2.0471 H         1 ATP         0.0465
     35 H5'2        2.4655   -1.3443   -2.1563 H         1 ATP         0.0465
     36 H4'         3.8044   -0.1397   -0.4040 H         1 ATP         0.1379
     37 H3'         1.6764   -1.7639    0.2728 H         1 ATP         0.1317
     38 HO3'        2.2232   -1.2979    2.3953 H         1 ATP         0.4175
     39 H2'        -0.0011    0.0027    0.0003 H         1 ATP         0.0669
     40 HO2'       -0.1563   -0.9855    2.0596 H         1 ATP         0.4064
     41 H1'         1.7826    1.9024    1.6451 H         1 ATP         0.1285
     42 H8          0.7125    2.3429   -1.9292 H         1 ATP         0.2954
     43 HN62       -3.3217    6.4517    0.2629 H         1 ATP         0.4226
     44 H2         -1.5188    4.4223    3.7890 H         1 ATP         0.0826
     45 H45        -2.7470    5.7626    2.3665 H         1 ATP         0.4581
     46 H46        -1.0305    4.1680   -2.1054 H         1 ATP         0.5252
@<TRIPOS>BOND
     1    1    2 2
     2    1    3 1
     3    1    4 1
     4    1    8 1
     5    4   32 1
     6    5    6 2
     7    5    7 1
     8    5    8 1
     9    5   12 1
    10    9   10 2
    11    9   11 1
    12    9   12 1
    13    9   13 1
    14   11   33 1
    15   13   14 1
    16   14   15 1
    17   14   34 1
    18   14   35 1
    19   15   16 1
    20   15   17 1
    21   15   36 1
    22   16   21 1
    23   17   18 1
    24   17   19 1
    25   17   37 1
    26   18   38 1
    27   19   20 1
    28   19   21 1
    29   19   39 1
    30   20   40 1
    31   21   22 1
    32   21   41 1
    33   22   23 ar
    34   22   31 ar
    35   23   24 ar
    36   23   42 1
    37   24   25 ar
    38   24   46 1
    39   25   26 ar
    40   25   31 ar
    41   26   27 2
    42   26   28 ar
    43   27   43 1
    44   28   29 ar
    45   28   45 1
    46   29   30 ar
    47   29   44 1
    48   30   31 ar
@<TRIPOS>SUBSTRUCTURE
     1 ATP         1 GROUP 0 A     ****
@<TRIPOS>MOLECULE
[[[3,4-dihydroxy-5-(6-imino-7,8-dihydro-1~{H}-purin-8-ylium-9-yl)tetrahydrofuran-2-yl]methoxy-hydroxy-phosphoryl]oxy-oxido-phosphoryl] hydrogen phosphate
   46    48     1     0     0
SMALL
USER_CHARGES

@<TRIPOS>ATOM
      1 PG          0.7139   -3.5596   -5.0630 P.3       1 ATP         1.5644
      2 O1G         0.3142   -2.5494   -4.0108 O.co2     1 ATP        -0.8581
      3 O2G         1.2662   -4.9123   -4.6722 O.co2     1 ATP        -0.8581
      4 O3G        -0.5507   -3.7866   -6.0707 O.3       1 ATP        -0.7962
      5 PB          3.2596   -2.2994   -5.8960 P.3       1 ATP         1.6830
      6 O1B         4.0942   -3.4078   -5.2938 O.co2     1 ATP        -0.8633
      7 O2B         3.7022   -1.5851   -7.1536 O.co2     1 ATP        -0.8633
      8 O3B         1.7397   -2.8510   -6.1139 O.3       1 ATP        -0.8097
      9 PA          3.9521   -0.1769   -3.9527 P.3       1 ATP         1.7610
     10 O1A         4.6810    0.7861   -4.8443 O.2       1 ATP        -0.8554
     11 O2A         4.9166   -1.1746   -3.1207 O.3       1 ATP        -0.8102
     12 O3A         2.9635   -1.1884   -4.7377 O.3       1 ATP        -0.7693
     13 O5'         3.0213    0.5153   -2.8245 O.3       1 ATP        -0.5757
     14 C5'         2.2816   -0.2918   -1.9206 C.3       1 ATP         0.1911
     15 C4'         2.7248    0.0226   -0.4980 C.3       1 ATP         0.1218
     16 O4'         2.4697    1.4219   -0.2462 O.3       1 ATP        -0.4138
     17 C3'         1.9404   -0.7419    0.5596 C.3       1 ATP         0.1338
     18 O3'         2.7418   -0.8086    1.7389 O.3       1 ATP        -0.5756
     19 C2'         0.7477    0.1630    0.7858 C.3       1 ATP         0.0673
     20 O2'         0.1373   -0.0577    2.0407 O.3       1 ATP        -0.5671
     21 C1'         1.3733    1.5427    0.6747 C.3       1 ATP         0.3795
     22 N9          0.4520    2.5240    0.1767 N.pl3     1 ATP        -0.4175
     23 C8          0.2216    2.8192   -1.0985 C.ar      1 ATP         0.2552
     24 N7         -0.6906    3.7763   -1.2384 N.pl3     1 ATP        -0.4731
     25 C5         -1.0575    4.1037    0.0366 C.ar      1 ATP        -0.1295
     26 C6         -2.0291    5.0943    0.5330 C.ar      1 ATP         0.7196
     27 N6         -2.7093    5.8371   -0.2800 N.2       1 ATP        -0.8094
     28 N1         -2.1051    5.1136    1.9204 N.pl3     1 ATP        -0.8312
     29 C2         -1.3354    4.2774    2.7129 C.ar      1 ATP         0.6744
     30 N3         -0.4707    3.3945    2.2944 N.2       1 ATP        -0.5937
     31 C4         -0.3734    3.3525    0.9220 C.ar      1 ATP         0.2810
     32 HOG3       -0.4479   -4.4191   -6.8135 H         1 ATP         0.4152
     33 HOA2        5.5732   -0.7917   -2.5006 H         1 ATP         0.4571
     34 H5'1        1.2163   -0.0770   -2.0471 H         1 ATP         0.0465
     35 H5'2        2.4655   -1.3443   -2.1563 H         1 ATP         0.0465
     36 H4'         3.8044   -0.1397   -0.4040 H         1 ATP         0.1379
     37 H3'         1.6764   -1.7639    0.2728 H         1 ATP         0.1317
     38 HO3'        2.2232   -1.2979    2.3953 H         1 ATP         0.4175
     39 H2'        -0.0011    0.0027    0.0003 H         1 ATP         0.0669
     40 HO2'       -0.6141    0.5574    2.1082 H         1 ATP         0.4064
     41 H1'         1.7826    1.9024    1.6451 H         1 ATP         0.1285
     42 H8          0.7125    2.3429   -1.9292 H         1 ATP         0.2954
     43 HN62       -3.3217    6.4517    0.2629 H         1 ATP         0.4226
     44 H2         -1.5188    4.4223    3.7890 H         1 ATP         0.0826
     45 H45        -2.7470    5.7626    2.3665 H         1 ATP         0.4581
     46 H46        -1.0305    4.1680   -2.1054 H         1 ATP         0.5252
@<TRIPOS>BOND
     1    1    2 2
     2    1    3 1
     3    1    4 1
     4    1    8 1
     5    4   32 1
     6    5    6 2
     7    5    7 1
     8    5    8 1
     9    5   12 1
    10    9   10 2
    11    9   11 1
    12    9   12 1
    13    9   13 1
    14   11   33 1
    15   13   14 1
    16   14   15 1
    17   14   34 1
    18   14   35 1
    19   15   16 1
    20   15   17 1
    21   15   36 1
    22   16   21 1
    23   17   18 1
    24   17   19 1
    25   17   37 1
    26   18   38 1
    27   19   20 1
    28   19   21 1
    29   19   39 1
    30   20   40 1
    31   21   22 1
    32   21   41 1
    33   22   23 ar
    34   22   31 ar
    35   23   24 ar
    36   23   42 1
    37   24   25 ar
    38   24   46 1
    39   25   26 ar
    40   25   31 ar
    41   26   27 2
    42   26   28 ar
    43   27   43 1
    44   28   29 ar
    45   28   45 1
    46   29   30 ar
    47   29   44 1
    48   30   31 ar
@<TRIPOS>SUBSTRUCTURE
     1 ATP         1 GROUP 0 A     ****
@<TRIPOS>MOLECULE
[[[3,4-dihydroxy-5-(6-imino-7,8-dihydro-1~{H}-purin-8-ylium-9-yl)tetrahydrofuran-2-yl]methoxy-hydroxy-phosphoryl]oxy-oxido-phosphoryl] hydrogen phosphate
   46    48     1     0     0
SMALL
USER_CHARGES

@<TRIPOS>ATOM
      1 PG         -1.5961    0.9749   -4.7149 P.3       1 ATP         1.5644
      2 O1G        -2.7529    1.9422   -4.5987 O.co2     1 ATP        -0.8581
      3 O2G        -0.9846    0.3426   -3.4845 O.co2     1 ATP        -0.8581
      4 O3G        -2.0155   -0.2123   -5.7546 O.3       1 ATP        -0.7962
      5 PB          0.9823    1.0440   -6.1671 P.3       1 ATP         1.6830
      6 O1B         0.6687   -0.2179   -6.9397 O.co2     1 ATP        -0.8633
      7 O2B         1.7943    2.1581   -6.7893 O.co2     1 ATP        -0.8633
      8 O3B        -0.4140    1.6677   -5.5987 O.3       1 ATP        -0.8097
      9 PA          3.0915   -0.0732   -4.4165 P.3       1 ATP         1.7610
     10 O1A         4.2296    0.4201   -5.2621 O.2       1 ATP        -0.8554
     11 O2A         2.7765   -1.6519   -4.5791 O.3       1 ATP        -0.8102
     12 O3A         1.6695    0.6231   -4.7478 O.3       1 ATP        -0.7693
     13 O5'         3.2903    0.1346   -2.8241 O.3       1 ATP        -0.5757
     14 C5'         2.2816   -0.2918   -1.9206 C.3       1 ATP         0.1911
     15 C4'         2.7248    0.0226   -0.4980 C.3       1 ATP         0.1218
     16 O4'         2.4697    1.4219   -0.2462 O.3       1 ATP        -0.4138
     17 C3'         1.9404   -0.7419    0.5596 C.3       1 ATP         0.1338
     18 O3'         2.7418   -0.8086    1.7389 O.3       1 ATP        -0.5756
     19 C2'         0.7477    0.1630    0.7858 C.3       1 ATP         0.0673
     20 O2'         0.1373   -0.0577    2.0407 O.3       1 ATP        -0.5671
     21 C1'         1.3733    1.5427    0.6747 C.3       1 ATP         0.3795
     22 N9          0.4520    2.5240    0.1767 N.pl3     1 ATP        -0.4175
     23 C8          0.2216    2.8192   -1.0985 C.ar      1 ATP         0.2552
     24 N7         -0.6906    3.7763   -1.2384 N.pl3     1 ATP        -0.4731
     25 C5         -1.0575    4.1037    0.0366 C.ar      1 ATP        -0.1295
     26 C6         -2.0291    5.0943    0.5330 C.ar      1 ATP         0.7196
     27 N6         -2.7093    5.8371   -0.2800 N.2       1 ATP        -0.8094
     28 N1         -2.1051    5.1136    1.9204 N.pl3     1 ATP        -0.8312
     29 C2         -1.3354    4.2774    2.7129 C.ar      1 ATP         0.6744
     30 N3         -0.4707    3.3945    2.2944 N.2       1 ATP        -0.5937
     31 C4         -0.3734    3.3525    0.9220 C.ar      1 ATP         0.2810
     32 HOG3       -1.3652   -0.9236   -5.9377 H         1 ATP         0.4152
     33 HOA2        2.5282   -1.9972   -5.4631 H         1 ATP         0.4571
     34 H5'1        1.3514    0.2330   -2.1577 H         1 ATP         0.0465
     35 H5'2        2.1280   -1.3678   -2.0460 H         1 ATP         0.0465
     36 H4'         3.8044   -0.1397   -0.4040 H         1 ATP         0.1379
     37 H3'         1.6764   -1.7639    0.2728 H         1 ATP         0.1317
     38 HO3'        2.2232   -1.2979    2.3953 H         1 ATP         0.4175
     39 H2'        -0.0011    0.0027    0.0003 H         1 ATP         0.0669
     40 HO2'       -0.1563   -0.9855    2.0596 H         1 ATP         0.4064
     41 H1'         1.7826    1.9024    1.6451 H         1 ATP         0.1285
     42 H8          0.7125    2.3429   -1.9292 H         1 ATP         0.2954
     43 HN62       -3.3217    6.4517    0.2629 H         1 ATP         0.4226
     44 H2         -1.5188    4.4223    3.7890 H         1 ATP         0.0826
     45 H45        -2.7470    5.7626    2.3665 H         1 ATP         0.4581
     46 H46        -1.0305    4.1680   -2.1054 H         1 ATP         0.5252
@<TRIPOS>BOND
     1    1    2 2
     2    1    3 1
     3    1    4 1
     4    1    8 1
     5    4   32 1
     6    5    6 2
     7    5    7 1
     8    5    8 1
     9    5   12 1
    10    9   10 2
    11    9   11 1
    12    9   12 1
    13    9   13 1
    14   11   33 1
    15   13   14 1
    16   14   15 1
    17   14   34 1
    18   14   35 1
    19   15   16 1
    20   15   17 1
    21   15   36 1
    22   16   21 1
    23   17   18 1
    24   17   19 1
    25   17   37 1
    26   18   38 1
    27   19   20 1
    28   19   21 1
    29   19   39 1
    30   20   40 1
    31   21   22 1
    32   21   41 1
    33   22   23 ar
    34   22   31 ar
    35   23   24 ar
    36   23   42 1
    37   24   25 ar
    38   24   46 1
    39   25   26 ar
    40   25   31 ar
    41   26   27 2
    42   26   28 ar
    43   27   43 1
    44   28   29 ar
    45   28   45 1
    46   29   30 ar
    47   29   44 1
    48   30   31 ar
@<TRIPOS>SUBSTRUCTURE
     1 ATP         1 GROUP 0 A     ****
@<TRIPOS>MOLECULE
[[[3,4-dihydroxy-5-(6-imino-7,8-dihydro-1~{H}-purin-8-ylium-9-yl)tetrahydrofuran-2-yl]methoxy-hydroxy-phosphoryl]oxy-oxido-phosphoryl] hydrogen phosphate
   46    48     1     0     0
SMALL
USER_CHARGES

@<TRIPOS>ATOM
      1 PG          3.6306   -3.5716   -8.0582 P.3       1 ATP         1.5644
      2 O1G         4.7747   -2.9027   -8.7870 O.co2     1 ATP        -0.8581
      3 O2G         2.2956   -3.7850   -8.7361 O.co2     1 ATP        -0.8581
      4 O3G         4.1533   -5.0056   -7.4779 O.3       1 ATP        -0.7962
      5 PB          2.8573   -1.2953   -6.3311 P.3       1 ATP         1.6830
      6 O1B         3.8966   -0.3097   -6.8170 O.co2     1 ATP        -0.8633
      7 O2B         1.4145   -1.1884   -6.7722 O.co2     1 ATP        -0.8633
      8 O3B         3.3887   -2.8069   -6.6385 O.3       1 ATP        -0.8097
      9 PA          2.1493   -2.2871   -3.6336 P.3       1 ATP         1.7610
     10 O1A         2.4555   -3.7486   -3.7880 O.2       1 ATP        -0.8554
     11 O2A         0.5901   -1.9079   -3.8415 O.3       1 ATP        -0.8102
     12 O3A         2.9062   -1.3352   -4.7002 O.3       1 ATP        -0.7693
     13 O5'         2.5245   -1.6648   -2.1878 O.3       1 ATP        -0.5757
     14 C5'         2.2816   -0.2918   -1.9206 C.3       1 ATP         0.1911
     15 C4'         2.7248    0.0226   -0.4980 C.3       1 ATP         0.1218
     16 O4'         2.4697    1.4219   -0.2462 O.3       1 ATP        -0.4138
     17 C3'         1.9404   -0.7419    0.5596 C.3       1 ATP         0.1338
     18 O3'         2.7418   -0.8086    1.7389 O.3       1 ATP        -0.5756
     19 C2'         0.7477    0.1630    0.7858 C.3       1 ATP         0.0673
     20 O2'         0.1373   -0.0577    2.0407 O.3       1 ATP        -0.5671
     21 C1'         1.3733    1.5427    0.6747 C.3       1 ATP         0.3795
     22 N9          0.4520    2.5240    0.1767 N.pl3     1 ATP        -0.4175
     23 C8          0.2216    2.8192   -1.0985 C.ar      1 ATP         0.2552
     24 N7         -0.6906    3.7763   -1.2384 N.pl3     1 ATP        -0.4731
     25 C5         -1.0575    4.1037    0.0366 C.ar      1 ATP        -0.1295
     26 C6         -2.0291    5.0943    0.5330 C.ar      1 ATP         0.7196
     27 N6         -2.7093    5.8371   -0.2800 N.2       1 ATP        -0.8094
     28 N1         -2.1051    5.1136    1.9204 N.pl3     1 ATP        -0.8312
     29 C2         -1.3354    4.2774    2.7129 C.ar      1 ATP         0.6744
     30 N3         -0.4707    3.3945    2.2944 N.2       1 ATP        -0.5937
     31 C4         -0.3734    3.3525    0.9220 C.ar      1 ATP         0.2810
     32 HOG3        3.5219   -5.5641   -6.9762 H         1 ATP         0.4152
     33 HOA2       -0.0792   -2.3122   -3.2493 H         1 ATP         0.4571
     34 H5'1        2.8432    0.3119   -2.6398 H         1 ATP         0.0465
     35 H5'2        1.2128   -0.0927   -2.0428 H         1 ATP         0.0465
     36 H4'         3.8044   -0.1397   -0.4040 H         1 ATP         0.1379
     37 H3'         1.6764   -1.7639    0.2728 H         1 ATP         0.1317
     38 HO3'        2.2232   -1.2979    2.3953 H         1 ATP         0.4175
     39 H2'        -0.0011    0.0027    0.0003 H         1 ATP         0.0669
     40 HO2'       -0.6141    0.5574    2.1082 H         1 ATP         0.4064
     41 H1'         1.7826    1.9024    1.6451 H         1 ATP         0.1285
     42 H8          0.7125    2.3429   -1.9292 H         1 ATP         0.2954
     43 HN62       -3.3217    6.4517    0.2629 H         1 ATP         0.4226
     44 H2         -1.5188    4.4223    3.7890 H         1 ATP         0.0826
     45 H45        -2.7470    5.7626    2.3665 H         1 ATP         0.4581
     46 H46        -1.0305    4.1680   -2.1054 H         1 ATP         0.5252
@<TRIPOS>BOND
     1    1    2 2
     2    1    3 1
     3    1    4 1
     4    1    8 1
     5    4   32 1
     6    5    6 2
     7    5    7 1
     8    5    8 1
     9    5   12 1
    10    9   10 2
    11    9   11 1
    12    9   12 1
    13    9   13 1
    14   11   33 1
    15   13   14 1
    16   14   15 1
    17   14   34 1
    18   14   35 1
    19   15   16 1
    20   15   17 1
    21   15   36 1
    22   16   21 1
    23   17   18 1
    24   17   19 1
    25   17   37 1
    26   18   38 1
    27   19   20 1
    28   19   21 1
    29   19   39 1
    30   20   40 1
    31   21   22 1
    32   21   41 1
    33   22   23 ar
    34   22   31 ar
    35   23   24 ar
    36   23   42 1
    37   24   25 ar
    38   24   46 1
    39   25   26 ar
    40   25   31 ar
    41   26   27 2
    42   26   28 ar
    43   27   43 1
    44   28   29 ar
    45   28   45 1
    46   29   30 ar
    47   29   44 1
    48   30   31 ar
@<TRIPOS>SUBSTRUCTURE
     1 ATP         1 GROUP 0 A     ****
@<TRIPOS>MOLECULE
[[[3,4-dihydroxy-5-(6-imino-7,8-dihydro-1~{H}-purin-8-ylium-9-yl)tetrahydrofuran-2-yl]methoxy-hydroxy-phosphoryl]oxy-oxido-phosphoryl] hydrogen phosphate
   46    48     1     0     0
SMALL
USER_CHARGES

@<TRIPOS>ATOM
      1 PG          2.1445   -3.6045   -6.8067 P.3       1 ATP         1.5644
      2 O1G         3.3128   -3.9921   -5.9280 O.co2     1 ATP        -0.8581
      3 O2G         2.3563   -3.2018   -8.2491 O.co2     1 ATP        -0.8581
      4 O3G         1.0397   -4.8059   -6.7600 O.3       1 ATP        -0.7962
      5 PB          1.6689   -0.9046   -5.6900 P.3       1 ATP         1.6830
      6 O1B         2.1436   -0.2160   -6.9503 O.co2     1 ATP        -0.8633
      7 O2B         0.5642   -0.3100   -4.8451 O.co2     1 ATP        -0.8633
      8 O3B         1.2780   -2.4462   -6.0541 O.3       1 ATP        -0.8097
      9 PA          3.9521   -0.1769   -3.9527 P.3       1 ATP         1.7610
     10 O1A         4.6810    0.7861   -4.8443 O.2       1 ATP        -0.8554
     11 O2A         4.9166   -1.1746   -3.1207 O.3       1 ATP        -0.8102
     12 O3A         2.9635   -1.1884   -4.7377 O.3       1 ATP        -0.7693
     13 O5'         3.0213    0.5153   -2.8245 O.3       1 ATP        -0.5757
     14 C5'         2.2816   -0.2918   -1.9206 C.3       1 ATP         0.1911
     15 C4'         2.7248    0.0226   -0.4980 C.3       1 ATP         0.1218
     16 O4'         2.4697    1.4219   -0.2462 O.3       1 ATP        -0.4138
     17 C3'         1.9404   -0.7419    0.5596 C.3       1 ATP         0.1338
     18 O3'         2.7418   -0.8086    1.7389 O.3       1 ATP        -0.5756
     19 C2'         0.7477    0.1630    0.7858 C.3       1 ATP         0.0673
     20 O2'         0.1373   -0.0577    2.0407 O.3       1 ATP        -0.5671
     21 C1'         1.3733    1.5427    0.6747 C.3       1 ATP         0.3795
     22 N9          0.4520    2.5240    0.1767 N.pl3     1 ATP        -0.4175
     23 C8          0.2216    2.8192   -1.0985 C.ar      1 ATP         0.2552
     24 N7         -0.6906    3.7763   -1.2384 N.pl3     1 ATP        -0.4731
     25 C5         -1.0575    4.1037    0.0366 C.ar      1 ATP        -0.1295
     26 C6         -2.0291    5.0943    0.5330 C.ar      1 ATP         0.7196
     27 N6         -2.7093    5.8371   -0.2800 N.2       1 ATP        -0.8094
     28 N1         -2.1051    5.1136    1.9204 N.pl3     1 ATP        -0.8312
     29 C2         -1.3354    4.2774    2.7129 C.ar      1 ATP         0.6744
     30 N3         -0.4707    3.3945    2.2944 N.2       1 ATP        -0.5937
     31 C4         -0.3734    3.3525    0.9220 C.ar      1 ATP         0.2810
     32 HOG3        0.2164   -4.7035   -7.2836 H         1 ATP         0.4152
     33 HOA2        5.5732   -0.7917   -2.5006 H         1 ATP         0.4571
     34 H5'1        1.2163   -0.0770   -2.0471 H         1 ATP         0.0465
     35 H5'2        2.4655   -1.3443   -2.1563 H         1 ATP         0.0465
     36 H4'         3.8044   -0.1397   -0.4040 H         1 ATP         0.1379
     37 H3'         1.6764   -1.7639    0.2728 H         1 ATP         0.1317
     38 HO3'        2.2232   -1.2979    2.3953 H         1 ATP         0.4175
     39 H2'        -0.0011    0.0027    0.0003 H         1 ATP         0.0669
     40 HO2'       -0.6141    0.5574    2.1082 H         1 ATP         0.4064
     41 H1'         1.7826    1.9024    1.6451 H         1 ATP         0.1285
     42 H8          0.7125    2.3429   -1.9292 H         1 ATP         0.2954
     43 HN62       -3.3217    6.4517    0.2629 H         1 ATP         0.4226
     44 H2         -1.5188    4.4223    3.7890 H         1 ATP         0.0826
     45 H45        -2.7470    5.7626    2.3665 H         1 ATP         0.4581
     46 H46        -1.0305    4.1680   -2.1054 H         1 ATP         0.5252
@<TRIPOS>BOND
     1    1    2 2
     2    1    3 1
     3    1    4 1
     4    1    8 1
     5    4   32 1
     6    5    6 2
     7    5    7 1
     8    5    8 1
     9    5   12 1
    10    9   10 2
    11    9   11 1
    12    9   12 1
    13    9   13 1
    14   11   33 1
    15   13   14 1
    16   14   15 1
    17   14   34 1
    18   14   35 1
    19   15   16 1
    20   15   17 1
    21   15   36 1
    22   16   21 1
    23   17   18 1
    24   17   19 1
    25   17   37 1
    26   18   38 1
    27   19   20 1
    28   19   21 1
    29   19   39 1
    30   20   40 1
    31   21   22 1
    32   21   41 1
    33   22   23 ar
    34   22   31 ar
    35   23   24 ar
    36   23   42 1
    37   24   25 ar
    38   24   46 1
    39   25   26 ar
    40   25   31 ar
    41   26   27 2
    42   26   28 ar
    43   27   43 1
    44   28   29 ar
    45   28   45 1
    46   29   30 ar
    47   29   44 1
    48   30   31 ar
@<TRIPOS>SUBSTRUCTURE
     1 ATP         1 GROUP 0 A     ****
@<TRIPOS>MOLECULE
[[[3,4-dihydroxy-5-(6-imino-7,8-dihydro-1~{H}-purin-8-ylium-9-yl)tetrahydrofuran-2-yl]methoxy-hydroxy-phosphoryl]oxy-oxido-phosphoryl] hydrogen phosphate
   46    48     1     0     0
SMALL
USER_CHARGES

@<TRIPOS>ATOM
      1 PG          0.3904   -0.8109   -7.8937 P.3       1 ATP         1.5644
      2 O1G         0.3499   -2.1283   -8.6356 O.co2     1 ATP        -0.8581
      3 O2G         0.8269    0.4596   -8.5884 O.co2     1 ATP        -0.8581
      4 O3G        -1.0713   -0.5542   -7.2127 O.3       1 ATP        -0.7962
      5 PB          2.8573   -1.2953   -6.3311 P.3       1 ATP         1.6830
      6 O1B         3.1589   -2.6826   -6.8529 O.co2     1 ATP        -0.8633
      7 O2B         3.6401   -0.0938   -6.8121 O.co2     1 ATP        -0.8633
      8 O3B         1.2656   -0.9981   -6.5308 O.3       1 ATP        -0.8097
      9 PA          2.1493   -2.2871   -3.6336 P.3       1 ATP         1.7610
     10 O1A         2.4555   -3.7486   -3.7880 O.2       1 ATP        -0.8554
     11 O2A         0.5901   -1.9079   -3.8415 O.3       1 ATP        -0.8102
     12 O3A         2.9062   -1.3352   -4.7002 O.3       1 ATP        -0.7693
     13 O5'         2.5245   -1.6648   -2.1878 O.3       1 ATP        -0.5757
     14 C5'         2.2816   -0.2918   -1.9206 C.3       1 ATP         0.1911
     15 C4'         2.7248    0.0226   -0.4980 C.3       1 ATP         0.1218
     16 O4'         2.4697    1.4219   -0.2462 O.3       1 ATP        -0.4138
     17 C3'         1.9404   -0.7419    0.5596 C.3       1 ATP         0.1338
     18 O3'         2.7418   -0.8086    1.7389 O.3       1 ATP        -0.5756
     19 C2'         0.7477    0.1630    0.7858 C.3       1 ATP         0.0673
     20 O2'         0.1373   -0.0577    2.0407 O.3       1 ATP        -0.5671
     21 C1'         1.3733    1.5427    0.6747 C.3       1 ATP         0.3795
     22 N9          0.4520    2.5240    0.1767 N.pl3     1 ATP        -0.4175
     23 C8          0.2216    2.8192   -1.0985 C.ar      1 ATP         0.2552
     24 N7         -0.6906    3.7763   -1.2384 N.pl3     1 ATP        -0.4731
     25 C5         -1.0575    4.1037    0.0366 C.ar      1 ATP        -0.1295
     26 C6         -2.0291    5.0943    0.5330 C.ar      1 ATP         0.7196
     27 N6         -2.7093    5.8371   -0.2800 N.2       1 ATP        -0.8094
     28 N1         -2.1051    5.1136    1.9204 N.pl3     1 ATP        -0.8312
     29 C2         -1.3354    4.2774    2.7129 C.ar      1 ATP         0.6744
     30 N3         -0.4707    3.3945    2.2944 N.2       1 ATP        -0.5937
     31 C4         -0.3734    3.3525    0.9220 C.ar      1 ATP         0.2810
     32 HOG3       -1.2061    0.2663   -6.6922 H         1 ATP         0.4152
     33 HOA2        0.1642   -2.1077   -4.7022 H         1 ATP         0.4571
     34 H5'1        2.8432    0.3119   -2.6398 H         1 ATP         0.0465
     35 H5'2        1.2128   -0.0927   -2.0428 H         1 ATP         0.0465
     36 H4'         3.8044   -0.1397   -0.4040 H         1 ATP         0.1379
     37 H3'         1.6764   -1.7639    0.2728 H         1 ATP         0.1317
     38 HO3'        2.2232   -1.2979    2.3953 H         1 ATP         0.4175
     39 H2'        -0.0011    0.0027    0.0003 H         1 ATP         0.0669
     40 HO2'       -0.6141    0.5574    2.1082 H         1 ATP         0.4064
     41 H1'         1.7826    1.9024    1.6451 H         1 ATP         0.1285
     42 H8          0.7125    2.3429   -1.9292 H         1 ATP         0.2954
     43 HN62       -3.3217    6.4517    0.2629 H         1 ATP         0.4226
     44 H2         -1.5188    4.4223    3.7890 H         1 ATP         0.0826
     45 H45        -2.7470    5.7626    2.3665 H         1 ATP         0.4581
     46 H46        -1.0305    4.1680   -2.1054 H         1 ATP         0.5252
@<TRIPOS>BOND
     1    1    2 2
     2    1    3 1
     3    1    4 1
     4    1    8 1
     5    4   32 1
     6    5    6 2
     7    5    7 1
     8    5    8 1
     9    5   12 1
    10    9   10 2
    11    9   11 1
    12    9   12 1
    13    9   13 1
    14   11   33 1
    15   13   14 1
    16   14   15 1
    17   14   34 1
    18   14   35 1
    19   15   16 1
    20   15   17 1
    21   15   36 1
    22   16   21 1
    23   17   18 1
    24   17   19 1
    25   17   37 1
    26   18   38 1
    27   19   20 1
    28   19   21 1
    29   19   39 1
    30   20   40 1
    31   21   22 1
    32   21   41 1
    33   22   23 ar
    34   22   31 ar
    35   23   24 ar
    36   23   42 1
    37   24   25 ar
    38   24   46 1
    39   25   26 ar
    40   25   31 ar
    41   26   27 2
    42   26   28 ar
    43   27   43 1
    44   28   29 ar
    45   28   45 1
    46   29   30 ar
    47   29   44 1
    48   30   31 ar
@<TRIPOS>SUBSTRUCTURE
     1 ATP         1 GROUP 0 A     ****
@<TRIPOS>MOLECULE
[[[3,4-dihydroxy-5-(6-imino-7,8-dihydro-1~{H}-purin-8-ylium-9-yl)tetrahydrofuran-2-yl]methoxy-hydroxy-phosphoryl]oxy-oxido-phosphoryl] hydrogen phosphate
   46    48     1     0     0
SMALL
USER_CHARGES

@<TRIPOS>ATOM
      1 PG         -1.8446    0.5546   -6.5877 P.3       1 ATP         1.5644
      2 O1G        -1.5035    1.2805   -7.8700 O.co2     1 ATP        -0.8581
      3 O2G        -3.1964    0.7278   -5.9320 O.co2     1 ATP        -0.8581
      4 O3G        -1.5750   -1.0408   -6.8076 O.3       1 ATP        -0.7962
      5 PB         -0.2671    2.2365   -4.7317 P.3       1 ATP         1.6830
      6 O1B         0.2970    3.1954   -5.7564 O.co2     1 ATP        -0.8633
      7 O2B        -1.4010    2.6483   -3.8193 O.co2     1 ATP        -0.8633
      8 O3B        -0.6789    0.8500   -5.4865 O.3       1 ATP        -0.8097
      9 PA          2.3611    0.9709   -4.2298 P.3       1 ATP         1.7610
     10 O1A         3.2462    1.8212   -5.0942 O.2       1 ATP        -0.8554
     11 O2A         1.8893   -0.4146   -4.9195 O.3       1 ATP        -0.8102
     12 O3A         0.9632    1.6736   -3.8189 O.3       1 ATP        -0.7693
     13 O5'         3.0213    0.5153   -2.8245 O.3       1 ATP        -0.5757
     14 C5'         2.2816   -0.2918   -1.9206 C.3       1 ATP         0.1911
     15 C4'         2.7248    0.0226   -0.4980 C.3       1 ATP         0.1218
     16 O4'         2.4697    1.4219   -0.2462 O.3       1 ATP        -0.4138
     17 C3'         1.9404   -0.7419    0.5596 C.3       1 ATP         0.1338
     18 O3'         2.7418   -0.8086    1.7389 O.3       1 ATP        -0.5756
     19 C2'         0.7477    0.1630    0.7858 C.3       1 ATP         0.0673
     20 O2'         0.1373   -0.0577    2.0407 O.3       1 ATP        -0.5671
     21 C1'         1.3733    1.5427    0.6747 C.3       1 ATP         0.3795
     22 N9          0.4520    2.5240    0.1767 N.pl3     1 ATP        -0.4175
     23 C8          0.5691    3.2215   -0.9485 C.ar      1 ATP         0.2552
     24 N7         -0.4499    4.0551   -1.1342 N.pl3     1 ATP        -0.4731
     25 C5         -1.2618    3.8674   -0.0512 C.ar      1 ATP        -0.1295
     26 C6         -2.5420    4.5007    0.3120 C.ar      1 ATP         0.7196
     27 N6         -3.0874    5.3993   -0.4432 N.2       1 ATP        -0.8094
     28 N1         -3.0494    4.0205    1.5133 N.pl3     1 ATP        -0.8312
     29 C2         -2.3933    3.0527    2.2567 C.ar      1 ATP         0.6744
     30 N3         -1.2611    2.4796    1.9536 N.2       1 ATP        -0.5937
     31 C4         -0.7334    2.9358    0.7669 C.ar      1 ATP         0.2810
     32 HOG3       -1.7508   -1.6512   -6.0601 H         1 ATP         0.4152
     33 HOA2        1.3729   -0.3777   -5.7527 H         1 ATP         0.4571
     34 H5'1        1.2163   -0.0770   -2.0471 H         1 ATP         0.0465
     35 H5'2        2.4655   -1.3443   -2.1563 H         1 ATP         0.0465
     36 H4'         3.8044   -0.1397   -0.4040 H         1 ATP         0.1379
     37 H3'         1.6764   -1.7639    0.2728 H         1 ATP         0.1317
     38 HO3'        2.2232   -1.2979    2.3953 H         1 ATP         0.4175
     39 H2'        -0.0011    0.0027    0.0003 H         1 ATP         0.0669
     40 HO2'       -0.1563   -0.9855    2.0596 H         1 ATP         0.4064
     41 H1'         1.7826    1.9024    1.6451 H         1 ATP         0.1285
     42 H8          1.3912    3.1285   -1.6365 H         1 ATP         0.2954
     43 HN62       -3.9637    5.7084   -0.0142 H         1 ATP         0.4226
     44 H2         -2.9317    2.7866    3.1796 H         1 ATP         0.0826
     45 H45        -3.9307    4.3923    1.8559 H         1 ATP         0.4581
     46 H46        -0.5835    4.6857   -1.9122 H         1 ATP         0.5252
@<TRIPOS>BOND
     1    1    2 2
     2    1    3 1
     3    1    4 1
     4    1    8 1
     5    4   32 1
     6    5    6 2
     7    5    7 1
     8    5    8 1
     9    5   12 1
    10    9   10 2
    11    9   11 1
    12    9   12 1
    13    9   13 1
    14   11   33 1
    15   13   14 1
    16   14   15 1
    17   14   34 1
    18   14   35 1
    19   15   16 1
    20   15   17 1
    21   15   36 1
    22   16   21 1
    23   17   18 1
    24   17   19 1
    25   17   37 1
    26   18   38 1
    27   19   20 1
    28   19   21 1
    29   19   39 1
    30   20   40 1
    31   21   22 1
    32   21   41 1
    33   22   23 ar
    34   22   31 ar
    35   23   24 ar
    36   23   42 1
    37   24   25 ar
    38   24   46 1
    39   25   26 ar
    40   25   31 ar
    41   26   27 2
    42   26   28 ar
    43   27   43 1
    44   28   29 ar
    45   28   45 1
    46   29   30 ar
    47   29   44 1
    48   30   31 ar
@<TRIPOS>SUBSTRUCTURE
     1 ATP         1 GROUP 0 A     ****
@<TRIPOS>MOLECULE
[[[3,4-dihydroxy-5-(6-imino-7,8-dihydro-1~{H}-purin-8-ylium-9-yl)tetrahydrofuran-2-yl]methoxy-hydroxy-phosphoryl]oxy-oxido-phosphoryl] hydrogen phosphate
   46    48     1     0     0
SMALL
USER_CHARGES

@<TRIPOS>ATOM
      1 PG          5.5292    0.7555   -7.0562 P.3       1 ATP         1.5644
      2 O1G         4.8812    1.7958   -7.9425 O.co2     1 ATP        -0.8581
      3 O2G         6.4722   -0.2776   -7.6314 O.co2     1 ATP        -0.8581
      4 O3G         6.2840    1.5197   -5.8264 O.3       1 ATP        -0.7962
      5 PB          4.4941   -1.0941   -4.9899 P.3       1 ATP         1.6830
      6 O1B         5.0776   -2.3719   -5.5508 O.co2     1 ATP        -0.8633
      7 O2B         5.1111   -0.4175   -3.7861 O.co2     1 ATP        -0.8633
      8 O3B         4.3698   -0.0040   -6.1974 O.3       1 ATP        -0.8097
      9 PA          2.1493   -2.2871   -3.6336 P.3       1 ATP         1.7610
     10 O1A         2.4555   -3.7486   -3.7880 O.2       1 ATP        -0.8554
     11 O2A         0.5901   -1.9079   -3.8415 O.3       1 ATP        -0.8102
     12 O3A         2.9062   -1.3352   -4.7002 O.3       1 ATP        -0.7693
     13 O5'         2.5245   -1.6648   -2.1878 O.3       1 ATP        -0.5757
     14 C5'         2.2816   -0.2918   -1.9206 C.3       1 ATP         0.1911
     15 C4'         2.7248    0.0226   -0.4980 C.3       1 ATP         0.1218
     16 O4'         2.4697    1.4219   -0.2462 O.3       1 ATP        -0.4138
     17 C3'         1.9404   -0.7419    0.5596 C.3       1 ATP         0.1338
     18 O3'         2.7418   -0.8086    1.7389 O.3       1 ATP        -0.5756
     19 C2'         0.7477    0.1630    0.7858 C.3       1 ATP         0.0673
     20 O2'         0.1373   -0.0577    2.0407 O.3       1 ATP        -0.5671
     21 C1'         1.3733    1.5427    0.6747 C.3       1 ATP         0.3795
     22 N9          0.4520    2.5240    0.1767 N.pl3     1 ATP        -0.4175
     23 C8          0.2216    2.8192   -1.0985 C.ar      1 ATP         0.2552
     24 N7         -0.6906    3.7763   -1.2384 N.pl3     1 ATP        -0.4731
     25 C5         -1.0575    4.1037    0.0366 C.ar      1 ATP        -0.1295
     26 C6         -2.0291    5.0943    0.5330 C.ar      1 ATP         0.7196
     27 N6         -2.7093    5.8371   -0.2800 N.2       1 ATP        -0.8094
     28 N1         -2.1051    5.1136    1.9204 N.pl3     1 ATP        -0.8312
     29 C2         -1.3354    4.2774    2.7129 C.ar      1 ATP         0.6744
     30 N3         -0.4707    3.3945    2.2944 N.2       1 ATP        -0.5937
     31 C4         -0.3734    3.3525    0.9220 C.ar      1 ATP         0.2810
     32 HOG3        6.7561    0.9770   -5.1593 H         1 ATP         0.4152
     33 HOA2       -0.0792   -2.3122   -3.2493 H         1 ATP         0.4571
     34 H5'1        2.8432    0.3119   -2.6398 H         1 ATP         0.0465
     35 H5'2        1.2128   -0.0927   -2.0428 H         1 ATP         0.0465
     36 H4'         3.8044   -0.1397   -0.4040 H         1 ATP         0.1379
     37 H3'         1.6764   -1.7639    0.2728 H         1 ATP         0.1317
     38 HO3'        2.2232   -1.2979    2.3953 H         1 ATP         0.4175
     39 H2'        -0.0011    0.0027    0.0003 H         1 ATP         0.0669
     40 HO2'       -0.6141    0.5574    2.1082 H         1 ATP         0.4064
     41 H1'         1.7826    1.9024    1.6451 H         1 ATP         0.1285
     42 H8          0.7125    2.3429   -1.9292 H         1 ATP         0.2954
     43 HN62       -3.3217    6.4517    0.2629 H         1 ATP         0.4226
     44 H2         -1.5188    4.4223    3.7890 H         1 ATP         0.0826
     45 H45        -2.7470    5.7626    2.3665 H         1 ATP         0.4581
     46 H46        -1.0305    4.1680   -2.1054 H         1 ATP         0.5252
@<TRIPOS>BOND
     1    1    2 2
     2    1    3 1
     3    1    4 1
     4    1    8 1
     5    4   32 1
     6    5    6 2
     7    5    7 1
     8    5    8 1
     9    5   12 1
    10    9   10 2
    11    9   11 1
    12    9   12 1
    13    9   13 1
    14   11   33 1
    15   13   14 1
    16   14   15 1
    17   14   34 1
    18   14   35 1
    19   15   16 1
    20   15   17 1
    21   15   36 1
    22   16   21 1
    23   17   18 1
    24   17   19 1
    25   17   37 1
    26   18   38 1
    27   19   20 1
    28   19   21 1
    29   19   39 1
    30   20   40 1
    31   21   22 1
    32   21   41 1
    33   22   23 ar
    34   22   31 ar
    35   23   24 ar
    36   23   42 1
    37   24   25 ar
    38   24   46 1
    39   25   26 ar
    40   25   31 ar
    41   26   27 2
    42   26   28 ar
    43   27   43 1
    44   28   29 ar
    45   28   45 1
    46   29   30 ar
    47   29   44 1
    48   30   31 ar
@<TRIPOS>SUBSTRUCTURE
     1 ATP         1 GROUP 0 A     ****
@<TRIPOS>MOLECULE
[[[3,4-dihydroxy-5-(6-imino-7,8-dihydro-1~{H}-purin-8-ylium-9-yl)tetrahydrofuran-2-yl]methoxy-hydroxy-phosphoryl]oxy-oxido-phosphoryl] hydrogen phosphate
   46    48     1     0     0
SMALL
USER_CHARGES

@<TRIPOS>ATOM
      1 PG          4.9091    4.5164   -3.0427 P.3       1 ATP         1.5644
      2 O1G         5.2958    3.1009   -2.6764 O.co2     1 ATP        -0.8581
      3 O2G         4.7490    5.5790   -1.9784 O.co2     1 ATP        -0.8581
      4 O3G         5.9555    5.0645   -4.1700 O.3       1 ATP        -0.7962
      5 PB          2.0383    4.0324   -3.5778 P.3       1 ATP         1.6830
      6 O1B         1.6008    4.8084   -2.3554 O.co2     1 ATP        -0.8633
      7 O2B         1.2032    4.0280   -4.8389 O.co2     1 ATP        -0.8633
      8 O3B         3.5612    4.4762   -3.9593 O.3       1 ATP        -0.8097
      9 PA          2.9499    1.2416   -3.9540 P.3       1 ATP         1.7610
     10 O1A         4.1019    1.6058   -4.8451 O.2       1 ATP        -0.8554
     11 O2A         1.6689    0.6367   -4.7357 O.3       1 ATP        -0.8102
     12 O3A         2.3267    2.4887   -3.1336 O.3       1 ATP        -0.7693
     13 O5'         3.2903    0.1346   -2.8241 O.3       1 ATP        -0.5757
     14 C5'         2.2816   -0.2918   -1.9206 C.3       1 ATP         0.1911
     15 C4'         2.7248    0.0226   -0.4980 C.3       1 ATP         0.1218
     16 O4'         2.4697    1.4219   -0.2462 O.3       1 ATP        -0.4138
     17 C3'         1.9404   -0.7419    0.5596 C.3       1 ATP         0.1338
     18 O3'         2.7418   -0.8086    1.7389 O.3       1 ATP        -0.5756
     19 C2'         0.7477    0.1630    0.7858 C.3       1 ATP         0.0673
     20 O2'         0.1373   -0.0577    2.0407 O.3       1 ATP        -0.5671
     21 C1'         1.3733    1.5427    0.6747 C.3       1 ATP         0.3795
     22 N9          0.4520    2.5240    0.1767 N.pl3     1 ATP        -0.4175
     23 C8         -0.2004    2.4829   -0.9804 C.ar      1 ATP         0.2552
     24 N7         -0.9830    3.5431   -1.1568 N.pl3     1 ATP        -0.4731
     25 C5         -0.8095    4.3012   -0.0331 C.ar      1 ATP        -0.1295
     26 C6         -1.4065    5.5904    0.3585 C.ar      1 ATP         0.7196
     27 N6         -2.2501    6.2030   -0.4084 N.2       1 ATP        -0.8094
     28 N1         -0.9585    6.0272    1.5994 N.pl3     1 ATP        -0.8312
     29 C2         -0.0508    5.3009    2.3532 C.ar      1 ATP         0.6744
     30 N3          0.4890    4.1592    2.0257 N.2       1 ATP        -0.5937
     31 C4          0.0637    3.7006    0.7995 C.ar      1 ATP         0.2810
     32 HOG3        5.8368    5.9758   -4.5132 H         1 ATP         0.4152
     33 HOA2        1.7782   -0.1847   -5.2607 H         1 ATP         0.4571
     34 H5'1        1.3514    0.2330   -2.1577 H         1 ATP         0.0465
     35 H5'2        2.1280   -1.3678   -2.0460 H         1 ATP         0.0465
     36 H4'         3.8044   -0.1397   -0.4040 H         1 ATP         0.1379
     37 H3'         1.6764   -1.7639    0.2728 H         1 ATP         0.1317
     38 HO3'        2.2232   -1.2979    2.3953 H         1 ATP         0.4175
     39 H2'        -0.0011    0.0027    0.0003 H         1 ATP         0.0669
     40 HO2'       -0.6141    0.5574    2.1082 H         1 ATP         0.4064
     41 H1'         1.7826    1.9024    1.6451 H         1 ATP         0.1285
     42 H8         -0.1116    1.6863   -1.6984 H         1 ATP         0.2954
     43 HN62       -2.5420    7.0730    0.0447 H         1 ATP         0.4226
     44 H2          0.1969    5.7893    3.3086 H         1 ATP         0.0826
     45 H45        -1.3097    6.9080    1.9642 H         1 ATP         0.4581
     46 H46        -1.5735    3.7351   -1.9538 H         1 ATP         0.5252
@<TRIPOS>BOND
     1    1    2 2
     2    1    3 1
     3    1    4 1
     4    1    8 1
     5    4   32 1
     6    5    6 2
     7    5    7 1
     8    5    8 1
     9    5   12 1
    10    9   10 2
    11    9   11 1
    12    9   12 1
    13    9   13 1
    14   11   33 1
    15   13   14 1
    16   14   15 1
    17   14   34 1
    18   14   35 1
    19   15   16 1
    20   15   17 1
    21   15   36 1
    22   16   21 1
    23   17   18 1
    24   17   19 1
    25   17   37 1
    26   18   38 1
    27   19   20 1
    28   19   21 1
    29   19   39 1
    30   20   40 1
    31   21   22 1
    32   21   41 1
    33   22   23 ar
    34   22   31 ar
    35   23   24 ar
    36   23   42 1
    37   24   25 ar
    38   24   46 1
    39   25   26 ar
    40   25   31 ar
    41   26   27 2
    42   26   28 ar
    43   27   43 1
    44   28   29 ar
    45   28   45 1
    46   29   30 ar
    47   29   44 1
    48   30   31 ar
@<TRIPOS>SUBSTRUCTURE
     1 ATP         1 GROUP 0 A     ****
@<TRIPOS>MOLECULE
[[[3,4-dihydroxy-5-(6-imino-7,8-dihydro-1~{H}-purin-8-ylium-9-yl)tetrahydrofuran-2-yl]methoxy-hydroxy-phosphoryl]oxy-oxido-phosphoryl] hydrogen phosphate
   46    48     1     0     0
SMALL
USER_CHARGES

@<TRIPOS>ATOM
      1 PG         -0.3998    3.0852   -5.4149 P.3       1 ATP         1.5644
      2 O1G        -0.1610    3.6585   -6.7940 O.co2     1 ATP        -0.8581
      3 O2G         0.5188    3.4242   -4.2622 O.co2     1 ATP        -0.8581
      4 O3G        -1.9347    3.4225   -4.9719 O.3       1 ATP        -0.7962
      5 PB          0.5846    0.3423   -5.9343 P.3       1 ATP         1.6830
      6 O1B        -0.0132   -1.0306   -5.7212 O.co2     1 ATP        -0.8633
      7 O2B         1.2031    0.7265   -7.2601 O.co2     1 ATP        -0.8633
      8 O3B        -0.5294    1.4640   -5.5311 O.3       1 ATP        -0.8097
      9 PA          3.0915   -0.0732   -4.4165 P.3       1 ATP         1.7610
     10 O1A         4.2296    0.4201   -5.2621 O.2       1 ATP        -0.8554
     11 O2A         2.7765   -1.6519   -4.5791 O.3       1 ATP        -0.8102
     12 O3A         1.6695    0.6231   -4.7478 O.3       1 ATP        -0.7693
     13 O5'         3.2903    0.1346   -2.8241 O.3       1 ATP        -0.5757
     14 C5'         2.2816   -0.2918   -1.9206 C.3       1 ATP         0.1911
     15 C4'         2.7248    0.0226   -0.4980 C.3       1 ATP         0.1218
     16 O4'         2.4697    1.4219   -0.2462 O.3       1 ATP        -0.4138
     17 C3'         1.9404   -0.7419    0.5596 C.3       1 ATP         0.1338
     18 O3'         2.7418   -0.8086    1.7389 O.3       1 ATP        -0.5756
     19 C2'         0.7477    0.1630    0.7858 C.3       1 ATP         0.0673
     20 O2'         0.1373   -0.0577    2.0407 O.3       1 ATP        -0.5671
     21 C1'         1.3733    1.5427    0.6747 C.3       1 ATP         0.3795
     22 N9          0.4520    2.5240    0.1767 N.pl3     1 ATP        -0.4175
     23 C8          0.2216    2.8192   -1.0985 C.ar      1 ATP         0.2552
     24 N7         -0.6906    3.7763   -1.2384 N.pl3     1 ATP        -0.4731
     25 C5         -1.0575    4.1037    0.0366 C.ar      1 ATP        -0.1295
     26 C6         -2.0291    5.0943    0.5330 C.ar      1 ATP         0.7196
     27 N6         -2.7093    5.8371   -0.2800 N.2       1 ATP        -0.8094
     28 N1         -2.1051    5.1136    1.9204 N.pl3     1 ATP        -0.8312
     29 C2         -1.3354    4.2774    2.7129 C.ar      1 ATP         0.6744
     30 N3         -0.4707    3.3945    2.2944 N.2       1 ATP        -0.5937
     31 C4         -0.3734    3.3525    0.9220 C.ar      1 ATP         0.2810
     32 HOG3       -2.2455    3.1143   -4.0939 H         1 ATP         0.4152
     33 HOA2        3.4791   -2.3005   -4.3603 H         1 ATP         0.4571
     34 H5'1        1.3514    0.2330   -2.1577 H         1 ATP         0.0465
     35 H5'2        2.1280   -1.3678   -2.0460 H         1 ATP         0.0465
     36 H4'         3.8044   -0.1397   -0.4040 H         1 ATP         0.1379
     37 H3'         1.6764   -1.7639    0.2728 H         1 ATP         0.1317
     38 HO3'        3.5554   -1.2733    1.4914 H         1 ATP         0.4175
     39 H2'        -0.0011    0.0027    0.0003 H         1 ATP         0.0669
     40 HO2'       -0.6141    0.5574    2.1082 H         1 ATP         0.4064
     41 H1'         1.7826    1.9024    1.6451 H         1 ATP         0.1285
     42 H8          0.7125    2.3429   -1.9292 H         1 ATP         0.2954
     43 HN62       -3.3217    6.4517    0.2629 H         1 ATP         0.4226
     44 H2         -1.5188    4.4223    3.7890 H         1 ATP         0.0826
     45 H45        -2.7470    5.7626    2.3665 H         1 ATP         0.4581
     46 H46        -1.0305    4.1680   -2.1054 H         1 ATP         0.5252
@<TRIPOS>BOND
     1    1    2 2
     2    1    3 1
     3    1    4 1
     4    1    8 1
     5    4   32 1
     6    5    6 2
     7    5    7 1
     8    5    8 1
     9    5   12 1
    10    9   10 2
    11    9   11 1
    12    9   12 1
    13    9   13 1
    14   11   33 1
    15   13   14 1
    16   14   15 1
    17   14   34 1
    18   14   35 1
    19   15   16 1
    20   15   17 1
    21   15   36 1
    22   16   21 1
    23   17   18 1
    24   17   19 1
    25   17   37 1
    26   18   38 1
    27   19   20 1
    28   19   21 1
    29   19   39 1
    30   20   40 1
    31   21   22 1
    32   21   41 1
    33   22   23 ar
    34   22   31 ar
    35   23   24 ar
    36   23   42 1
    37   24   25 ar
    38   24   46 1
    39   25   26 ar
    40   25   31 ar
    41   26   27 2
    42   26   28 ar
    43   27   43 1
    44   28   29 ar
    45   28   45 1
    46   29   30 ar
    47   29   44 1
    48   30   31 ar
@<TRIPOS>SUBSTRUCTURE
     1 ATP         1 GROUP 0 A     ****
@<TRIPOS>MOLECULE
[[[3,4-dihydroxy-5-(6-imino-7,8-dihydro-1~{H}-purin-8-ylium-9-yl)tetrahydrofuran-2-yl]methoxy-hydroxy-phosphoryl]oxy-oxido-phosphoryl] hydrogen phosphate
   46    48     1     0     0
SMALL
USER_CHARGES

@<TRIPOS>ATOM
      1 PG         -6.7405   -3.2714    0.2995 P.3       1 ATP         1.5644
      2 O1G        -6.2473   -2.7520   -1.0326 O.co2     1 ATP        -0.8581
      3 O2G        -7.5120   -2.3780    1.2450 O.co2     1 ATP        -0.8581
      4 O3G        -7.6135   -4.6260    0.0367 O.3       1 ATP        -0.7962
      5 PB         -4.4251   -5.0846    0.6358 P.3       1 ATP         1.6830
      6 O1B        -5.1659   -6.3928    0.4692 O.co2     1 ATP        -0.8633
      7 O2B        -3.5680   -4.5262   -0.4783 O.co2     1 ATP        -0.8633
      8 O3B        -5.4887   -3.9392    1.1031 O.3       1 ATP        -0.8097
      9 PA         -2.2443   -6.0789    2.3728 P.3       1 ATP         1.7610
     10 O1A        -2.3284   -7.4946    1.8805 O.2       1 ATP        -0.8554
     11 O2A        -2.1507   -5.9380    3.9819 O.3       1 ATP        -0.8102
     12 O3A        -3.5279   -5.1691    1.9965 O.3       1 ATP        -0.7693
     13 O5'        -0.9724   -5.2440    1.8220 O.3       1 ATP        -0.5757
     14 C5'        -0.7840   -3.8935    2.2172 C.3       1 ATP         0.1911
     15 C4'        -0.0724   -3.1466    1.1027 C.3       1 ATP         0.1218
     16 O4'        -0.8674   -3.1929   -0.0945 O.3       1 ATP        -0.4138
     17 C3'         0.1338   -1.6715    1.4027 C.3       1 ATP         0.1338
     18 O3'         1.2893   -1.4445    2.1808 O.3       1 ATP        -0.5756
     19 C2'         0.2158   -1.0724    0.0128 C.3       1 ATP         0.0673
     20 O2'         1.5141   -1.2448   -0.5513 O.3       1 ATP        -0.5671
     21 C1'        -0.7897   -1.9176   -0.7583 C.3       1 ATP         0.3795
     22 N9         -2.1040   -1.3333   -0.7704 N.pl3     1 ATP        -0.4175
     23 C8         -3.0590   -1.5123    0.1363 C.ar      1 ATP         0.2552
     24 N7         -4.1655   -0.8354   -0.1554 N.pl3     1 ATP        -0.4731
     25 C5         -3.8852   -0.1874   -1.3253 C.ar      1 ATP        -0.1295
     26 C6         -4.7113    0.7160   -2.1458 C.ar      1 ATP         0.7196
     27 N6         -5.9213    1.0209   -1.8021 N.2       1 ATP        -0.8094
     28 N1         -4.0411    1.1673   -3.2764 N.pl3     1 ATP        -0.8312
     29 C2         -2.7403    0.7865   -3.5638 C.ar      1 ATP         0.6744
     30 N3         -1.9921   -0.0108   -2.8519 N.2       1 ATP        -0.5937
     31 C4         -2.6302   -0.4747   -1.7239 C.ar      1 ATP         0.2810
     32 HOG3       -8.0053   -5.0860    0.8095 H         1 ATP         0.4152
     33 HOA2       -1.3965   -6.3540    4.4512 H         1 ATP         0.4571
     34 H5'1       -1.7618   -3.4448    2.4164 H         1 ATP         0.0465
     35 H5'2       -0.1874   -3.8744    3.1341 H         1 ATP         0.0465
     36 H4'         0.8874   -3.6466    0.8805 H         1 ATP         0.1379
     37 H3'        -0.7376   -1.2333    1.9867 H         1 ATP         0.1317
     38 HO3'        1.3408   -0.4870    2.3219 H         1 ATP         0.4175
     39 H2'        -0.0384   -0.0310    0.0096 H         1 ATP         0.0669
     40 HO2'        2.1463   -0.7958    0.0370 H         1 ATP         0.4064
     41 H1'        -0.4769   -2.1002   -1.8093 H         1 ATP         0.1285
     42 H8         -2.9569   -2.1323    1.0098 H         1 ATP         0.2954
     43 HN62       -6.3169    1.6552   -2.5012 H         1 ATP         0.4226
     44 H2         -2.3612    1.2343   -4.4957 H         1 ATP         0.0826
     45 H45        -4.5223    1.7976   -3.9117 H         1 ATP         0.4581
     46 H46        -5.0218   -0.8132    0.3804 H         1 ATP         0.5252
@<TRIPOS>BOND
     1    1    2 2
     2    1    3 1
     3    1    4 1
     4    1    8 1
     5    4   32 1
     6    5    6 2
     7    5    7 1
     8    5    8 1
     9    5   12 1
    10    9   10 2
    11    9   11 1
    12    9   12 1
    13    9   13 1
    14   11   33 1
    15   13   14 1
    16   14   15 1
    17   14   34 1
    18   14   35 1
    19   15   16 1
    20   15   17 1
    21   15   36 1
    22   16   21 1
    23   17   18 1
    24   17   19 1
    25   17   37 1
    26   18   38 1
    27   19   20 1
    28   19   21 1
    29   19   39 1
    30   20   40 1
    31   21   22 1
    32   21   41 1
    33   22   23 ar
    34   22   31 ar
    35   23   24 ar
    36   23   42 1
    37   24   25 ar
    38   24   46 1
    39   25   26 ar
    40   25   31 ar
    41   26   27 2
    42   26   28 ar
    43   27   43 1
    44   28   29 ar
    45   28   45 1
    46   29   30 ar
    47   29   44 1
    48   30   31 ar
@<TRIPOS>SUBSTRUCTURE
     1 ATP         1 GROUP 0 A     ****
@<TRIPOS>MOLECULE
[[[3,4-dihydroxy-5-(6-imino-7,8-dihydro-1~{H}-purin-8-ylium-9-yl)tetrahydrofuran-2-yl]methoxy-hydroxy-phosphoryl]oxy-oxido-phosphoryl] hydrogen phosphate
   46    48     1     0     0
SMALL
USER_CHARGES

@<TRIPOS>ATOM
      1 PG         -5.1456   -3.0929    3.9033 P.3       1 ATP         1.5644
      2 O1G        -5.3683   -2.1895    2.7109 O.co2     1 ATP        -0.8581
      3 O2G        -3.8663   -3.0190    4.7067 O.co2     1 ATP        -0.8581
      4 O3G        -6.4095   -2.9259    4.9234 O.3       1 ATP        -0.7962
      5 PB         -4.5602   -5.5890    2.4238 P.3       1 ATP         1.6830
      6 O1B        -5.1236   -6.9909    2.4932 O.co2     1 ATP        -0.8633
      7 O2B        -4.4196   -4.8695    1.1008 O.co2     1 ATP        -0.8633
      8 O3B        -5.3993   -4.6386    3.4506 O.3       1 ATP        -0.8097
      9 PA         -1.7101   -6.2838    2.8184 P.3       1 ATP         1.7610
     10 O1A        -1.8467   -7.6794    2.2823 O.2       1 ATP        -0.8554
     11 O2A        -0.8728   -6.1797    4.1989 O.3       1 ATP        -0.8102
     12 O3A        -3.1168   -5.5743    3.1854 O.3       1 ATP        -0.7693
     13 O5'        -0.9724   -5.2440    1.8220 O.3       1 ATP        -0.5757
     14 C5'        -0.7840   -3.8935    2.2172 C.3       1 ATP         0.1911
     15 C4'        -0.0724   -3.1466    1.1027 C.3       1 ATP         0.1218
     16 O4'        -0.8674   -3.1929   -0.0945 O.3       1 ATP        -0.4138
     17 C3'         0.1338   -1.6715    1.4027 C.3       1 ATP         0.1338
     18 O3'         1.2893   -1.4445    2.1808 O.3       1 ATP        -0.5756
     19 C2'         0.2158   -1.0724    0.0128 C.3       1 ATP         0.0673
     20 O2'         1.5141   -1.2448   -0.5513 O.3       1 ATP        -0.5671
     21 C1'        -0.7897   -1.9176   -0.7583 C.3       1 ATP         0.3795
     22 N9         -2.1040   -1.3333   -0.7704 N.pl3     1 ATP        -0.4175
     23 C8         -3.0590   -1.5123    0.1363 C.ar      1 ATP         0.2552
     24 N7         -4.1655   -0.8354   -0.1554 N.pl3     1 ATP        -0.4731
     25 C5         -3.8852   -0.1874   -1.3253 C.ar      1 ATP        -0.1295
     26 C6         -4.7113    0.7160   -2.1458 C.ar      1 ATP         0.7196
     27 N6         -5.9213    1.0209   -1.8021 N.2       1 ATP        -0.8094
     28 N1         -4.0411    1.1673   -3.2764 N.pl3     1 ATP        -0.8312
     29 C2         -2.7403    0.7865   -3.5638 C.ar      1 ATP         0.6744
     30 N3         -1.9921   -0.0108   -2.8519 N.2       1 ATP        -0.5937
     31 C4         -2.6302   -0.4747   -1.7239 C.ar      1 ATP         0.2810
     32 HOG3       -6.4132   -3.4512    5.7519 H         1 ATP         0.4152
     33 HOA2        0.0586   -6.4873    4.2129 H         1 ATP         0.4571
     34 H5'1       -1.7618   -3.4448    2.4164 H         1 ATP         0.0465
     35 H5'2       -0.1874   -3.8744    3.1341 H         1 ATP         0.0465
     36 H4'         0.8874   -3.6466    0.8805 H         1 ATP         0.1379
     37 H3'        -0.7376   -1.2333    1.9867 H         1 ATP         0.1317
     38 HO3'        1.3408   -0.4870    2.3219 H         1 ATP         0.4175
     39 H2'        -0.0384   -0.0310    0.0096 H         1 ATP         0.0669
     40 HO2'        2.1463   -0.7958    0.0370 H         1 ATP         0.4064
     41 H1'        -0.4769   -2.1002   -1.8093 H         1 ATP         0.1285
     42 H8         -2.9569   -2.1323    1.0098 H         1 ATP         0.2954
     43 HN62       -6.3169    1.6552   -2.5012 H         1 ATP         0.4226
     44 H2         -2.3612    1.2343   -4.4957 H         1 ATP         0.0826
     45 H45        -4.5223    1.7976   -3.9117 H         1 ATP         0.4581
     46 H46        -5.0218   -0.8132    0.3804 H         1 ATP         0.5252
@<TRIPOS>BOND
     1    1    2 2
     2    1    3 1
     3    1    4 1
     4    1    8 1
     5    4   32 1
     6    5    6 2
     7    5    7 1
     8    5    8 1
     9    5   12 1
    10    9   10 2
    11    9   11 1
    12    9   12 1
    13    9   13 1
    14   11   33 1
    15   13   14 1
    16   14   15 1
    17   14   34 1
    18   14   35 1
    19   15   16 1
    20   15   17 1
    21   15   36 1
    22   16   21 1
    23   17   18 1
    24   17   19 1
    25   17   37 1
    26   18   38 1
    27   19   20 1
    28   19   21 1
    29   19   39 1
    30   20   40 1
    31   21   22 1
    32   21   41 1
    33   22   23 ar
    34   22   31 ar
    35   23   24 ar
    36   23   42 1
    37   24   25 ar
    38   24   46 1
    39   25   26 ar
    40   25   31 ar
    41   26   27 2
    42   26   28 ar
    43   27   43 1
    44   28   29 ar
    45   28   45 1
    46   29   30 ar
    47   29   44 1
    48   30   31 ar
@<TRIPOS>SUBSTRUCTURE
     1 ATP         1 GROUP 0 A     ****
@<TRIPOS>MOLECULE
[[[3,4-dihydroxy-5-(6-imino-7,8-dihydro-1~{H}-purin-8-ylium-9-yl)tetrahydrofuran-2-yl]methoxy-hydroxy-phosphoryl]oxy-oxido-phosphoryl] hydrogen phosphate
   46    48     1     0     0
SMALL
USER_CHARGES

@<TRIPOS>ATOM
      1 PG          1.7612    1.8192   -8.6673 P.3       1 ATP         1.5644
      2 O1G         3.1099    2.3161   -9.1381 O.co2     1 ATP        -0.8581
      3 O2G         0.5130    2.6493   -8.8690 O.co2     1 ATP        -0.8581
      4 O3G         1.5057    0.3356   -9.2996 O.3       1 ATP        -0.7962
      5 PB          0.7873    0.6679   -6.1202 P.3       1 ATP         1.6830
      6 O1B        -0.3810    1.6047   -5.9076 O.co2     1 ATP        -0.8633
      7 O2B         0.5732   -0.7479   -6.6075 O.co2     1 ATP        -0.8633
      8 O3B         1.8712    1.3996   -7.0956 O.3       1 ATP        -0.8097
      9 PA          3.0915   -0.0732   -4.4165 P.3       1 ATP         1.7610
     10 O1A         4.2296    0.4201   -5.2621 O.2       1 ATP        -0.8554
     11 O2A         2.7765   -1.6519   -4.5791 O.3       1 ATP        -0.8102
     12 O3A         1.6695    0.6231   -4.7478 O.3       1 ATP        -0.7693
     13 O5'         3.2903    0.1346   -2.8241 O.3       1 ATP        -0.5757
     14 C5'         2.2816   -0.2918   -1.9206 C.3       1 ATP         0.1911
     15 C4'         2.7248    0.0226   -0.4980 C.3       1 ATP         0.1218
     16 O4'         2.4697    1.4219   -0.2462 O.3       1 ATP        -0.4138
     17 C3'         1.9404   -0.7419    0.5596 C.3       1 ATP         0.1338
     18 O3'         2.7418   -0.8086    1.7389 O.3       1 ATP        -0.5756
     19 C2'         0.7477    0.1630    0.7858 C.3       1 ATP         0.0673
     20 O2'         0.1373   -0.0577    2.0407 O.3       1 ATP        -0.5671
     21 C1'         1.3733    1.5427    0.6747 C.3       1 ATP         0.3795
     22 N9          0.4520    2.5240    0.1767 N.pl3     1 ATP        -0.4175
     23 C8          0.2216    2.8192   -1.0985 C.ar      1 ATP         0.2552
     24 N7         -0.6906    3.7763   -1.2384 N.pl3     1 ATP        -0.4731
     25 C5         -1.0575    4.1037    0.0366 C.ar      1 ATP        -0.1295
     26 C6         -2.0291    5.0943    0.5330 C.ar      1 ATP         0.7196
     27 N6         -2.7093    5.8371   -0.2800 N.2       1 ATP        -0.8094
     28 N1         -2.1051    5.1136    1.9204 N.pl3     1 ATP        -0.8312
     29 C2         -1.3354    4.2774    2.7129 C.ar      1 ATP         0.6744
     30 N3         -0.4707    3.3945    2.2944 N.2       1 ATP        -0.5937
     31 C4         -0.3734    3.3525    0.9220 C.ar      1 ATP         0.2810
     32 HOG3        0.6664   -0.1249   -9.0852 H         1 ATP         0.4152
     33 HOA2        2.5282   -1.9972   -5.4631 H         1 ATP         0.4571
     34 H5'1        1.3514    0.2330   -2.1577 H         1 ATP         0.0465
     35 H5'2        2.1280   -1.3678   -2.0460 H         1 ATP         0.0465
     36 H4'         3.8044   -0.1397   -0.4040 H         1 ATP         0.1379
     37 H3'         1.6764   -1.7639    0.2728 H         1 ATP         0.1317
     38 HO3'        2.2232   -1.2979    2.3953 H         1 ATP         0.4175
     39 H2'        -0.0011    0.0027    0.0003 H         1 ATP         0.0669
     40 HO2'       -0.1563   -0.9855    2.0596 H         1 ATP         0.4064
     41 H1'         1.7826    1.9024    1.6451 H         1 ATP         0.1285
     42 H8          0.7125    2.3429   -1.9292 H         1 ATP         0.2954
     43 HN62       -3.3217    6.4517    0.2629 H         1 ATP         0.4226
     44 H2         -1.5188    4.4223    3.7890 H         1 ATP         0.0826
     45 H45        -2.7470    5.7626    2.3665 H         1 ATP         0.4581
     46 H46        -1.0305    4.1680   -2.1054 H         1 ATP         0.5252
@<TRIPOS>BOND
     1    1    2 2
     2    1    3 1
     3    1    4 1
     4    1    8 1
     5    4   32 1
     6    5    6 2
     7    5    7 1
     8    5    8 1
     9    5   12 1
    10    9   10 2
    11    9   11 1
    12    9   12 1
    13    9   13 1
    14   11   33 1
    15   13   14 1
    16   14   15 1
    17   14   34 1
    18   14   35 1
    19   15   16 1
    20   15   17 1
    21   15   36 1
    22   16   21 1
    23   17   18 1
    24   17   19 1
    25   17   37 1
    26   18   38 1
    27   19   20 1
    28   19   21 1
    29   19   39 1
    30   20   40 1
    31   21   22 1
    32   21   41 1
    33   22   23 ar
    34   22   31 ar
    35   23   24 ar
    36   23   42 1
    37   24   25 ar
    38   24   46 1
    39   25   26 ar
    40   25   31 ar
    41   26   27 2
    42   26   28 ar
    43   27   43 1
    44   28   29 ar
    45   28   45 1
    46   29   30 ar
    47   29   44 1
    48   30   31 ar
@<TRIPOS>SUBSTRUCTURE
     1 ATP         1 GROUP 0 A     ****
@<TRIPOS>MOLECULE
[[[3,4-dihydroxy-5-(6-imino-7,8-dihydro-1~{H}-purin-8-ylium-9-yl)tetrahydrofuran-2-yl]methoxy-hydroxy-phosphoryl]oxy-oxido-phosphoryl] hydrogen phosphate
   46    48     1     0     0
SMALL
USER_CHARGES

@<TRIPOS>ATOM
      1 PG         -1.7893   -0.6265   -6.7018 P.3       1 ATP         1.5644
      2 O1G        -2.4993   -1.9497   -6.5210 O.co2     1 ATP        -0.8581
      3 O2G        -1.6137   -0.0197   -8.0759 O.co2     1 ATP        -0.8581
      4 O3G        -2.4995    0.4794   -5.7328 O.3       1 ATP        -0.7962
      5 PB          0.7769    0.4636   -5.7077 P.3       1 ATP         1.6830
      6 O1B         1.3466    0.8903   -7.0423 O.co2     1 ATP        -0.8633
      7 O2B         0.2048    1.4788   -4.7434 O.co2     1 ATP        -0.8633
      8 O3B        -0.3368   -0.7006   -5.9647 O.3       1 ATP        -0.8097
      9 PA          3.3429   -0.0249   -4.3155 P.3       1 ATP         1.7610
     10 O1A         4.1316    0.9232   -5.1715 O.2       1 ATP        -0.8554
     11 O2A         4.0556   -1.4579   -4.0783 O.3       1 ATP        -0.8102
     12 O3A         1.9004   -0.4266   -4.9275 O.3       1 ATP        -0.7693
     13 O5'         3.0213    0.5153   -2.8245 O.3       1 ATP        -0.5757
     14 C5'         2.2816   -0.2918   -1.9206 C.3       1 ATP         0.1911
     15 C4'         2.7248    0.0226   -0.4980 C.3       1 ATP         0.1218
     16 O4'         2.4697    1.4219   -0.2462 O.3       1 ATP        -0.4138
     17 C3'         1.9404   -0.7419    0.5596 C.3       1 ATP         0.1338
     18 O3'         2.7418   -0.8086    1.7389 O.3       1 ATP        -0.5756
     19 C2'         0.7477    0.1630    0.7858 C.3       1 ATP         0.0673
     20 O2'         0.1373   -0.0577    2.0407 O.3       1 ATP        -0.5671
     21 C1'         1.3733    1.5427    0.6747 C.3       1 ATP         0.3795
     22 N9          0.4520    2.5240    0.1767 N.pl3     1 ATP        -0.4175
     23 C8          0.2216    2.8192   -1.0985 C.ar      1 ATP         0.2552
     24 N7         -0.6906    3.7763   -1.2384 N.pl3     1 ATP        -0.4731
     25 C5         -1.0575    4.1037    0.0366 C.ar      1 ATP        -0.1295
     26 C6         -2.0291    5.0943    0.5330 C.ar      1 ATP         0.7196
     27 N6         -2.7093    5.8371   -0.2800 N.2       1 ATP        -0.8094
     28 N1         -2.1051    5.1136    1.9204 N.pl3     1 ATP        -0.8312
     29 C2         -1.3354    4.2774    2.7129 C.ar      1 ATP         0.6744
     30 N3         -0.4707    3.3945    2.2944 N.2       1 ATP        -0.5937
     31 C4         -0.3734    3.3525    0.9220 C.ar      1 ATP         0.2810
     32 HOG3       -2.1496    1.3960   -5.7361 H         1 ATP         0.4152
     33 HOA2        4.9339   -1.4843   -3.6423 H         1 ATP         0.4571
     34 H5'1        1.2163   -0.0770   -2.0471 H         1 ATP         0.0465
     35 H5'2        2.4655   -1.3443   -2.1563 H         1 ATP         0.0465
     36 H4'         3.8044   -0.1397   -0.4040 H         1 ATP         0.1379
     37 H3'         1.6764   -1.7639    0.2728 H         1 ATP         0.1317
     38 HO3'        2.2232   -1.2979    2.3953 H         1 ATP         0.4175
     39 H2'        -0.0011    0.0027    0.0003 H         1 ATP         0.0669
     40 HO2'       -0.6141    0.5574    2.1082 H         1 ATP         0.4064
     41 H1'         1.7826    1.9024    1.6451 H         1 ATP         0.1285
     42 H8          0.7125    2.3429   -1.9292 H         1 ATP         0.2954
     43 HN62       -3.3217    6.4517    0.2629 H         1 ATP         0.4226
     44 H2         -1.5188    4.4223    3.7890 H         1 ATP         0.0826
     45 H45        -2.7470    5.7626    2.3665 H         1 ATP         0.4581
     46 H46        -1.0305    4.1680   -2.1054 H         1 ATP         0.5252
@<TRIPOS>BOND
     1    1    2 2
     2    1    3 1
     3    1    4 1
     4    1    8 1
     5    4   32 1
     6    5    6 2
     7    5    7 1
     8    5    8 1
     9    5   12 1
    10    9   10 2
    11    9   11 1
    12    9   12 1
    13    9   13 1
    14   11   33 1
    15   13   14 1
    16   14   15 1
    17   14   34 1
    18   14   35 1
    19   15   16 1
    20   15   17 1
    21   15   36 1
    22   16   21 1
    23   17   18 1
    24   17   19 1
    25   17   37 1
    26   18   38 1
    27   19   20 1
    28   19   21 1
    29   19   39 1
    30   20   40 1
    31   21   22 1
    32   21   41 1
    33   22   23 ar
    34   22   31 ar
    35   23   24 ar
    36   23   42 1
    37   24   25 ar
    38   24   46 1
    39   25   26 ar
    40   25   31 ar
    41   26   27 2
    42   26   28 ar
    43   27   43 1
    44   28   29 ar
    45   28   45 1
    46   29   30 ar
    47   29   44 1
    48   30   31 ar
@<TRIPOS>SUBSTRUCTURE
     1 ATP         1 GROUP 0 A     ****
@<TRIPOS>MOLECULE
[[[3,4-dihydroxy-5-(6-imino-7,8-dihydro-1~{H}-purin-8-ylium-9-yl)tetrahydrofuran-2-yl]methoxy-hydroxy-phosphoryl]oxy-oxido-phosphoryl] hydrogen phosphate
   46    48     1     0     0
SMALL
USER_CHARGES

@<TRIPOS>ATOM
      1 PG          0.7105   -0.6596   -7.6006 P.3       1 ATP         1.5644
      2 O1G        -0.4849   -0.8698   -6.6983 O.co2     1 ATP        -0.8581
      3 O2G         1.0911   -1.6904   -8.6399 O.co2     1 ATP        -0.8581
      4 O3G         0.5548    0.7886   -8.3386 O.3       1 ATP        -0.7962
      5 PB          2.8287   -1.2654   -5.6236 P.3       1 ATP         1.6830
      6 O1B         3.2161   -2.5518   -6.3185 O.co2     1 ATP        -0.8633
      7 O2B         3.8637   -0.4179   -4.9178 O.co2     1 ATP        -0.8633
      8 O3B         2.0152   -0.3265   -6.6811 O.3       1 ATP        -0.8097
      9 PA          1.5776   -2.4676   -3.2256 P.3       1 ATP         1.7610
     10 O1A         1.9399   -3.9114   -3.4201 O.2       1 ATP        -0.8554
     11 O2A         0.0775   -2.2267   -2.6692 O.3       1 ATP        -0.8102
     12 O3A         1.6142   -1.5868   -4.5819 O.3       1 ATP        -0.7693
     13 O5'         2.5245   -1.6648   -2.1878 O.3       1 ATP        -0.5757
     14 C5'         2.2816   -0.2918   -1.9206 C.3       1 ATP         0.1911
     15 C4'         2.7248    0.0226   -0.4980 C.3       1 ATP         0.1218
     16 O4'         2.4697    1.4219   -0.2462 O.3       1 ATP        -0.4138
     17 C3'         1.9404   -0.7419    0.5596 C.3       1 ATP         0.1338
     18 O3'         2.7418   -0.8086    1.7389 O.3       1 ATP        -0.5756
     19 C2'         0.7477    0.1630    0.7858 C.3       1 ATP         0.0673
     20 O2'         0.1373   -0.0577    2.0407 O.3       1 ATP        -0.5671
     21 C1'         1.3733    1.5427    0.6747 C.3       1 ATP         0.3795
     22 N9          0.4520    2.5240    0.1767 N.pl3     1 ATP        -0.4175
     23 C8          0.2216    2.8192   -1.0985 C.ar      1 ATP         0.2552
     24 N7         -0.6906    3.7763   -1.2384 N.pl3     1 ATP        -0.4731
     25 C5         -1.0575    4.1037    0.0366 C.ar      1 ATP        -0.1295
     26 C6         -2.0291    5.0943    0.5330 C.ar      1 ATP         0.7196
     27 N6         -2.7093    5.8371   -0.2800 N.2       1 ATP        -0.8094
     28 N1         -2.1051    5.1136    1.9204 N.pl3     1 ATP        -0.8312
     29 C2         -1.3354    4.2774    2.7129 C.ar      1 ATP         0.6744
     30 N3         -0.4707    3.3945    2.2944 N.2       1 ATP        -0.5937
     31 C4         -0.3734    3.3525    0.9220 C.ar      1 ATP         0.2810
     32 HOG3        1.2571    1.0728   -8.9618 H         1 ATP         0.4152
     33 HOA2       -0.1740   -2.6106   -1.8022 H         1 ATP         0.4571
     34 H5'1        2.8432    0.3119   -2.6398 H         1 ATP         0.0465
     35 H5'2        1.2128   -0.0927   -2.0428 H         1 ATP         0.0465
     36 H4'         3.8044   -0.1397   -0.4040 H         1 ATP         0.1379
     37 H3'         1.6764   -1.7639    0.2728 H         1 ATP         0.1317
     38 HO3'        2.2232   -1.2979    2.3953 H         1 ATP         0.4175
     39 H2'        -0.0011    0.0027    0.0003 H         1 ATP         0.0669
     40 HO2'       -0.1563   -0.9855    2.0596 H         1 ATP         0.4064
     41 H1'         1.7826    1.9024    1.6451 H         1 ATP         0.1285
     42 H8          0.7125    2.3429   -1.9292 H         1 ATP         0.2954
     43 HN62       -3.3217    6.4517    0.2629 H         1 ATP         0.4226
     44 H2         -1.5188    4.4223    3.7890 H         1 ATP         0.0826
     45 H45        -2.7470    5.7626    2.3665 H         1 ATP         0.4581
     46 H46        -1.0305    4.1680   -2.1054 H         1 ATP         0.5252
@<TRIPOS>BOND
     1    1    2 2
     2    1    3 1
     3    1    4 1
     4    1    8 1
     5    4   32 1
     6    5    6 2
     7    5    7 1
     8    5    8 1
     9    5   12 1
    10    9   10 2
    11    9   11 1
    12    9   12 1
    13    9   13 1
    14   11   33 1
    15   13   14 1
    16   14   15 1
    17   14   34 1
    18   14   35 1
    19   15   16 1
    20   15   17 1
    21   15   36 1
    22   16   21 1
    23   17   18 1
    24   17   19 1
    25   17   37 1
    26   18   38 1
    27   19   20 1
    28   19   21 1
    29   19   39 1
    30   20   40 1
    31   21   22 1
    32   21   41 1
    33   22   23 ar
    34   22   31 ar
    35   23   24 ar
    36   23   42 1
    37   24   25 ar
    38   24   46 1
    39   25   26 ar
    40   25   31 ar
    41   26   27 2
    42   26   28 ar
    43   27   43 1
    44   28   29 ar
    45   28   45 1
    46   29   30 ar
    47   29   44 1
    48   30   31 ar
@<TRIPOS>SUBSTRUCTURE
     1 ATP         1 GROUP 0 A     ****
@<TRIPOS>MOLECULE
[[[3,4-dihydroxy-5-(6-imino-7,8-dihydro-1~{H}-purin-8-ylium-9-yl)tetrahydrofuran-2-yl]methoxy-hydroxy-phosphoryl]oxy-oxido-phosphoryl] hydrogen phosphate
   46    48     1     0     0
SMALL
USER_CHARGES

@<TRIPOS>ATOM
      1 PG          4.4030    0.6171   -7.9790 P.3       1 ATP         1.5644
      2 O1G         5.4964    1.6146   -7.6676 O.co2     1 ATP        -0.8581
      3 O2G         3.1976    1.0158   -8.8008 O.co2     1 ATP        -0.8581
      4 O3G         5.0831   -0.7015   -8.6610 O.3       1 ATP        -0.7962
      5 PB          2.8573   -1.2953   -6.3311 P.3       1 ATP         1.6830
      6 O1B         1.4735   -0.8587   -6.7578 O.co2     1 ATP        -0.8633
      7 O2B         3.4737   -2.5681   -6.8675 O.co2     1 ATP        -0.8633
      8 O3B         3.8948   -0.0624   -6.5867 O.3       1 ATP        -0.8097
      9 PA          2.1493   -2.2871   -3.6336 P.3       1 ATP         1.7610
     10 O1A         2.4555   -3.7486   -3.7880 O.2       1 ATP        -0.8554
     11 O2A         0.5901   -1.9079   -3.8415 O.3       1 ATP        -0.8102
     12 O3A         2.9062   -1.3352   -4.7002 O.3       1 ATP        -0.7693
     13 O5'         2.5245   -1.6648   -2.1878 O.3       1 ATP        -0.5757
     14 C5'         2.2816   -0.2918   -1.9206 C.3       1 ATP         0.1911
     15 C4'         2.7248    0.0226   -0.4980 C.3       1 ATP         0.1218
     16 O4'         2.4697    1.4219   -0.2462 O.3       1 ATP        -0.4138
     17 C3'         1.9404   -0.7419    0.5596 C.3       1 ATP         0.1338
     18 O3'         2.7418   -0.8086    1.7389 O.3       1 ATP        -0.5756
     19 C2'         0.7477    0.1630    0.7858 C.3       1 ATP         0.0673
     20 O2'         0.1373   -0.0577    2.0407 O.3       1 ATP        -0.5671
     21 C1'         1.3733    1.5427    0.6747 C.3       1 ATP         0.3795
     22 N9          0.4520    2.5240    0.1767 N.pl3     1 ATP        -0.4175
     23 C8          0.2216    2.8192   -1.0985 C.ar      1 ATP         0.2552
     24 N7         -0.6906    3.7763   -1.2384 N.pl3     1 ATP        -0.4731
     25 C5         -1.0575    4.1037    0.0366 C.ar      1 ATP        -0.1295
     26 C6         -2.0291    5.0943    0.5330 C.ar      1 ATP         0.7196
     27 N6         -2.7093    5.8371   -0.2800 N.2       1 ATP        -0.8094
     28 N1         -2.1051    5.1136    1.9204 N.pl3     1 ATP        -0.8312
     29 C2         -1.3354    4.2774    2.7129 C.ar      1 ATP         0.6744
     30 N3         -0.4707    3.3945    2.2944 N.2       1 ATP        -0.5937
     31 C4         -0.3734    3.3525    0.9220 C.ar      1 ATP         0.2810
     32 HOG3        4.4993   -1.4453   -8.9226 H         1 ATP         0.4152
     33 HOA2       -0.0792   -2.3122   -3.2493 H         1 ATP         0.4571
     34 H5'1        2.8432    0.3119   -2.6398 H         1 ATP         0.0465
     35 H5'2        1.2128   -0.0927   -2.0428 H         1 ATP         0.0465
     36 H4'         3.8044   -0.1397   -0.4040 H         1 ATP         0.1379
     37 H3'         1.6764   -1.7639    0.2728 H         1 ATP         0.1317
     38 HO3'        2.2232   -1.2979    2.3953 H         1 ATP         0.4175
     39 H2'        -0.0011    0.0027    0.0003 H         1 ATP         0.0669
     40 HO2'       -0.6141    0.5574    2.1082 H         1 ATP         0.4064
     41 H1'         1.7826    1.9024    1.6451 H         1 ATP         0.1285
     42 H8          0.7125    2.3429   -1.9292 H         1 ATP         0.2954
     43 HN62       -3.3217    6.4517    0.2629 H         1 ATP         0.4226
     44 H2         -1.5188    4.4223    3.7890 H         1 ATP         0.0826
     45 H45        -2.7470    5.7626    2.3665 H         1 ATP         0.4581
     46 H46        -1.0305    4.1680   -2.1054 H         1 ATP         0.5252
@<TRIPOS>BOND
     1    1    2 2
     2    1    3 1
     3    1    4 1
     4    1    8 1
     5    4   32 1
     6    5    6 2
     7    5    7 1
     8    5    8 1
     9    5   12 1
    10    9   10 2
    11    9   11 1
    12    9   12 1
    13    9   13 1
    14   11   33 1
    15   13   14 1
    16   14   15 1
    17   14   34 1
    18   14   35 1
    19   15   16 1
    20   15   17 1
    21   15   36 1
    22   16   21 1
    23   17   18 1
    24   17   19 1
    25   17   37 1
    26   18   38 1
    27   19   20 1
    28   19   21 1
    29   19   39 1
    30   20   40 1
    31   21   22 1
    32   21   41 1
    33   22   23 ar
    34   22   31 ar
    35   23   24 ar
    36   23   42 1
    37   24   25 ar
    38   24   46 1
    39   25   26 ar
    40   25   31 ar
    41   26   27 2
    42   26   28 ar
    43   27   43 1
    44   28   29 ar
    45   28   45 1
    46   29   30 ar
    47   29   44 1
    48   30   31 ar
@<TRIPOS>SUBSTRUCTURE
     1 ATP         1 GROUP 0 A     ****
@<TRIPOS>MOLECULE
[[[3,4-dihydroxy-5-(6-imino-7,8-dihydro-1~{H}-purin-8-ylium-9-yl)tetrahydrofuran-2-yl]methoxy-hydroxy-phosphoryl]oxy-oxido-phosphoryl] hydrogen phosphate
   46    48     1     0     0
SMALL
USER_CHARGES

@<TRIPOS>ATOM
      1 PG          1.9233    4.2821   -7.3240 P.3       1 ATP         1.5644
      2 O1G         1.3246    5.5976   -6.8782 O.co2     1 ATP        -0.8581
      3 O2G         1.3439    3.5215   -8.4957 O.co2     1 ATP        -0.8581
      4 O3G         3.5200    4.5016   -7.5859 O.3       1 ATP        -0.7962
      5 PB          0.8430    2.5831   -5.1541 P.3       1 ATP         1.6830
      6 O1B         0.0961    3.6631   -4.4035 O.co2     1 ATP        -0.8633
      7 O2B         0.1085    1.5875   -6.0241 O.co2     1 ATP        -0.8633
      8 O3B         2.0213    3.2832   -6.0390 O.3       1 ATP        -0.8097
      9 PA          2.8900    0.6162   -4.3161 P.3       1 ATP         1.7610
     10 O1A         4.0478    1.0418   -5.1716 O.2       1 ATP        -0.8554
     11 O2A         2.0339   -0.6169   -4.9198 O.3       1 ATP        -0.8102
     12 O3A         1.7740    1.7656   -4.0918 O.3       1 ATP        -0.7693
     13 O5'         3.2903    0.1346   -2.8241 O.3       1 ATP        -0.5757
     14 C5'         2.2816   -0.2918   -1.9206 C.3       1 ATP         0.1911
     15 C4'         2.7248    0.0226   -0.4980 C.3       1 ATP         0.1218
     16 O4'         2.4697    1.4219   -0.2462 O.3       1 ATP        -0.4138
     17 C3'         1.9404   -0.7419    0.5596 C.3       1 ATP         0.1338
     18 O3'         2.7418   -0.8086    1.7389 O.3       1 ATP        -0.5756
     19 C2'         0.7477    0.1630    0.7858 C.3       1 ATP         0.0673
     20 O2'         0.1373   -0.0577    2.0407 O.3       1 ATP        -0.5671
     21 C1'         1.3733    1.5427    0.6747 C.3       1 ATP         0.3795
     22 N9          0.4520    2.5240    0.1767 N.pl3     1 ATP        -0.4175
     23 C8         -0.2004    2.4829   -0.9804 C.ar      1 ATP         0.2552
     24 N7         -0.9830    3.5431   -1.1568 N.pl3     1 ATP        -0.4731
     25 C5         -0.8095    4.3012   -0.0331 C.ar      1 ATP        -0.1295
     26 C6         -1.4065    5.5904    0.3585 C.ar      1 ATP         0.7196
     27 N6         -2.2501    6.2030   -0.4084 N.2       1 ATP        -0.8094
     28 N1         -0.9585    6.0272    1.5994 N.pl3     1 ATP        -0.8312
     29 C2         -0.0508    5.3009    2.3532 C.ar      1 ATP         0.6744
     30 N3          0.4890    4.1592    2.0257 N.2       1 ATP        -0.5937
     31 C4          0.0637    3.7006    0.7995 C.ar      1 ATP         0.2810
     32 HOG3        4.0541    3.7340   -7.8826 H         1 ATP         0.4152
     33 HOA2        1.6031   -0.5116   -5.7948 H         1 ATP         0.4571
     34 H5'1        1.3514    0.2330   -2.1577 H         1 ATP         0.0465
     35 H5'2        2.1280   -1.3678   -2.0460 H         1 ATP         0.0465
     36 H4'         3.8044   -0.1397   -0.4040 H         1 ATP         0.1379
     37 H3'         1.6764   -1.7639    0.2728 H         1 ATP         0.1317
     38 HO3'        2.2232   -1.2979    2.3953 H         1 ATP         0.4175
     39 H2'        -0.0011    0.0027    0.0003 H         1 ATP         0.0669
     40 HO2'       -0.1563   -0.9855    2.0596 H         1 ATP         0.4064
     41 H1'         1.7826    1.9024    1.6451 H         1 ATP         0.1285
     42 H8         -0.1116    1.6863   -1.6984 H         1 ATP         0.2954
     43 HN62       -2.5420    7.0730    0.0447 H         1 ATP         0.4226
     44 H2          0.1969    5.7893    3.3086 H         1 ATP         0.0826
     45 H45        -1.3097    6.9080    1.9642 H         1 ATP         0.4581
     46 H46        -1.5735    3.7351   -1.9538 H         1 ATP         0.5252
@<TRIPOS>BOND
     1    1    2 2
     2    1    3 1
     3    1    4 1
     4    1    8 1
     5    4   32 1
     6    5    6 2
     7    5    7 1
     8    5    8 1
     9    5   12 1
    10    9   10 2
    11    9   11 1
    12    9   12 1
    13    9   13 1
    14   11   33 1
    15   13   14 1
    16   14   15 1
    17   14   34 1
    18   14   35 1
    19   15   16 1
    20   15   17 1
    21   15   36 1
    22   16   21 1
    23   17   18 1
    24   17   19 1
    25   17   37 1
    26   18   38 1
    27   19   20 1
    28   19   21 1
    29   19   39 1
    30   20   40 1
    31   21   22 1
    32   21   41 1
    33   22   23 ar
    34   22   31 ar
    35   23   24 ar
    36   23   42 1
    37   24   25 ar
    38   24   46 1
    39   25   26 ar
    40   25   31 ar
    41   26   27 2
    42   26   28 ar
    43   27   43 1
    44   28   29 ar
    45   28   45 1
    46   29   30 ar
    47   29   44 1
    48   30   31 ar
@<TRIPOS>SUBSTRUCTURE
     1 ATP         1 GROUP 0 A     ****
@<TRIPOS>MOLECULE
[[[3,4-dihydroxy-5-(6-imino-7,8-dihydro-1~{H}-purin-8-ylium-9-yl)tetrahydrofuran-2-yl]methoxy-hydroxy-phosphoryl]oxy-oxido-phosphoryl] hydrogen phosphate
   46    48     1     0     0
SMALL
USER_CHARGES

@<TRIPOS>ATOM
      1 PG          2.2591    3.6215   -6.7581 P.3       1 ATP         1.5644
      2 O1G         1.8702    2.1820   -7.0115 O.co2     1 ATP        -0.8581
      3 O2G         3.2761    4.3181   -7.6345 O.co2     1 ATP        -0.8581
      4 O3G         0.9005    4.5265   -6.7195 O.3       1 ATP        -0.7962
      5 PB          1.9196    3.3696   -3.8284 P.3       1 ATP         1.6830
      6 O1B         2.8514    3.5794   -2.6555 O.co2     1 ATP        -0.8633
      7 O2B         0.5419    3.9934   -3.8512 O.co2     1 ATP        -0.8633
      8 O3B         2.7044    3.7822   -5.1978 O.3       1 ATP        -0.8097
      9 PA          2.8900    0.6162   -4.3161 P.3       1 ATP         1.7610
     10 O1A         4.0478    1.0418   -5.1716 O.2       1 ATP        -0.8554
     11 O2A         2.0339   -0.6169   -4.9198 O.3       1 ATP        -0.8102
     12 O3A         1.7740    1.7656   -4.0918 O.3       1 ATP        -0.7693
     13 O5'         3.2903    0.1346   -2.8241 O.3       1 ATP        -0.5757
     14 C5'         2.2816   -0.2918   -1.9206 C.3       1 ATP         0.1911
     15 C4'         2.7248    0.0226   -0.4980 C.3       1 ATP         0.1218
     16 O4'         2.4697    1.4219   -0.2462 O.3       1 ATP        -0.4138
     17 C3'         1.9404   -0.7419    0.5596 C.3       1 ATP         0.1338
     18 O3'         2.7418   -0.8086    1.7389 O.3       1 ATP        -0.5756
     19 C2'         0.7477    0.1630    0.7858 C.3       1 ATP         0.0673
     20 O2'         0.1373   -0.0577    2.0407 O.3       1 ATP        -0.5671
     21 C1'         1.3733    1.5427    0.6747 C.3       1 ATP         0.3795
     22 N9          0.4520    2.5240    0.1767 N.pl3     1 ATP        -0.4175
     23 C8         -0.2004    2.4829   -0.9804 C.ar      1 ATP         0.2552
     24 N7         -0.9830    3.5431   -1.1568 N.pl3     1 ATP        -0.4731
     25 C5         -0.8095    4.3012   -0.0331 C.ar      1 ATP        -0.1295
     26 C6         -1.4065    5.5904    0.3585 C.ar      1 ATP         0.7196
     27 N6         -2.2501    6.2030   -0.4084 N.2       1 ATP        -0.8094
     28 N1         -0.9585    6.0272    1.5994 N.pl3     1 ATP        -0.8312
     29 C2         -0.0508    5.3009    2.3532 C.ar      1 ATP         0.6744
     30 N3          0.4890    4.1592    2.0257 N.2       1 ATP        -0.5937
     31 C4          0.0637    3.7006    0.7995 C.ar      1 ATP         0.2810
     32 HOG3        0.9866    5.4911   -6.5628 H         1 ATP         0.4152
     33 HOA2        2.4845   -1.4733   -5.0803 H         1 ATP         0.4571
     34 H5'1        1.3514    0.2330   -2.1577 H         1 ATP         0.0465
     35 H5'2        2.1280   -1.3678   -2.0460 H         1 ATP         0.0465
     36 H4'         3.8044   -0.1397   -0.4040 H         1 ATP         0.1379
     37 H3'         1.6764   -1.7639    0.2728 H         1 ATP         0.1317
     38 HO3'        2.2232   -1.2979    2.3953 H         1 ATP         0.4175
     39 H2'        -0.0011    0.0027    0.0003 H         1 ATP         0.0669
     40 HO2'       -0.6141    0.5574    2.1082 H         1 ATP         0.4064
     41 H1'         1.7826    1.9024    1.6451 H         1 ATP         0.1285
     42 H8         -0.1116    1.6863   -1.6984 H         1 ATP         0.2954
     43 HN62       -2.5420    7.0730    0.0447 H         1 ATP         0.4226
     44 H2          0.1969    5.7893    3.3086 H         1 ATP         0.0826
     45 H45        -1.3097    6.9080    1.9642 H         1 ATP         0.4581
     46 H46        -1.5735    3.7351   -1.9538 H         1 ATP         0.5252
@<TRIPOS>BOND
     1    1    2 2
     2    1    3 1
     3    1    4 1
     4    1    8 1
     5    4   32 1
     6    5    6 2
     7    5    7 1
     8    5    8 1
     9    5   12 1
    10    9   10 2
    11    9   11 1
    12    9   12 1
    13    9   13 1
    14   11   33 1
    15   13   14 1
    16   14   15 1
    17   14   34 1
    18   14   35 1
    19   15   16 1
    20   15   17 1
    21   15   36 1
    22   16   21 1
    23   17   18 1
    24   17   19 1
    25   17   37 1
    26   18   38 1
    27   19   20 1
    28   19   21 1
    29   19   39 1
    30   20   40 1
    31   21   22 1
    32   21   41 1
    33   22   23 ar
    34   22   31 ar
    35   23   24 ar
    36   23   42 1
    37   24   25 ar
    38   24   46 1
    39   25   26 ar
    40   25   31 ar
    41   26   27 2
    42   26   28 ar
    43   27   43 1
    44   28   29 ar
    45   28   45 1
    46   29   30 ar
    47   29   44 1
    48   30   31 ar
@<TRIPOS>SUBSTRUCTURE
     1 ATP         1 GROUP 0 A     ****
@<TRIPOS>MOLECULE
[[[3,4-dihydroxy-5-(6-imino-7,8-dihydro-1~{H}-purin-8-ylium-9-yl)tetrahydrofuran-2-yl]methoxy-hydroxy-phosphoryl]oxy-oxido-phosphoryl] hydrogen phosphate
   46    48     1     0     0
SMALL
USER_CHARGES

@<TRIPOS>ATOM
      1 PG          0.8577   -3.6857   -5.0817 P.3       1 ATP         1.5644
      2 O1G         1.9126   -3.8481   -4.0100 O.co2     1 ATP        -0.8581
      3 O2G         0.4300   -4.8583   -5.9358 O.co2     1 ATP        -0.8581
      4 O3G        -0.4726   -3.0247   -4.4036 O.3       1 ATP        -0.7962
      5 PB          1.6689   -0.9046   -5.6900 P.3       1 ATP         1.6830
      6 O1B         2.1436   -0.2160   -6.9503 O.co2     1 ATP        -0.8633
      7 O2B         0.5642   -0.3100   -4.8451 O.co2     1 ATP        -0.8633
      8 O3B         1.2780   -2.4462   -6.0541 O.3       1 ATP        -0.8097
      9 PA          3.9521   -0.1769   -3.9527 P.3       1 ATP         1.7610
     10 O1A         4.6810    0.7861   -4.8443 O.2       1 ATP        -0.8554
     11 O2A         4.9166   -1.1746   -3.1207 O.3       1 ATP        -0.8102
     12 O3A         2.9635   -1.1884   -4.7377 O.3       1 ATP        -0.7693
     13 O5'         3.0213    0.5153   -2.8245 O.3       1 ATP        -0.5757
     14 C5'         2.2816   -0.2918   -1.9206 C.3       1 ATP         0.1911
     15 C4'         2.7248    0.0226   -0.4980 C.3       1 ATP         0.1218
     16 O4'         2.4697    1.4219   -0.2462 O.3       1 ATP        -0.4138
     17 C3'         1.9404   -0.7419    0.5596 C.3       1 ATP         0.1338
     18 O3'         2.7418   -0.8086    1.7389 O.3       1 ATP        -0.5756
     19 C2'         0.7477    0.1630    0.7858 C.3       1 ATP         0.0673
     20 O2'         0.1373   -0.0577    2.0407 O.3       1 ATP        -0.5671
     21 C1'         1.3733    1.5427    0.6747 C.3       1 ATP         0.3795
     22 N9          0.4520    2.5240    0.1767 N.pl3     1 ATP        -0.4175
     23 C8          0.2216    2.8192   -1.0985 C.ar      1 ATP         0.2552
     24 N7         -0.6906    3.7763   -1.2384 N.pl3     1 ATP        -0.4731
     25 C5         -1.0575    4.1037    0.0366 C.ar      1 ATP        -0.1295
     26 C6         -2.0291    5.0943    0.5330 C.ar      1 ATP         0.7196
     27 N6         -2.7093    5.8371   -0.2800 N.2       1 ATP        -0.8094
     28 N1         -2.1051    5.1136    1.9204 N.pl3     1 ATP        -0.8312
     29 C2         -1.3354    4.2774    2.7129 C.ar      1 ATP         0.6744
     30 N3         -0.4707    3.3945    2.2944 N.2       1 ATP        -0.5937
     31 C4         -0.3734    3.3525    0.9220 C.ar      1 ATP         0.2810
     32 HOG3       -1.2521   -2.8551   -4.9745 H         1 ATP         0.4152
     33 HOA2        5.5732   -0.7917   -2.5006 H         1 ATP         0.4571
     34 H5'1        1.2163   -0.0770   -2.0471 H         1 ATP         0.0465
     35 H5'2        2.4655   -1.3443   -2.1563 H         1 ATP         0.0465
     36 H4'         3.8044   -0.1397   -0.4040 H         1 ATP         0.1379
     37 H3'         1.6764   -1.7639    0.2728 H         1 ATP         0.1317
     38 HO3'        2.2232   -1.2979    2.3953 H         1 ATP         0.4175
     39 H2'        -0.0011    0.0027    0.0003 H         1 ATP         0.0669
     40 HO2'       -0.1563   -0.9855    2.0596 H         1 ATP         0.4064
     41 H1'         1.7826    1.9024    1.6451 H         1 ATP         0.1285
     42 H8          0.7125    2.3429   -1.9292 H         1 ATP         0.2954
     43 HN62       -3.3217    6.4517    0.2629 H         1 ATP         0.4226
     44 H2         -1.5188    4.4223    3.7890 H         1 ATP         0.0826
     45 H45        -2.7470    5.7626    2.3665 H         1 ATP         0.4581
     46 H46        -1.0305    4.1680   -2.1054 H         1 ATP         0.5252
@<TRIPOS>BOND
     1    1    2 2
     2    1    3 1
     3    1    4 1
     4    1    8 1
     5    4   32 1
     6    5    6 2
     7    5    7 1
     8    5    8 1
     9    5   12 1
    10    9   10 2
    11    9   11 1
    12    9   12 1
    13    9   13 1
    14   11   33 1
    15   13   14 1
    16   14   15 1
    17   14   34 1
    18   14   35 1
    19   15   16 1
    20   15   17 1
    21   15   36 1
    22   16   21 1
    23   17   18 1
    24   17   19 1
    25   17   37 1
    26   18   38 1
    27   19   20 1
    28   19   21 1
    29   19   39 1
    30   20   40 1
    31   21   22 1
    32   21   41 1
    33   22   23 ar
    34   22   31 ar
    35   23   24 ar
    36   23   42 1
    37   24   25 ar
    38   24   46 1
    39   25   26 ar
    40   25   31 ar
    41   26   27 2
    42   26   28 ar
    43   27   43 1
    44   28   29 ar
    45   28   45 1
    46   29   30 ar
    47   29   44 1
    48   30   31 ar
@<TRIPOS>SUBSTRUCTURE
     1 ATP         1 GROUP 0 A     ****
@<TRIPOS>MOLECULE
[[[3,4-dihydroxy-5-(6-imino-7,8-dihydro-1~{H}-purin-8-ylium-9-yl)tetrahydrofuran-2-yl]methoxy-hydroxy-phosphoryl]oxy-oxido-phosphoryl] hydrogen phosphate
   46    48     1     0     0
SMALL
USER_CHARGES

@<TRIPOS>ATOM
      1 PG          3.0492    5.8863   -5.3099 P.3       1 ATP         1.5644
      2 O1G         1.9126    5.9808   -6.3034 O.co2     1 ATP        -0.8581
      3 O2G         4.4855    6.0530   -5.7535 O.co2     1 ATP        -0.8581
      4 O3G         2.7585    6.9305   -4.0887 O.3       1 ATP        -0.7962
      5 PB          1.6457    3.8808   -3.6454 P.3       1 ATP         1.6830
      6 O1B         1.3902    4.7596   -2.4412 O.co2     1 ATP        -0.8633
      7 O2B         0.5367    3.5506   -4.6195 O.co2     1 ATP        -0.8633
      8 O3B         2.9094    4.4913   -4.4774 O.3       1 ATP        -0.8097
      9 PA          2.9499    1.2416   -3.9540 P.3       1 ATP         1.7610
     10 O1A         4.1019    1.6058   -4.8451 O.2       1 ATP        -0.8554
     11 O2A         1.6689    0.6367   -4.7357 O.3       1 ATP        -0.8102
     12 O3A         2.3267    2.4887   -3.1336 O.3       1 ATP        -0.7693
     13 O5'         3.2903    0.1346   -2.8241 O.3       1 ATP        -0.5757
     14 C5'         2.2816   -0.2918   -1.9206 C.3       1 ATP         0.1911
     15 C4'         2.7248    0.0226   -0.4980 C.3       1 ATP         0.1218
     16 O4'         2.4697    1.4219   -0.2462 O.3       1 ATP        -0.4138
     17 C3'         1.9404   -0.7419    0.5596 C.3       1 ATP         0.1338
     18 O3'         2.7418   -0.8086    1.7389 O.3       1 ATP        -0.5756
     19 C2'         0.7477    0.1630    0.7858 C.3       1 ATP         0.0673
     20 O2'         0.1373   -0.0577    2.0407 O.3       1 ATP        -0.5671
     21 C1'         1.3733    1.5427    0.6747 C.3       1 ATP         0.3795
     22 N9          0.4520    2.5240    0.1767 N.pl3     1 ATP        -0.4175
     23 C8         -0.2004    2.4829   -0.9804 C.ar      1 ATP         0.2552
     24 N7         -0.9830    3.5431   -1.1568 N.pl3     1 ATP        -0.4731
     25 C5         -0.8095    4.3012   -0.0331 C.ar      1 ATP        -0.1295
     26 C6         -1.4065    5.5904    0.3585 C.ar      1 ATP         0.7196
     27 N6         -2.2501    6.2030   -0.4084 N.2       1 ATP        -0.8094
     28 N1         -0.9585    6.0272    1.5994 N.pl3     1 ATP        -0.8312
     29 C2         -0.0508    5.3009    2.3532 C.ar      1 ATP         0.6744
     30 N3          0.4890    4.1592    2.0257 N.2       1 ATP        -0.5937
     31 C4          0.0637    3.7006    0.7995 C.ar      1 ATP         0.2810
     32 HOG3        3.4106    6.9873   -3.3581 H         1 ATP         0.4152
     33 HOA2        1.7782   -0.1847   -5.2607 H         1 ATP         0.4571
     34 H5'1        1.3514    0.2330   -2.1577 H         1 ATP         0.0465
     35 H5'2        2.1280   -1.3678   -2.0460 H         1 ATP         0.0465
     36 H4'         3.8044   -0.1397   -0.4040 H         1 ATP         0.1379
     37 H3'         1.6764   -1.7639    0.2728 H         1 ATP         0.1317
     38 HO3'        2.2232   -1.2979    2.3953 H         1 ATP         0.4175
     39 H2'        -0.0011    0.0027    0.0003 H         1 ATP         0.0669
     40 HO2'       -0.6141    0.5574    2.1082 H         1 ATP         0.4064
     41 H1'         1.7826    1.9024    1.6451 H         1 ATP         0.1285
     42 H8         -0.1116    1.6863   -1.6984 H         1 ATP         0.2954
     43 HN62       -2.5420    7.0730    0.0447 H         1 ATP         0.4226
     44 H2          0.1969    5.7893    3.3086 H         1 ATP         0.0826
     45 H45        -1.3097    6.9080    1.9642 H         1 ATP         0.4581
     46 H46        -1.5735    3.7351   -1.9538 H         1 ATP         0.5252
@<TRIPOS>BOND
     1    1    2 2
     2    1    3 1
     3    1    4 1
     4    1    8 1
     5    4   32 1
     6    5    6 2
     7    5    7 1
     8    5    8 1
     9    5   12 1
    10    9   10 2
    11    9   11 1
    12    9   12 1
    13    9   13 1
    14   11   33 1
    15   13   14 1
    16   14   15 1
    17   14   34 1
    18   14   35 1
    19   15   16 1
    20   15   17 1
    21   15   36 1
    22   16   21 1
    23   17   18 1
    24   17   19 1
    25   17   37 1
    26   18   38 1
    27   19   20 1
    28   19   21 1
    29   19   39 1
    30   20   40 1
    31   21   22 1
    32   21   41 1
    33   22   23 ar
    34   22   31 ar
    35   23   24 ar
    36   23   42 1
    37   24   25 ar
    38   24   46 1
    39   25   26 ar
    40   25   31 ar
    41   26   27 2
    42   26   28 ar
    43   27   43 1
    44   28   29 ar
    45   28   45 1
    46   29   30 ar
    47   29   44 1
    48   30   31 ar
@<TRIPOS>SUBSTRUCTURE
     1 ATP         1 GROUP 0 A     ****
@<TRIPOS>MOLECULE
[[[3,4-dihydroxy-5-(6-imino-7,8-dihydro-1~{H}-purin-8-ylium-9-yl)tetrahydrofuran-2-yl]methoxy-hydroxy-phosphoryl]oxy-oxido-phosphoryl] hydrogen phosphate
   46    48     1     0     0
SMALL
USER_CHARGES

@<TRIPOS>ATOM
      1 PG          1.2332    1.0860   -6.4528 P.3       1 ATP         1.5644
      2 O1G         0.5013    1.4528   -7.7245 O.co2     1 ATP        -0.8581
      3 O2G         2.1722    2.0662   -5.7857 O.co2     1 ATP        -0.8581
      4 O3G         0.1380    0.5841   -5.3505 O.3       1 ATP        -0.7962
      5 PB          2.8287   -1.2654   -5.6236 P.3       1 ATP         1.6830
      6 O1B         3.2161   -2.5518   -6.3185 O.co2     1 ATP        -0.8633
      7 O2B         3.8637   -0.4179   -4.9178 O.co2     1 ATP        -0.8633
      8 O3B         2.0152   -0.3265   -6.6811 O.3       1 ATP        -0.8097
      9 PA          1.5776   -2.4676   -3.2256 P.3       1 ATP         1.7610
     10 O1A         1.9399   -3.9114   -3.4201 O.2       1 ATP        -0.8554
     11 O2A         0.0775   -2.2267   -2.6692 O.3       1 ATP        -0.8102
     12 O3A         1.6142   -1.5868   -4.5819 O.3       1 ATP        -0.7693
     13 O5'         2.5245   -1.6648   -2.1878 O.3       1 ATP        -0.5757
     14 C5'         2.2816   -0.2918   -1.9206 C.3       1 ATP         0.1911
     15 C4'         2.7248    0.0226   -0.4980 C.3       1 ATP         0.1218
     16 O4'         2.4697    1.4219   -0.2462 O.3       1 ATP        -0.4138
     17 C3'         1.9404   -0.7419    0.5596 C.3       1 ATP         0.1338
     18 O3'         2.7418   -0.8086    1.7389 O.3       1 ATP        -0.5756
     19 C2'         0.7477    0.1630    0.7858 C.3       1 ATP         0.0673
     20 O2'         0.1373   -0.0577    2.0407 O.3       1 ATP        -0.5671
     21 C1'         1.3733    1.5427    0.6747 C.3       1 ATP         0.3795
     22 N9          0.4520    2.5240    0.1767 N.pl3     1 ATP        -0.4175
     23 C8          0.2216    2.8192   -1.0985 C.ar      1 ATP         0.2552
     24 N7         -0.6906    3.7763   -1.2384 N.pl3     1 ATP        -0.4731
     25 C5         -1.0575    4.1037    0.0366 C.ar      1 ATP        -0.1295
     26 C6         -2.0291    5.0943    0.5330 C.ar      1 ATP         0.7196
     27 N6         -2.7093    5.8371   -0.2800 N.2       1 ATP        -0.8094
     28 N1         -2.1051    5.1136    1.9204 N.pl3     1 ATP        -0.8312
     29 C2         -1.3354    4.2774    2.7129 C.ar      1 ATP         0.6744
     30 N3         -0.4707    3.3945    2.2944 N.2       1 ATP        -0.5937
     31 C4         -0.3734    3.3525    0.9220 C.ar      1 ATP         0.2810
     32 HOG3        0.4592    0.3088   -4.4654 H         1 ATP         0.4152
     33 HOA2       -0.1740   -2.6106   -1.8022 H         1 ATP         0.4571
     34 H5'1        2.8432    0.3119   -2.6398 H         1 ATP         0.0465
     35 H5'2        1.2128   -0.0927   -2.0428 H         1 ATP         0.0465
     36 H4'         3.8044   -0.1397   -0.4040 H         1 ATP         0.1379
     37 H3'         1.6764   -1.7639    0.2728 H         1 ATP         0.1317
     38 HO3'        2.2232   -1.2979    2.3953 H         1 ATP         0.4175
     39 H2'        -0.0011    0.0027    0.0003 H         1 ATP         0.0669
     40 HO2'       -0.6141    0.5574    2.1082 H         1 ATP         0.4064
     41 H1'         1.7826    1.9024    1.6451 H         1 ATP         0.1285
     42 H8          0.7125    2.3429   -1.9292 H         1 ATP         0.2954
     43 HN62       -3.3217    6.4517    0.2629 H         1 ATP         0.4226
     44 H2         -1.5188    4.4223    3.7890 H         1 ATP         0.0826
     45 H45        -2.7470    5.7626    2.3665 H         1 ATP         0.4581
     46 H46        -1.0305    4.1680   -2.1054 H         1 ATP         0.5252
@<TRIPOS>BOND
     1    1    2 2
     2    1    3 1
     3    1    4 1
     4    1    8 1
     5    4   32 1
     6    5    6 2
     7    5    7 1
     8    5    8 1
     9    5   12 1
    10    9   10 2
    11    9   11 1
    12    9   12 1
    13    9   13 1
    14   11   33 1
    15   13   14 1
    16   14   15 1
    17   14   34 1
    18   14   35 1
    19   15   16 1
    20   15   17 1
    21   15   36 1
    22   16   21 1
    23   17   18 1
    24   17   19 1
    25   17   37 1
    26   18   38 1
    27   19   20 1
    28   19   21 1
    29   19   39 1
    30   20   40 1
    31   21   22 1
    32   21   41 1
    33   22   23 ar
    34   22   31 ar
    35   23   24 ar
    36   23   42 1
    37   24   25 ar
    38   24   46 1
    39   25   26 ar
    40   25   31 ar
    41   26   27 2
    42   26   28 ar
    43   27   43 1
    44   28   29 ar
    45   28   45 1
    46   29   30 ar
    47   29   44 1
    48   30   31 ar
@<TRIPOS>SUBSTRUCTURE
     1 ATP         1 GROUP 0 A     ****
@<TRIPOS>MOLECULE
[[[3,4-dihydroxy-5-(6-imino-7,8-dihydro-1~{H}-purin-8-ylium-9-yl)tetrahydrofuran-2-yl]methoxy-hydroxy-phosphoryl]oxy-oxido-phosphoryl] hydrogen phosphate
   46    48     1     0     0
SMALL
USER_CHARGES

@<TRIPOS>ATOM
      1 PG          0.0738   -3.0385   -6.9802 P.3       1 ATP         1.5644
      2 O1G        -1.2403   -2.4592   -6.5058 O.co2     1 ATP        -0.8581
      3 O2G         0.2565   -4.5325   -7.1289 O.co2     1 ATP        -0.8581
      4 O3G         0.4762   -2.3233   -8.3919 O.3       1 ATP        -0.7962
      5 PB          1.6689   -0.9046   -5.6900 P.3       1 ATP         1.6830
      6 O1B         2.1436   -0.2160   -6.9503 O.co2     1 ATP        -0.8633
      7 O2B         0.5642   -0.3100   -4.8451 O.co2     1 ATP        -0.8633
      8 O3B         1.2780   -2.4462   -6.0541 O.3       1 ATP        -0.8097
      9 PA          3.9521   -0.1769   -3.9527 P.3       1 ATP         1.7610
     10 O1A         4.6810    0.7861   -4.8443 O.2       1 ATP        -0.8554
     11 O2A         4.9166   -1.1746   -3.1207 O.3       1 ATP        -0.8102
     12 O3A         2.9635   -1.1884   -4.7377 O.3       1 ATP        -0.7693
     13 O5'         3.0213    0.5153   -2.8245 O.3       1 ATP        -0.5757
     14 C5'         2.2816   -0.2918   -1.9206 C.3       1 ATP         0.1911
     15 C4'         2.7248    0.0226   -0.4980 C.3       1 ATP         0.1218
     16 O4'         2.4697    1.4219   -0.2462 O.3       1 ATP        -0.4138
     17 C3'         1.9404   -0.7419    0.5596 C.3       1 ATP         0.1338
     18 O3'         2.7418   -0.8086    1.7389 O.3       1 ATP        -0.5756
     19 C2'         0.7477    0.1630    0.7858 C.3       1 ATP         0.0673
     20 O2'         0.1373   -0.0577    2.0407 O.3       1 ATP        -0.5671
     21 C1'         1.3733    1.5427    0.6747 C.3       1 ATP         0.3795
     22 N9          0.4520    2.5240    0.1767 N.pl3     1 ATP        -0.4175
     23 C8          0.2216    2.8192   -1.0985 C.ar      1 ATP         0.2552
     24 N7         -0.6906    3.7763   -1.2384 N.pl3     1 ATP        -0.4731
     25 C5         -1.0575    4.1037    0.0366 C.ar      1 ATP        -0.1295
     26 C6         -2.0291    5.0943    0.5330 C.ar      1 ATP         0.7196
     27 N6         -2.7093    5.8371   -0.2800 N.2       1 ATP        -0.8094
     28 N1         -2.1051    5.1136    1.9204 N.pl3     1 ATP        -0.8312
     29 C2         -1.3354    4.2774    2.7129 C.ar      1 ATP         0.6744
     30 N3         -0.4707    3.3945    2.2944 N.2       1 ATP        -0.5937
     31 C4         -0.3734    3.3525    0.9220 C.ar      1 ATP         0.2810
     32 HOG3        1.3106   -2.5940   -8.8310 H         1 ATP         0.4152
     33 HOA2        5.5732   -0.7917   -2.5006 H         1 ATP         0.4571
     34 H5'1        1.2163   -0.0770   -2.0471 H         1 ATP         0.0465
     35 H5'2        2.4655   -1.3443   -2.1563 H         1 ATP         0.0465
     36 H4'         3.8044   -0.1397   -0.4040 H         1 ATP         0.1379
     37 H3'         1.6764   -1.7639    0.2728 H         1 ATP         0.1317
     38 HO3'        2.2232   -1.2979    2.3953 H         1 ATP         0.4175
     39 H2'        -0.0011    0.0027    0.0003 H         1 ATP         0.0669
     40 HO2'       -0.6141    0.5574    2.1082 H         1 ATP         0.4064
     41 H1'         1.7826    1.9024    1.6451 H         1 ATP         0.1285
     42 H8          0.7125    2.3429   -1.9292 H         1 ATP         0.2954
     43 HN62       -3.3217    6.4517    0.2629 H         1 ATP         0.4226
     44 H2         -1.5188    4.4223    3.7890 H         1 ATP         0.0826
     45 H45        -2.7470    5.7626    2.3665 H         1 ATP         0.4581
     46 H46        -1.0305    4.1680   -2.1054 H         1 ATP         0.5252
@<TRIPOS>BOND
     1    1    2 2
     2    1    3 1
     3    1    4 1
     4    1    8 1
     5    4   32 1
     6    5    6 2
     7    5    7 1
     8    5    8 1
     9    5   12 1
    10    9   10 2
    11    9   11 1
    12    9   12 1
    13    9   13 1
    14   11   33 1
    15   13   14 1
    16   14   15 1
    17   14   34 1
    18   14   35 1
    19   15   16 1
    20   15   17 1
    21   15   36 1
    22   16   21 1
    23   17   18 1
    24   17   19 1
    25   17   37 1
    26   18   38 1
    27   19   20 1
    28   19   21 1
    29   19   39 1
    30   20   40 1
    31   21   22 1
    32   21   41 1
    33   22   23 ar
    34   22   31 ar
    35   23   24 ar
    36   23   42 1
    37   24   25 ar
    38   24   46 1
    39   25   26 ar
    40   25   31 ar
    41   26   27 2
    42   26   28 ar
    43   27   43 1
    44   28   29 ar
    45   28   45 1
    46   29   30 ar
    47   29   44 1
    48   30   31 ar
@<TRIPOS>SUBSTRUCTURE
     1 ATP         1 GROUP 0 A     ****
@<TRIPOS>MOLECULE
[[[3,4-dihydroxy-5-(6-imino-7,8-dihydro-1~{H}-purin-8-ylium-9-yl)tetrahydrofuran-2-yl]methoxy-hydroxy-phosphoryl]oxy-oxido-phosphoryl] hydrogen phosphate
   46    48     1     0     0
SMALL
USER_CHARGES

@<TRIPOS>ATOM
      1 PG          7.0307   -1.5897   -1.3072 P.3       1 ATP         1.5644
      2 O1G         6.5127   -1.7166    0.1081 O.co2     1 ATP        -0.8581
      3 O2G         8.0755   -0.5556   -1.6630 O.co2     1 ATP        -0.8581
      4 O3G         7.5610   -3.0538   -1.7984 O.3       1 ATP        -0.7962
      5 PB          5.7145   -1.4155   -3.9528 P.3       1 ATP         1.6830
      6 O1B         6.4073   -0.1632   -4.4421 O.co2     1 ATP        -0.8633
      7 O2B         6.1149   -2.7802   -4.4676 O.co2     1 ATP        -0.8633
      8 O3B         5.7640   -1.4352   -2.3222 O.3       1 ATP        -0.8097
      9 PA          2.8587   -2.1496   -3.6950 P.3       1 ATP         1.7610
     10 O1A         3.0952   -3.6247   -3.8434 O.2       1 ATP        -0.8554
     11 O2A         1.6310   -1.5797   -4.5815 O.3       1 ATP        -0.8102
     12 O3A         4.1060   -1.2287   -4.1564 O.3       1 ATP        -0.7693
     13 O5'         2.5245   -1.6648   -2.1878 O.3       1 ATP        -0.5757
     14 C5'         2.2816   -0.2918   -1.9206 C.3       1 ATP         0.1911
     15 C4'         2.7248    0.0226   -0.4980 C.3       1 ATP         0.1218
     16 O4'         2.4697    1.4219   -0.2462 O.3       1 ATP        -0.4138
     17 C3'         1.9404   -0.7419    0.5596 C.3       1 ATP         0.1338
     18 O3'         2.7418   -0.8086    1.7389 O.3       1 ATP        -0.5756
     19 C2'         0.7477    0.1630    0.7858 C.3       1 ATP         0.0673
     20 O2'         0.1373   -0.0577    2.0407 O.3       1 ATP        -0.5671
     21 C1'         1.3733    1.5427    0.6747 C.3       1 ATP         0.3795
     22 N9          0.4520    2.5240    0.1767 N.pl3     1 ATP        -0.4175
     23 C8          0.2216    2.8192   -1.0985 C.ar      1 ATP         0.2552
     24 N7         -0.6906    3.7763   -1.2384 N.pl3     1 ATP        -0.4731
     25 C5         -1.0575    4.1037    0.0366 C.ar      1 ATP        -0.1295
     26 C6         -2.0291    5.0943    0.5330 C.ar      1 ATP         0.7196
     27 N6         -2.7093    5.8371   -0.2800 N.2       1 ATP        -0.8094
     28 N1         -2.1051    5.1136    1.9204 N.pl3     1 ATP        -0.8312
     29 C2         -1.3354    4.2774    2.7129 C.ar      1 ATP         0.6744
     30 N3         -0.4707    3.3945    2.2944 N.2       1 ATP        -0.5937
     31 C4         -0.3734    3.3525    0.9220 C.ar      1 ATP         0.2810
     32 HOG3        7.9304   -3.1368   -2.7034 H         1 ATP         0.4152
     33 HOA2        0.7307   -1.9389   -4.4311 H         1 ATP         0.4571
     34 H5'1        2.8432    0.3119   -2.6398 H         1 ATP         0.0465
     35 H5'2        1.2128   -0.0927   -2.0428 H         1 ATP         0.0465
     36 H4'         3.8044   -0.1397   -0.4040 H         1 ATP         0.1379
     37 H3'         1.6764   -1.7639    0.2728 H         1 ATP         0.1317
     38 HO3'        2.2232   -1.2979    2.3953 H         1 ATP         0.4175
     39 H2'        -0.0011    0.0027    0.0003 H         1 ATP         0.0669
     40 HO2'       -0.1563   -0.9855    2.0596 H         1 ATP         0.4064
     41 H1'         1.7826    1.9024    1.6451 H         1 ATP         0.1285
     42 H8          0.7125    2.3429   -1.9292 H         1 ATP         0.2954
     43 HN62       -3.3217    6.4517    0.2629 H         1 ATP         0.4226
     44 H2         -1.5188    4.4223    3.7890 H         1 ATP         0.0826
     45 H45        -2.7470    5.7626    2.3665 H         1 ATP         0.4581
     46 H46        -1.0305    4.1680   -2.1054 H         1 ATP         0.5252
@<TRIPOS>BOND
     1    1    2 2
     2    1    3 1
     3    1    4 1
     4    1    8 1
     5    4   32 1
     6    5    6 2
     7    5    7 1
     8    5    8 1
     9    5   12 1
    10    9   10 2
    11    9   11 1
    12    9   12 1
    13    9   13 1
    14   11   33 1
    15   13   14 1
    16   14   15 1
    17   14   34 1
    18   14   35 1
    19   15   16 1
    20   15   17 1
    21   15   36 1
    22   16   21 1
    23   17   18 1
    24   17   19 1
    25   17   37 1
    26   18   38 1
    27   19   20 1
    28   19   21 1
    29   19   39 1
    30   20   40 1
    31   21   22 1
    32   21   41 1
    33   22   23 ar
    34   22   31 ar
    35   23   24 ar
    36   23   42 1
    37   24   25 ar
    38   24   46 1
    39   25   26 ar
    40   25   31 ar
    41   26   27 2
    42   26   28 ar
    43   27   43 1
    44   28   29 ar
    45   28   45 1
    46   29   30 ar
    47   29   44 1
    48   30   31 ar
@<TRIPOS>SUBSTRUCTURE
     1 ATP         1 GROUP 0 A     ****
@<TRIPOS>MOLECULE
[[[3,4-dihydroxy-5-(6-imino-7,8-dihydro-1~{H}-purin-8-ylium-9-yl)tetrahydrofuran-2-yl]methoxy-hydroxy-phosphoryl]oxy-oxido-phosphoryl] hydrogen phosphate
   46    48     1     0     0
SMALL
USER_CHARGES

@<TRIPOS>ATOM
      1 PG          5.7924    1.5515   -4.6201 P.3       1 ATP         1.5644
      2 O1G         5.1858    1.4890   -3.2360 O.co2     1 ATP        -0.8581
      3 O2G         5.1733    2.4075   -5.7025 O.co2     1 ATP        -0.8581
      4 O3G         7.3684    1.9541   -4.4778 O.3       1 ATP        -0.7962
      5 PB          4.8620   -1.0838   -5.5955 P.3       1 ATP         1.6830
      6 O1B         3.8977   -0.4640   -6.5823 O.co2     1 ATP        -0.8633
      7 O2B         5.5684   -2.3845   -5.9072 O.co2     1 ATP        -0.8633
      8 O3B         5.9779    0.0334   -5.1854 O.3       1 ATP        -0.8097
      9 PA          2.8587   -2.1496   -3.6950 P.3       1 ATP         1.7610
     10 O1A         3.0952   -3.6247   -3.8434 O.2       1 ATP        -0.8554
     11 O2A         1.6310   -1.5797   -4.5815 O.3       1 ATP        -0.8102
     12 O3A         4.1060   -1.2287   -4.1564 O.3       1 ATP        -0.7693
     13 O5'         2.5245   -1.6648   -2.1878 O.3       1 ATP        -0.5757
     14 C5'         2.2816   -0.2918   -1.9206 C.3       1 ATP         0.1911
     15 C4'         2.7248    0.0226   -0.4980 C.3       1 ATP         0.1218
     16 O4'         2.4697    1.4219   -0.2462 O.3       1 ATP        -0.4138
     17 C3'         1.9404   -0.7419    0.5596 C.3       1 ATP         0.1338
     18 O3'         2.7418   -0.8086    1.7389 O.3       1 ATP        -0.5756
     19 C2'         0.7477    0.1630    0.7858 C.3       1 ATP         0.0673
     20 O2'         0.1373   -0.0577    2.0407 O.3       1 ATP        -0.5671
     21 C1'         1.3733    1.5427    0.6747 C.3       1 ATP         0.3795
     22 N9          0.4520    2.5240    0.1767 N.pl3     1 ATP        -0.4175
     23 C8          0.2216    2.8192   -1.0985 C.ar      1 ATP         0.2552
     24 N7         -0.6906    3.7763   -1.2384 N.pl3     1 ATP        -0.4731
     25 C5         -1.0575    4.1037    0.0366 C.ar      1 ATP        -0.1295
     26 C6         -2.0291    5.0943    0.5330 C.ar      1 ATP         0.7196
     27 N6         -2.7093    5.8371   -0.2800 N.2       1 ATP        -0.8094
     28 N1         -2.1051    5.1136    1.9204 N.pl3     1 ATP        -0.8312
     29 C2         -1.3354    4.2774    2.7129 C.ar      1 ATP         0.6744
     30 N3         -0.4707    3.3945    2.2944 N.2       1 ATP        -0.5937
     31 C4         -0.3734    3.3525    0.9220 C.ar      1 ATP         0.2810
     32 HOG3        7.9049    2.0355   -5.2950 H         1 ATP         0.4152
     33 HOA2        1.6660   -1.6756   -5.5571 H         1 ATP         0.4571
     34 H5'1        2.8432    0.3119   -2.6398 H         1 ATP         0.0465
     35 H5'2        1.2128   -0.0927   -2.0428 H         1 ATP         0.0465
     36 H4'         3.8044   -0.1397   -0.4040 H         1 ATP         0.1379
     37 H3'         1.6764   -1.7639    0.2728 H         1 ATP         0.1317
     38 HO3'        2.2232   -1.2979    2.3953 H         1 ATP         0.4175
     39 H2'        -0.0011    0.0027    0.0003 H         1 ATP         0.0669
     40 HO2'       -0.1563   -0.9855    2.0596 H         1 ATP         0.4064
     41 H1'         1.7826    1.9024    1.6451 H         1 ATP         0.1285
     42 H8          0.7125    2.3429   -1.9292 H         1 ATP         0.2954
     43 HN62       -3.3217    6.4517    0.2629 H         1 ATP         0.4226
     44 H2         -1.5188    4.4223    3.7890 H         1 ATP         0.0826
     45 H45        -2.7470    5.7626    2.3665 H         1 ATP         0.4581
     46 H46        -1.0305    4.1680   -2.1054 H         1 ATP         0.5252
@<TRIPOS>BOND
     1    1    2 2
     2    1    3 1
     3    1    4 1
     4    1    8 1
     5    4   32 1
     6    5    6 2
     7    5    7 1
     8    5    8 1
     9    5   12 1
    10    9   10 2
    11    9   11 1
    12    9   12 1
    13    9   13 1
    14   11   33 1
    15   13   14 1
    16   14   15 1
    17   14   34 1
    18   14   35 1
    19   15   16 1
    20   15   17 1
    21   15   36 1
    22   16   21 1
    23   17   18 1
    24   17   19 1
    25   17   37 1
    26   18   38 1
    27   19   20 1
    28   19   21 1
    29   19   39 1
    30   20   40 1
    31   21   22 1
    32   21   41 1
    33   22   23 ar
    34   22   31 ar
    35   23   24 ar
    36   23   42 1
    37   24   25 ar
    38   24   46 1
    39   25   26 ar
    40   25   31 ar
    41   26   27 2
    42   26   28 ar
    43   27   43 1
    44   28   29 ar
    45   28   45 1
    46   29   30 ar
    47   29   44 1
    48   30   31 ar
@<TRIPOS>SUBSTRUCTURE
     1 ATP         1 GROUP 0 A     ****
@<TRIPOS>MOLECULE
[[[3,4-dihydroxy-5-(6-imino-7,8-dihydro-1~{H}-purin-8-ylium-9-yl)tetrahydrofuran-2-yl]methoxy-hydroxy-phosphoryl]oxy-oxido-phosphoryl] hydrogen phosphate
   46    48     1     0     0
SMALL
USER_CHARGES

@<TRIPOS>ATOM
      1 PG          4.3028   -3.3459   -7.1273 P.3       1 ATP         1.5644
      2 O1G         4.0990   -4.8317   -7.3227 O.co2     1 ATP        -0.8581
      3 O2G         5.6549   -2.7911   -6.7381 O.co2     1 ATP        -0.8581
      4 O3G         3.7909   -2.5712   -8.4704 O.3       1 ATP        -0.7962
      5 PB          2.8287   -1.2654   -5.6236 P.3       1 ATP         1.6830
      6 O1B         3.9988   -0.7146   -4.8393 O.co2     1 ATP        -0.8633
      7 O2B         2.2655   -0.5184   -6.8122 O.co2     1 ATP        -0.8633
      8 O3B         3.1808   -2.7910   -6.0824 O.3       1 ATP        -0.8097
      9 PA          1.5776   -2.4676   -3.2256 P.3       1 ATP         1.7610
     10 O1A         1.9399   -3.9114   -3.4201 O.2       1 ATP        -0.8554
     11 O2A         0.0775   -2.2267   -2.6692 O.3       1 ATP        -0.8102
     12 O3A         1.6142   -1.5868   -4.5819 O.3       1 ATP        -0.7693
     13 O5'         2.5245   -1.6648   -2.1878 O.3       1 ATP        -0.5757
     14 C5'         2.2816   -0.2918   -1.9206 C.3       1 ATP         0.1911
     15 C4'         2.7248    0.0226   -0.4980 C.3       1 ATP         0.1218
     16 O4'         2.4697    1.4219   -0.2462 O.3       1 ATP        -0.4138
     17 C3'         1.9404   -0.7419    0.5596 C.3       1 ATP         0.1338
     18 O3'         2.7418   -0.8086    1.7389 O.3       1 ATP        -0.5756
     19 C2'         0.7477    0.1630    0.7858 C.3       1 ATP         0.0673
     20 O2'         0.1373   -0.0577    2.0407 O.3       1 ATP        -0.5671
     21 C1'         1.3733    1.5427    0.6747 C.3       1 ATP         0.3795
     22 N9          0.4520    2.5240    0.1767 N.pl3     1 ATP        -0.4175
     23 C8          0.2216    2.8192   -1.0985 C.ar      1 ATP         0.2552
     24 N7         -0.6906    3.7763   -1.2384 N.pl3     1 ATP        -0.4731
     25 C5         -1.0575    4.1037    0.0366 C.ar      1 ATP        -0.1295
     26 C6         -2.0291    5.0943    0.5330 C.ar      1 ATP         0.7196
     27 N6         -2.7093    5.8371   -0.2800 N.2       1 ATP        -0.8094
     28 N1         -2.1051    5.1136    1.9204 N.pl3     1 ATP        -0.8312
     29 C2         -1.3354    4.2774    2.7129 C.ar      1 ATP         0.6744
     30 N3         -0.4707    3.3945    2.2944 N.2       1 ATP        -0.5937
     31 C4         -0.3734    3.3525    0.9220 C.ar      1 ATP         0.2810
     32 HOG3        3.8579   -1.5929   -8.4991 H         1 ATP         0.4152
     33 HOA2       -0.1740   -2.6106   -1.8022 H         1 ATP         0.4571
     34 H5'1        2.8432    0.3119   -2.6398 H         1 ATP         0.0465
     35 H5'2        1.2128   -0.0927   -2.0428 H         1 ATP         0.0465
     36 H4'         3.8044   -0.1397   -0.4040 H         1 ATP         0.1379
     37 H3'         1.6764   -1.7639    0.2728 H         1 ATP         0.1317
     38 HO3'        2.2232   -1.2979    2.3953 H         1 ATP         0.4175
     39 H2'        -0.0011    0.0027    0.0003 H         1 ATP         0.0669
     40 HO2'       -0.6141    0.5574    2.1082 H         1 ATP         0.4064
     41 H1'         1.7826    1.9024    1.6451 H         1 ATP         0.1285
     42 H8          0.7125    2.3429   -1.9292 H         1 ATP         0.2954
     43 HN62       -3.3217    6.4517    0.2629 H         1 ATP         0.4226
     44 H2         -1.5188    4.4223    3.7890 H         1 ATP         0.0826
     45 H45        -2.7470    5.7626    2.3665 H         1 ATP         0.4581
     46 H46        -1.0305    4.1680   -2.1054 H         1 ATP         0.5252
@<TRIPOS>BOND
     1    1    2 2
     2    1    3 1
     3    1    4 1
     4    1    8 1
     5    4   32 1
     6    5    6 2
     7    5    7 1
     8    5    8 1
     9    5   12 1
    10    9   10 2
    11    9   11 1
    12    9   12 1
    13    9   13 1
    14   11   33 1
    15   13   14 1
    16   14   15 1
    17   14   34 1
    18   14   35 1
    19   15   16 1
    20   15   17 1
    21   15   36 1
    22   16   21 1
    23   17   18 1
    24   17   19 1
    25   17   37 1
    26   18   38 1
    27   19   20 1
    28   19   21 1
    29   19   39 1
    30   20   40 1
    31   21   22 1
    32   21   41 1
    33   22   23 ar
    34   22   31 ar
    35   23   24 ar
    36   23   42 1
    37   24   25 ar
    38   24   46 1
    39   25   26 ar
    40   25   31 ar
    41   26   27 2
    42   26   28 ar
    43   27   43 1
    44   28   29 ar
    45   28   45 1
    46   29   30 ar
    47   29   44 1
    48   30   31 ar
@<TRIPOS>SUBSTRUCTURE
     1 ATP         1 GROUP 0 A     ****
@<TRIPOS>MOLECULE
[[[3,4-dihydroxy-5-(6-imino-7,8-dihydro-1~{H}-purin-8-ylium-9-yl)tetrahydrofuran-2-yl]methoxy-hydroxy-phosphoryl]oxy-oxido-phosphoryl] hydrogen phosphate
   46    48     1     0     0
SMALL
USER_CHARGES

@<TRIPOS>ATOM
      1 PG          1.1180    0.0958   -8.2866 P.3       1 ATP         1.5644
      2 O1G         1.2718   -1.0412   -9.2722 O.co2     1 ATP        -0.8581
      3 O2G         1.8539    1.4021   -8.4855 O.co2     1 ATP        -0.8581
      4 O3G        -0.4731    0.4178   -8.1108 O.3       1 ATP        -0.7962
      5 PB          0.7855   -1.7301   -5.9806 P.3       1 ATP         1.6830
      6 O1B        -0.6737   -1.4437   -5.7038 O.co2     1 ATP        -0.8633
      7 O2B         1.2126   -3.0065   -6.6706 O.co2     1 ATP        -0.8633
      8 O3B         1.4222   -0.4613   -6.7847 O.3       1 ATP        -0.8097
      9 PA          1.5776   -2.4676   -3.2256 P.3       1 ATP         1.7610
     10 O1A         1.9399   -3.9114   -3.4201 O.2       1 ATP        -0.8554
     11 O2A         0.0775   -2.2267   -2.6692 O.3       1 ATP        -0.8102
     12 O3A         1.6142   -1.5868   -4.5819 O.3       1 ATP        -0.7693
     13 O5'         2.5245   -1.6648   -2.1878 O.3       1 ATP        -0.5757
     14 C5'         2.2816   -0.2918   -1.9206 C.3       1 ATP         0.1911
     15 C4'         2.7248    0.0226   -0.4980 C.3       1 ATP         0.1218
     16 O4'         2.4697    1.4219   -0.2462 O.3       1 ATP        -0.4138
     17 C3'         1.9404   -0.7419    0.5596 C.3       1 ATP         0.1338
     18 O3'         2.7418   -0.8086    1.7389 O.3       1 ATP        -0.5756
     19 C2'         0.7477    0.1630    0.7858 C.3       1 ATP         0.0673
     20 O2'         0.1373   -0.0577    2.0407 O.3       1 ATP        -0.5671
     21 C1'         1.3733    1.5427    0.6747 C.3       1 ATP         0.3795
     22 N9          0.4520    2.5240    0.1767 N.pl3     1 ATP        -0.4175
     23 C8          0.2216    2.8192   -1.0985 C.ar      1 ATP         0.2552
     24 N7         -0.6906    3.7763   -1.2384 N.pl3     1 ATP        -0.4731
     25 C5         -1.0575    4.1037    0.0366 C.ar      1 ATP        -0.1295
     26 C6         -2.0291    5.0943    0.5330 C.ar      1 ATP         0.7196
     27 N6         -2.7093    5.8371   -0.2800 N.2       1 ATP        -0.8094
     28 N1         -2.1051    5.1136    1.9204 N.pl3     1 ATP        -0.8312
     29 C2         -1.3354    4.2774    2.7129 C.ar      1 ATP         0.6744
     30 N3         -0.4707    3.3945    2.2944 N.2       1 ATP        -0.5937
     31 C4         -0.3734    3.3525    0.9220 C.ar      1 ATP         0.2810
     32 HOG3       -0.7388    1.1369   -7.4987 H         1 ATP         0.4152
     33 HOA2       -0.1740   -2.6106   -1.8022 H         1 ATP         0.4571
     34 H5'1        2.8432    0.3119   -2.6398 H         1 ATP         0.0465
     35 H5'2        1.2128   -0.0927   -2.0428 H         1 ATP         0.0465
     36 H4'         3.8044   -0.1397   -0.4040 H         1 ATP         0.1379
     37 H3'         1.6764   -1.7639    0.2728 H         1 ATP         0.1317
     38 HO3'        2.2232   -1.2979    2.3953 H         1 ATP         0.4175
     39 H2'        -0.0011    0.0027    0.0003 H         1 ATP         0.0669
     40 HO2'       -0.6141    0.5574    2.1082 H         1 ATP         0.4064
     41 H1'         1.7826    1.9024    1.6451 H         1 ATP         0.1285
     42 H8          0.7125    2.3429   -1.9292 H         1 ATP         0.2954
     43 HN62       -3.3217    6.4517    0.2629 H         1 ATP         0.4226
     44 H2         -1.5188    4.4223    3.7890 H         1 ATP         0.0826
     45 H45        -2.7470    5.7626    2.3665 H         1 ATP         0.4581
     46 H46        -1.0305    4.1680   -2.1054 H         1 ATP         0.5252
@<TRIPOS>BOND
     1    1    2 2
     2    1    3 1
     3    1    4 1
     4    1    8 1
     5    4   32 1
     6    5    6 2
     7    5    7 1
     8    5    8 1
     9    5   12 1
    10    9   10 2
    11    9   11 1
    12    9   12 1
    13    9   13 1
    14   11   33 1
    15   13   14 1
    16   14   15 1
    17   14   34 1
    18   14   35 1
    19   15   16 1
    20   15   17 1
    21   15   36 1
    22   16   21 1
    23   17   18 1
    24   17   19 1
    25   17   37 1
    26   18   38 1
    27   19   20 1
    28   19   21 1
    29   19   39 1
    30   20   40 1
    31   21   22 1
    32   21   41 1
    33   22   23 ar
    34   22   31 ar
    35   23   24 ar
    36   23   42 1
    37   24   25 ar
    38   24   46 1
    39   25   26 ar
    40   25   31 ar
    41   26   27 2
    42   26   28 ar
    43   27   43 1
    44   28   29 ar
    45   28   45 1
    46   29   30 ar
    47   29   44 1
    48   30   31 ar
@<TRIPOS>SUBSTRUCTURE
     1 ATP         1 GROUP 0 A     ****
@<TRIPOS>MOLECULE
[[[3,4-dihydroxy-5-(6-imino-7,8-dihydro-1~{H}-purin-8-ylium-9-yl)tetrahydrofuran-2-yl]methoxy-hydroxy-phosphoryl]oxy-oxido-phosphoryl] hydrogen phosphate
   46    48     1     0     0
SMALL
USER_CHARGES

@<TRIPOS>ATOM
      1 PG         -7.2106   -3.4411    1.4927 P.3       1 ATP         1.5644
      2 O1G        -7.6675   -2.9858    2.8607 O.co2     1 ATP        -0.8581
      3 O2G        -8.0389   -4.4100    0.6788 O.co2     1 ATP        -0.8581
      4 O3G        -6.9107   -2.1206    0.5803 O.3       1 ATP        -0.7962
      5 PB         -5.1083   -5.3313    2.3701 P.3       1 ATP         1.6830
      6 O1B        -5.2700   -5.1368    3.8613 O.co2     1 ATP        -0.8633
      7 O2B        -5.6468   -6.5657    1.6816 O.co2     1 ATP        -0.8633
      8 O3B        -5.6870   -4.0108    1.6065 O.3       1 ATP        -0.8097
      9 PA         -2.2443   -6.0789    2.3728 P.3       1 ATP         1.7610
     10 O1A        -2.3284   -7.4946    1.8805 O.2       1 ATP        -0.8554
     11 O2A        -2.1507   -5.9380    3.9819 O.3       1 ATP        -0.8102
     12 O3A        -3.5279   -5.1691    1.9965 O.3       1 ATP        -0.7693
     13 O5'        -0.9724   -5.2440    1.8220 O.3       1 ATP        -0.5757
     14 C5'        -0.7840   -3.8935    2.2172 C.3       1 ATP         0.1911
     15 C4'        -0.0724   -3.1466    1.1027 C.3       1 ATP         0.1218
     16 O4'        -0.8674   -3.1929   -0.0945 O.3       1 ATP        -0.4138
     17 C3'         0.1338   -1.6715    1.4027 C.3       1 ATP         0.1338
     18 O3'         1.2893   -1.4445    2.1808 O.3       1 ATP        -0.5756
     19 C2'         0.2158   -1.0724    0.0128 C.3       1 ATP         0.0673
     20 O2'         1.5141   -1.2448   -0.5513 O.3       1 ATP        -0.5671
     21 C1'        -0.7897   -1.9176   -0.7583 C.3       1 ATP         0.3795
     22 N9         -2.1040   -1.3333   -0.7704 N.pl3     1 ATP        -0.4175
     23 C8         -3.0590   -1.5123    0.1363 C.ar      1 ATP         0.2552
     24 N7         -4.1655   -0.8354   -0.1554 N.pl3     1 ATP        -0.4731
     25 C5         -3.8852   -0.1874   -1.3253 C.ar      1 ATP        -0.1295
     26 C6         -4.7113    0.7160   -2.1458 C.ar      1 ATP         0.7196
     27 N6         -5.9213    1.0209   -1.8021 N.2       1 ATP        -0.8094
     28 N1         -4.0411    1.1673   -3.2764 N.pl3     1 ATP        -0.8312
     29 C2         -2.7403    0.7865   -3.5638 C.ar      1 ATP         0.6744
     30 N3         -1.9921   -0.0108   -2.8519 N.2       1 ATP        -0.5937
     31 C4         -2.6302   -0.4747   -1.7239 C.ar      1 ATP         0.2810
     32 HOG3       -6.6031   -2.2507   -0.3421 H         1 ATP         0.4152
     33 HOA2       -1.3965   -6.3540    4.4512 H         1 ATP         0.4571
     34 H5'1       -1.7618   -3.4448    2.4164 H         1 ATP         0.0465
     35 H5'2       -0.1874   -3.8744    3.1341 H         1 ATP         0.0465
     36 H4'         0.8874   -3.6466    0.8805 H         1 ATP         0.1379
     37 H3'        -0.7376   -1.2333    1.9867 H         1 ATP         0.1317
     38 HO3'        1.3408   -0.4870    2.3219 H         1 ATP         0.4175
     39 H2'        -0.0384   -0.0310    0.0096 H         1 ATP         0.0669
     40 HO2'        2.1463   -0.7958    0.0370 H         1 ATP         0.4064
     41 H1'        -0.4769   -2.1002   -1.8093 H         1 ATP         0.1285
     42 H8         -2.9569   -2.1323    1.0098 H         1 ATP         0.2954
     43 HN62       -6.3169    1.6552   -2.5012 H         1 ATP         0.4226
     44 H2         -2.3612    1.2343   -4.4957 H         1 ATP         0.0826
     45 H45        -4.5223    1.7976   -3.9117 H         1 ATP         0.4581
     46 H46        -5.0218   -0.8132    0.3804 H         1 ATP         0.5252
@<TRIPOS>BOND
     1    1    2 2
     2    1    3 1
     3    1    4 1
     4    1    8 1
     5    4   32 1
     6    5    6 2
     7    5    7 1
     8    5    8 1
     9    5   12 1
    10    9   10 2
    11    9   11 1
    12    9   12 1
    13    9   13 1
    14   11   33 1
    15   13   14 1
    16   14   15 1
    17   14   34 1
    18   14   35 1
    19   15   16 1
    20   15   17 1
    21   15   36 1
    22   16   21 1
    23   17   18 1
    24   17   19 1
    25   17   37 1
    26   18   38 1
    27   19   20 1
    28   19   21 1
    29   19   39 1
    30   20   40 1
    31   21   22 1
    32   21   41 1
    33   22   23 ar
    34   22   31 ar
    35   23   24 ar
    36   23   42 1
    37   24   25 ar
    38   24   46 1
    39   25   26 ar
    40   25   31 ar
    41   26   27 2
    42   26   28 ar
    43   27   43 1
    44   28   29 ar
    45   28   45 1
    46   29   30 ar
    47   29   44 1
    48   30   31 ar
@<TRIPOS>SUBSTRUCTURE
     1 ATP         1 GROUP 0 A     ****
@<TRIPOS>MOLECULE
[[[3,4-dihydroxy-5-(6-imino-7,8-dihydro-1~{H}-purin-8-ylium-9-yl)tetrahydrofuran-2-yl]methoxy-hydroxy-phosphoryl]oxy-oxido-phosphoryl] hydrogen phosphate
   46    48     1     0     0
SMALL
USER_CHARGES

@<TRIPOS>ATOM
      1 PG          7.6877    0.6829   -4.7211 P.3       1 ATP         1.5644
      2 O1G         8.6627   -0.3600   -5.2202 O.co2     1 ATP        -0.8581
      3 O2G         7.9669    1.4673   -3.4584 O.co2     1 ATP        -0.8581
      4 O3G         7.3912    1.7372   -5.9322 O.3       1 ATP        -0.7962
      5 PB          5.6461   -1.1567   -3.6212 P.3       1 ATP         1.6830
      6 O1B         6.3354   -2.4570   -3.9704 O.co2     1 ATP        -0.8633
      7 O2B         5.6442   -0.6313   -2.2028 O.co2     1 ATP        -0.8633
      8 O3B         6.2055    0.0122   -4.6123 O.3       1 ATP        -0.8097
      9 PA          2.8587   -2.1496   -3.6950 P.3       1 ATP         1.7610
     10 O1A         3.0952   -3.6247   -3.8434 O.2       1 ATP        -0.8554
     11 O2A         1.6310   -1.5797   -4.5815 O.3       1 ATP        -0.8102
     12 O3A         4.1060   -1.2287   -4.1564 O.3       1 ATP        -0.7693
     13 O5'         2.5245   -1.6648   -2.1878 O.3       1 ATP        -0.5757
     14 C5'         2.2816   -0.2918   -1.9206 C.3       1 ATP         0.1911
     15 C4'         2.7248    0.0226   -0.4980 C.3       1 ATP         0.1218
     16 O4'         2.4697    1.4219   -0.2462 O.3       1 ATP        -0.4138
     17 C3'         1.9404   -0.7419    0.5596 C.3       1 ATP         0.1338
     18 O3'         2.7418   -0.8086    1.7389 O.3       1 ATP        -0.5756
     19 C2'         0.7477    0.1630    0.7858 C.3       1 ATP         0.0673
     20 O2'         0.1373   -0.0577    2.0407 O.3       1 ATP        -0.5671
     21 C1'         1.3733    1.5427    0.6747 C.3       1 ATP         0.3795
     22 N9          0.4520    2.5240    0.1767 N.pl3     1 ATP        -0.4175
     23 C8          0.2216    2.8192   -1.0985 C.ar      1 ATP         0.2552
     24 N7         -0.6906    3.7763   -1.2384 N.pl3     1 ATP        -0.4731
     25 C5         -1.0575    4.1037    0.0366 C.ar      1 ATP        -0.1295
     26 C6         -2.0291    5.0943    0.5330 C.ar      1 ATP         0.7196
     27 N6         -2.7093    5.8371   -0.2800 N.2       1 ATP        -0.8094
     28 N1         -2.1051    5.1136    1.9204 N.pl3     1 ATP        -0.8312
     29 C2         -1.3354    4.2774    2.7129 C.ar      1 ATP         0.6744
     30 N3         -0.4707    3.3945    2.2944 N.2       1 ATP        -0.5937
     31 C4         -0.3734    3.3525    0.9220 C.ar      1 ATP         0.2810
     32 HOG3        6.7723    2.4794   -5.7638 H         1 ATP         0.4152
     33 HOA2        0.7307   -1.9389   -4.4311 H         1 ATP         0.4571
     34 H5'1        2.8432    0.3119   -2.6398 H         1 ATP         0.0465
     35 H5'2        1.2128   -0.0927   -2.0428 H         1 ATP         0.0465
     36 H4'         3.8044   -0.1397   -0.4040 H         1 ATP         0.1379
     37 H3'         1.6764   -1.7639    0.2728 H         1 ATP         0.1317
     38 HO3'        2.2232   -1.2979    2.3953 H         1 ATP         0.4175
     39 H2'        -0.0011    0.0027    0.0003 H         1 ATP         0.0669
     40 HO2'       -0.1563   -0.9855    2.0596 H         1 ATP         0.4064
     41 H1'         1.7826    1.9024    1.6451 H         1 ATP         0.1285
     42 H8          0.7125    2.3429   -1.9292 H         1 ATP         0.2954
     43 HN62       -3.3217    6.4517    0.2629 H         1 ATP         0.4226
     44 H2         -1.5188    4.4223    3.7890 H         1 ATP         0.0826
     45 H45        -2.7470    5.7626    2.3665 H         1 ATP         0.4581
     46 H46        -1.0305    4.1680   -2.1054 H         1 ATP         0.5252
@<TRIPOS>BOND
     1    1    2 2
     2    1    3 1
     3    1    4 1
     4    1    8 1
     5    4   32 1
     6    5    6 2
     7    5    7 1
     8    5    8 1
     9    5   12 1
    10    9   10 2
    11    9   11 1
    12    9   12 1
    13    9   13 1
    14   11   33 1
    15   13   14 1
    16   14   15 1
    17   14   34 1
    18   14   35 1
    19   15   16 1
    20   15   17 1
    21   15   36 1
    22   16   21 1
    23   17   18 1
    24   17   19 1
    25   17   37 1
    26   18   38 1
    27   19   20 1
    28   19   21 1
    29   19   39 1
    30   20   40 1
    31   21   22 1
    32   21   41 1
    33   22   23 ar
    34   22   31 ar
    35   23   24 ar
    36   23   42 1
    37   24   25 ar
    38   24   46 1
    39   25   26 ar
    40   25   31 ar
    41   26   27 2
    42   26   28 ar
    43   27   43 1
    44   28   29 ar
    45   28   45 1
    46   29   30 ar
    47   29   44 1
    48   30   31 ar
@<TRIPOS>SUBSTRUCTURE
     1 ATP         1 GROUP 0 A     ****
@<TRIPOS>MOLECULE
[[[3,4-dihydroxy-5-(6-imino-7,8-dihydro-1~{H}-purin-8-ylium-9-yl)tetrahydrofuran-2-yl]methoxy-hydroxy-phosphoryl]oxy-oxido-phosphoryl] hydrogen phosphate
   46    48     1     0     0
SMALL
USER_CHARGES

@<TRIPOS>ATOM
      1 PG          0.8952   -4.1208   -7.7226 P.3       1 ATP         1.5644
      2 O1G         1.4887   -5.5024   -7.5598 O.co2     1 ATP        -0.8581
      3 O2G         1.1528   -3.3059   -8.9704 O.co2     1 ATP        -0.8581
      4 O3G        -0.7181   -4.2190   -7.4905 O.3       1 ATP        -0.7962
      5 PB          0.7855   -1.7301   -5.9806 P.3       1 ATP         1.6830
      6 O1B         1.3421   -0.7316   -6.9710 O.co2     1 ATP        -0.8633
      7 O2B        -0.6935   -1.7764   -5.6673 O.co2     1 ATP        -0.8633
      8 O3B         1.2762   -3.2241   -6.4151 O.3       1 ATP        -0.8097
      9 PA          1.5776   -2.4676   -3.2256 P.3       1 ATP         1.7610
     10 O1A         1.9399   -3.9114   -3.4201 O.2       1 ATP        -0.8554
     11 O2A         0.0775   -2.2267   -2.6692 O.3       1 ATP        -0.8102
     12 O3A         1.6142   -1.5868   -4.5819 O.3       1 ATP        -0.7693
     13 O5'         2.5245   -1.6648   -2.1878 O.3       1 ATP        -0.5757
     14 C5'         2.2816   -0.2918   -1.9206 C.3       1 ATP         0.1911
     15 C4'         2.7248    0.0226   -0.4980 C.3       1 ATP         0.1218
     16 O4'         2.4697    1.4219   -0.2462 O.3       1 ATP        -0.4138
     17 C3'         1.9404   -0.7419    0.5596 C.3       1 ATP         0.1338
     18 O3'         2.7418   -0.8086    1.7389 O.3       1 ATP        -0.5756
     19 C2'         0.7477    0.1630    0.7858 C.3       1 ATP         0.0673
     20 O2'         0.1373   -0.0577    2.0407 O.3       1 ATP        -0.5671
     21 C1'         1.3733    1.5427    0.6747 C.3       1 ATP         0.3795
     22 N9          0.4520    2.5240    0.1767 N.pl3     1 ATP        -0.4175
     23 C8          0.2216    2.8192   -1.0985 C.ar      1 ATP         0.2552
     24 N7         -0.6906    3.7763   -1.2384 N.pl3     1 ATP        -0.4731
     25 C5         -1.0575    4.1037    0.0366 C.ar      1 ATP        -0.1295
     26 C6         -2.0291    5.0943    0.5330 C.ar      1 ATP         0.7196
     27 N6         -2.7093    5.8371   -0.2800 N.2       1 ATP        -0.8094
     28 N1         -2.1051    5.1136    1.9204 N.pl3     1 ATP        -0.8312
     29 C2         -1.3354    4.2774    2.7129 C.ar      1 ATP         0.6744
     30 N3         -0.4707    3.3945    2.2944 N.2       1 ATP        -0.5937
     31 C4         -0.3734    3.3525    0.9220 C.ar      1 ATP         0.2810
     32 HOG3       -1.2508   -3.3984   -7.5632 H         1 ATP         0.4152
     33 HOA2       -0.1740   -2.6106   -1.8022 H         1 ATP         0.4571
     34 H5'1        2.8432    0.3119   -2.6398 H         1 ATP         0.0465
     35 H5'2        1.2128   -0.0927   -2.0428 H         1 ATP         0.0465
     36 H4'         3.8044   -0.1397   -0.4040 H         1 ATP         0.1379
     37 H3'         1.6764   -1.7639    0.2728 H         1 ATP         0.1317
     38 HO3'        2.2232   -1.2979    2.3953 H         1 ATP         0.4175
     39 H2'        -0.0011    0.0027    0.0003 H         1 ATP         0.0669
     40 HO2'       -0.6141    0.5574    2.1082 H         1 ATP         0.4064
     41 H1'         1.7826    1.9024    1.6451 H         1 ATP         0.1285
     42 H8          0.7125    2.3429   -1.9292 H         1 ATP         0.2954
     43 HN62       -3.3217    6.4517    0.2629 H         1 ATP         0.4226
     44 H2         -1.5188    4.4223    3.7890 H         1 ATP         0.0826
     45 H45        -2.7470    5.7626    2.3665 H         1 ATP         0.4581
     46 H46        -1.0305    4.1680   -2.1054 H         1 ATP         0.5252
@<TRIPOS>BOND
     1    1    2 2
     2    1    3 1
     3    1    4 1
     4    1    8 1
     5    4   32 1
     6    5    6 2
     7    5    7 1
     8    5    8 1
     9    5   12 1
    10    9   10 2
    11    9   11 1
    12    9   12 1
    13    9   13 1
    14   11   33 1
    15   13   14 1
    16   14   15 1
    17   14   34 1
    18   14   35 1
    19   15   16 1
    20   15   17 1
    21   15   36 1
    22   16   21 1
    23   17   18 1
    24   17   19 1
    25   17   37 1
    26   18   38 1
    27   19   20 1
    28   19   21 1
    29   19   39 1
    30   20   40 1
    31   21   22 1
    32   21   41 1
    33   22   23 ar
    34   22   31 ar
    35   23   24 ar
    36   23   42 1
    37   24   25 ar
    38   24   46 1
    39   25   26 ar
    40   25   31 ar
    41   26   27 2
    42   26   28 ar
    43   27   43 1
    44   28   29 ar
    45   28   45 1
    46   29   30 ar
    47   29   44 1
    48   30   31 ar
@<TRIPOS>SUBSTRUCTURE
     1 ATP         1 GROUP 0 A     ****
@<TRIPOS>MOLECULE
[[[3,4-dihydroxy-5-(6-imino-7,8-dihydro-1~{H}-purin-8-ylium-9-yl)tetrahydrofuran-2-yl]methoxy-hydroxy-phosphoryl]oxy-oxido-phosphoryl] hydrogen phosphate
   46    48     1     0     0
SMALL
USER_CHARGES

@<TRIPOS>ATOM
      1 PG          4.4320   -1.6539   -8.5362 P.3       1 ATP         1.5644
      2 O1G         3.2744   -2.1088   -9.3967 O.co2     1 ATP        -0.8581
      3 O2G         5.6883   -2.4879   -8.4187 O.co2     1 ATP        -0.8581
      4 O3G         4.8527   -0.1428   -8.9898 O.3       1 ATP        -0.7962
      5 PB          3.2596   -2.2994   -5.8960 P.3       1 ATP         1.6830
      6 O1B         1.9362   -2.8414   -6.3886 O.co2     1 ATP        -0.8633
      7 O2B         4.3511   -3.2279   -5.4120 O.co2     1 ATP        -0.8633
      8 O3B         3.8782   -1.3150   -7.0406 O.3       1 ATP        -0.8097
      9 PA          3.9521   -0.1769   -3.9527 P.3       1 ATP         1.7610
     10 O1A         4.6810    0.7861   -4.8443 O.2       1 ATP        -0.8554
     11 O2A         4.9166   -1.1746   -3.1207 O.3       1 ATP        -0.8102
     12 O3A         2.9635   -1.1884   -4.7377 O.3       1 ATP        -0.7693
     13 O5'         3.0213    0.5153   -2.8245 O.3       1 ATP        -0.5757
     14 C5'         2.2816   -0.2918   -1.9206 C.3       1 ATP         0.1911
     15 C4'         2.7248    0.0226   -0.4980 C.3       1 ATP         0.1218
     16 O4'         2.4697    1.4219   -0.2462 O.3       1 ATP        -0.4138
     17 C3'         1.9404   -0.7419    0.5596 C.3       1 ATP         0.1338
     18 O3'         2.7418   -0.8086    1.7389 O.3       1 ATP        -0.5756
     19 C2'         0.7477    0.1630    0.7858 C.3       1 ATP         0.0673
     20 O2'         0.1373   -0.0577    2.0407 O.3       1 ATP        -0.5671
     21 C1'         1.3733    1.5427    0.6747 C.3       1 ATP         0.3795
     22 N9          0.4520    2.5240    0.1767 N.pl3     1 ATP        -0.4175
     23 C8          0.2216    2.8192   -1.0985 C.ar      1 ATP         0.2552
     24 N7         -0.6906    3.7763   -1.2384 N.pl3     1 ATP        -0.4731
     25 C5         -1.0575    4.1037    0.0366 C.ar      1 ATP        -0.1295
     26 C6         -2.0291    5.0943    0.5330 C.ar      1 ATP         0.7196
     27 N6         -2.7093    5.8371   -0.2800 N.2       1 ATP        -0.8094
     28 N1         -2.1051    5.1136    1.9204 N.pl3     1 ATP        -0.8312
     29 C2         -1.3354    4.2774    2.7129 C.ar      1 ATP         0.6744
     30 N3         -0.4707    3.3945    2.2944 N.2       1 ATP        -0.5937
     31 C4         -0.3734    3.3525    0.9220 C.ar      1 ATP         0.2810
     32 HOG3        5.5950    0.2954   -8.5215 H         1 ATP         0.4152
     33 HOA2        5.5732   -0.7917   -2.5006 H         1 ATP         0.4571
     34 H5'1        1.2163   -0.0770   -2.0471 H         1 ATP         0.0465
     35 H5'2        2.4655   -1.3443   -2.1563 H         1 ATP         0.0465
     36 H4'         3.8044   -0.1397   -0.4040 H         1 ATP         0.1379
     37 H3'         1.6764   -1.7639    0.2728 H         1 ATP         0.1317
     38 HO3'        2.2232   -1.2979    2.3953 H         1 ATP         0.4175
     39 H2'        -0.0011    0.0027    0.0003 H         1 ATP         0.0669
     40 HO2'       -0.6141    0.5574    2.1082 H         1 ATP         0.4064
     41 H1'         1.7826    1.9024    1.6451 H         1 ATP         0.1285
     42 H8          0.7125    2.3429   -1.9292 H         1 ATP         0.2954
     43 HN62       -3.3217    6.4517    0.2629 H         1 ATP         0.4226
     44 H2         -1.5188    4.4223    3.7890 H         1 ATP         0.0826
     45 H45        -2.7470    5.7626    2.3665 H         1 ATP         0.4581
     46 H46        -1.0305    4.1680   -2.1054 H         1 ATP         0.5252
@<TRIPOS>BOND
     1    1    2 2
     2    1    3 1
     3    1    4 1
     4    1    8 1
     5    4   32 1
     6    5    6 2
     7    5    7 1
     8    5    8 1
     9    5   12 1
    10    9   10 2
    11    9   11 1
    12    9   12 1
    13    9   13 1
    14   11   33 1
    15   13   14 1
    16   14   15 1
    17   14   34 1
    18   14   35 1
    19   15   16 1
    20   15   17 1
    21   15   36 1
    22   16   21 1
    23   17   18 1
    24   17   19 1
    25   17   37 1
    26   18   38 1
    27   19   20 1
    28   19   21 1
    29   19   39 1
    30   20   40 1
    31   21   22 1
    32   21   41 1
    33   22   23 ar
    34   22   31 ar
    35   23   24 ar
    36   23   42 1
    37   24   25 ar
    38   24   46 1
    39   25   26 ar
    40   25   31 ar
    41   26   27 2
    42   26   28 ar
    43   27   43 1
    44   28   29 ar
    45   28   45 1
    46   29   30 ar
    47   29   44 1
    48   30   31 ar
@<TRIPOS>SUBSTRUCTURE
     1 ATP         1 GROUP 0 A     ****
@<TRIPOS>MOLECULE
[[[3,4-dihydroxy-5-(6-imino-7,8-dihydro-1~{H}-purin-8-ylium-9-yl)tetrahydrofuran-2-yl]methoxy-hydroxy-phosphoryl]oxy-oxido-phosphoryl] hydrogen phosphate
   46    48     1     0     0
SMALL
USER_CHARGES

@<TRIPOS>ATOM
      1 PG         -1.2973   -1.7447   -7.1274 P.3       1 ATP         1.5644
      2 O1G        -1.1154   -1.1474   -8.5050 O.co2     1 ATP        -0.8581
      3 O2G        -2.6275   -1.6601   -6.4126 O.co2     1 ATP        -0.8581
      4 O3G        -0.8323   -3.3092   -7.1751 O.3       1 ATP        -0.7962
      5 PB          1.4920   -1.1615   -6.3264 P.3       1 ATP         1.6830
      6 O1B         1.9927   -2.5880   -6.2815 O.co2     1 ATP        -0.8633
      7 O2B         1.8455   -0.2466   -7.4778 O.co2     1 ATP        -0.8633
      8 O3B        -0.1292   -1.1723   -6.1443 O.3       1 ATP        -0.8097
      9 PA          3.3429   -0.0249   -4.3155 P.3       1 ATP         1.7610
     10 O1A         4.1316    0.9232   -5.1715 O.2       1 ATP        -0.8554
     11 O2A         4.0556   -1.4579   -4.0783 O.3       1 ATP        -0.8102
     12 O3A         1.9004   -0.4266   -4.9275 O.3       1 ATP        -0.7693
     13 O5'         3.0213    0.5153   -2.8245 O.3       1 ATP        -0.5757
     14 C5'         2.2816   -0.2918   -1.9206 C.3       1 ATP         0.1911
     15 C4'         2.7248    0.0226   -0.4980 C.3       1 ATP         0.1218
     16 O4'         2.4697    1.4219   -0.2462 O.3       1 ATP        -0.4138
     17 C3'         1.9404   -0.7419    0.5596 C.3       1 ATP         0.1338
     18 O3'         2.7418   -0.8086    1.7389 O.3       1 ATP        -0.5756
     19 C2'         0.7477    0.1630    0.7858 C.3       1 ATP         0.0673
     20 O2'         0.1373   -0.0577    2.0407 O.3       1 ATP        -0.5671
     21 C1'         1.3733    1.5427    0.6747 C.3       1 ATP         0.3795
     22 N9          0.4520    2.5240    0.1767 N.pl3     1 ATP        -0.4175
     23 C8          0.2216    2.8192   -1.0985 C.ar      1 ATP         0.2552
     24 N7         -0.6906    3.7763   -1.2384 N.pl3     1 ATP        -0.4731
     25 C5         -1.0575    4.1037    0.0366 C.ar      1 ATP        -0.1295
     26 C6         -2.0291    5.0943    0.5330 C.ar      1 ATP         0.7196
     27 N6         -2.7093    5.8371   -0.2800 N.2       1 ATP        -0.8094
     28 N1         -2.1051    5.1136    1.9204 N.pl3     1 ATP        -0.8312
     29 C2         -1.3354    4.2774    2.7129 C.ar      1 ATP         0.6744
     30 N3         -0.4707    3.3945    2.2944 N.2       1 ATP        -0.5937
     31 C4         -0.3734    3.3525    0.9220 C.ar      1 ATP         0.2810
     32 HOG3       -0.8910   -3.8389   -6.3515 H         1 ATP         0.4152
     33 HOA2        4.2608   -2.0199   -4.8557 H         1 ATP         0.4571
     34 H5'1        1.2163   -0.0770   -2.0471 H         1 ATP         0.0465
     35 H5'2        2.4655   -1.3443   -2.1563 H         1 ATP         0.0465
     36 H4'         3.8044   -0.1397   -0.4040 H         1 ATP         0.1379
     37 H3'         1.6764   -1.7639    0.2728 H         1 ATP         0.1317
     38 HO3'        2.2232   -1.2979    2.3953 H         1 ATP         0.4175
     39 H2'        -0.0011    0.0027    0.0003 H         1 ATP         0.0669
     40 HO2'       -0.6141    0.5574    2.1082 H         1 ATP         0.4064
     41 H1'         1.7826    1.9024    1.6451 H         1 ATP         0.1285
     42 H8          0.7125    2.3429   -1.9292 H         1 ATP         0.2954
     43 HN62       -3.3217    6.4517    0.2629 H         1 ATP         0.4226
     44 H2         -1.5188    4.4223    3.7890 H         1 ATP         0.0826
     45 H45        -2.7470    5.7626    2.3665 H         1 ATP         0.4581
     46 H46        -1.0305    4.1680   -2.1054 H         1 ATP         0.5252
@<TRIPOS>BOND
     1    1    2 2
     2    1    3 1
     3    1    4 1
     4    1    8 1
     5    4   32 1
     6    5    6 2
     7    5    7 1
     8    5    8 1
     9    5   12 1
    10    9   10 2
    11    9   11 1
    12    9   12 1
    13    9   13 1
    14   11   33 1
    15   13   14 1
    16   14   15 1
    17   14   34 1
    18   14   35 1
    19   15   16 1
    20   15   17 1
    21   15   36 1
    22   16   21 1
    23   17   18 1
    24   17   19 1
    25   17   37 1
    26   18   38 1
    27   19   20 1
    28   19   21 1
    29   19   39 1
    30   20   40 1
    31   21   22 1
    32   21   41 1
    33   22   23 ar
    34   22   31 ar
    35   23   24 ar
    36   23   42 1
    37   24   25 ar
    38   24   46 1
    39   25   26 ar
    40   25   31 ar
    41   26   27 2
    42   26   28 ar
    43   27   43 1
    44   28   29 ar
    45   28   45 1
    46   29   30 ar
    47   29   44 1
    48   30   31 ar
@<TRIPOS>SUBSTRUCTURE
     1 ATP         1 GROUP 0 A     ****
@<TRIPOS>MOLECULE
[[[3,4-dihydroxy-5-(6-imino-7,8-dihydro-1~{H}-purin-8-ylium-9-yl)tetrahydrofuran-2-yl]methoxy-hydroxy-phosphoryl]oxy-oxido-phosphoryl] hydrogen phosphate
   46    48     1     0     0
SMALL
USER_CHARGES

@<TRIPOS>ATOM
      1 PG          6.7737    1.2189   -2.1351 P.3       1 ATP         1.5644
      2 O1G         6.7037    1.4301   -0.6391 O.co2     1 ATP        -0.8581
      3 O2G         5.6497    1.6753   -3.0383 O.co2     1 ATP        -0.8581
      4 O3G         8.1726    1.8576   -2.6840 O.3       1 ATP        -0.7962
      5 PB          6.1786   -1.6806   -2.1686 P.3       1 ATP         1.6830
      6 O1B         6.8738   -2.8739   -2.7855 O.co2     1 ATP        -0.8633
      7 O2B         5.7471   -1.6928   -0.7190 O.co2     1 ATP        -0.8633
      8 O3B         7.0891   -0.3529   -2.4331 O.3       1 ATP        -0.8097
      9 PA          3.5156   -2.0921   -3.3934 P.3       1 ATP         1.7610
     10 O1A         3.6877   -3.5728   -3.5714 O.2       1 ATP        -0.8554
     11 O2A         2.9211   -1.3302   -4.6911 O.3       1 ATP        -0.8102
     12 O3A         4.8921   -1.2960   -3.0962 O.3       1 ATP        -0.7693
     13 O5'         2.5245   -1.6648   -2.1878 O.3       1 ATP        -0.5757
     14 C5'         2.2816   -0.2918   -1.9206 C.3       1 ATP         0.1911
     15 C4'         2.7248    0.0226   -0.4980 C.3       1 ATP         0.1218
     16 O4'         2.4697    1.4219   -0.2462 O.3       1 ATP        -0.4138
     17 C3'         1.9404   -0.7419    0.5596 C.3       1 ATP         0.1338
     18 O3'         2.7418   -0.8086    1.7389 O.3       1 ATP        -0.5756
     19 C2'         0.7477    0.1630    0.7858 C.3       1 ATP         0.0673
     20 O2'         0.1373   -0.0577    2.0407 O.3       1 ATP        -0.5671
     21 C1'         1.3733    1.5427    0.6747 C.3       1 ATP         0.3795
     22 N9          0.4520    2.5240    0.1767 N.pl3     1 ATP        -0.4175
     23 C8          0.2216    2.8192   -1.0985 C.ar      1 ATP         0.2552
     24 N7         -0.6906    3.7763   -1.2384 N.pl3     1 ATP        -0.4731
     25 C5         -1.0575    4.1037    0.0366 C.ar      1 ATP        -0.1295
     26 C6         -2.0291    5.0943    0.5330 C.ar      1 ATP         0.7196
     27 N6         -2.7093    5.8371   -0.2800 N.2       1 ATP        -0.8094
     28 N1         -2.1051    5.1136    1.9204 N.pl3     1 ATP        -0.8312
     29 C2         -1.3354    4.2774    2.7129 C.ar      1 ATP         0.6744
     30 N3         -0.4707    3.3945    2.2944 N.2       1 ATP        -0.5937
     31 C4         -0.3734    3.3525    0.9220 C.ar      1 ATP         0.2810
     32 HOG3        8.3671    1.8000   -3.6438 H         1 ATP         0.4152
     33 HOA2        2.0387   -1.5908   -5.0310 H         1 ATP         0.4571
     34 H5'1        2.8432    0.3119   -2.6398 H         1 ATP         0.0465
     35 H5'2        1.2128   -0.0927   -2.0428 H         1 ATP         0.0465
     36 H4'         3.8044   -0.1397   -0.4040 H         1 ATP         0.1379
     37 H3'         1.6764   -1.7639    0.2728 H         1 ATP         0.1317
     38 HO3'        2.2232   -1.2979    2.3953 H         1 ATP         0.4175
     39 H2'        -0.0011    0.0027    0.0003 H         1 ATP         0.0669
     40 HO2'       -0.6141    0.5574    2.1082 H         1 ATP         0.4064
     41 H1'         1.7826    1.9024    1.6451 H         1 ATP         0.1285
     42 H8          0.7125    2.3429   -1.9292 H         1 ATP         0.2954
     43 HN62       -3.3217    6.4517    0.2629 H         1 ATP         0.4226
     44 H2         -1.5188    4.4223    3.7890 H         1 ATP         0.0826
     45 H45        -2.7470    5.7626    2.3665 H         1 ATP         0.4581
     46 H46        -1.0305    4.1680   -2.1054 H         1 ATP         0.5252
@<TRIPOS>BOND
     1    1    2 2
     2    1    3 1
     3    1    4 1
     4    1    8 1
     5    4   32 1
     6    5    6 2
     7    5    7 1
     8    5    8 1
     9    5   12 1
    10    9   10 2
    11    9   11 1
    12    9   12 1
    13    9   13 1
    14   11   33 1
    15   13   14 1
    16   14   15 1
    17   14   34 1
    18   14   35 1
    19   15   16 1
    20   15   17 1
    21   15   36 1
    22   16   21 1
    23   17   18 1
    24   17   19 1
    25   17   37 1
    26   18   38 1
    27   19   20 1
    28   19   21 1
    29   19   39 1
    30   20   40 1
    31   21   22 1
    32   21   41 1
    33   22   23 ar
    34   22   31 ar
    35   23   24 ar
    36   23   42 1
    37   24   25 ar
    38   24   46 1
    39   25   26 ar
    40   25   31 ar
    41   26   27 2
    42   26   28 ar
    43   27   43 1
    44   28   29 ar
    45   28   45 1
    46   29   30 ar
    47   29   44 1
    48   30   31 ar
@<TRIPOS>SUBSTRUCTURE
     1 ATP         1 GROUP 0 A     ****
@<TRIPOS>MOLECULE
[[[3,4-dihydroxy-5-(6-imino-7,8-dihydro-1~{H}-purin-8-ylium-9-yl)tetrahydrofuran-2-yl]methoxy-hydroxy-phosphoryl]oxy-oxido-phosphoryl] hydrogen phosphate
   46    48     1     0     0
SMALL
USER_CHARGES

@<TRIPOS>ATOM
      1 PG          5.5485   -1.0198   -5.5829 P.3       1 ATP         1.5644
      2 O1G         6.4757   -0.8457   -4.4007 O.co2     1 ATP        -0.8581
      3 O2G         5.5398   -0.0205   -6.7181 O.co2     1 ATP        -0.8581
      4 O3G         5.7777   -2.5115   -6.2062 O.3       1 ATP        -0.7962
      5 PB          2.6551   -1.5897   -5.8389 P.3       1 ATP         1.6830
      6 O1B         2.3020   -0.4393   -6.7553 O.co2     1 ATP        -0.8633
      7 O2B         2.7736   -3.0012   -6.3692 O.co2     1 ATP        -0.8633
      8 O3B         4.0249   -1.2148   -5.0359 O.3       1 ATP        -0.8097
      9 PA          1.5776   -2.4676   -3.2256 P.3       1 ATP         1.7610
     10 O1A         1.9399   -3.9114   -3.4201 O.2       1 ATP        -0.8554
     11 O2A         0.0775   -2.2267   -2.6692 O.3       1 ATP        -0.8102
     12 O3A         1.6142   -1.5868   -4.5819 O.3       1 ATP        -0.7693
     13 O5'         2.5245   -1.6648   -2.1878 O.3       1 ATP        -0.5757
     14 C5'         2.2816   -0.2918   -1.9206 C.3       1 ATP         0.1911
     15 C4'         2.7248    0.0226   -0.4980 C.3       1 ATP         0.1218
     16 O4'         2.4697    1.4219   -0.2462 O.3       1 ATP        -0.4138
     17 C3'         1.9404   -0.7419    0.5596 C.3       1 ATP         0.1338
     18 O3'         2.7418   -0.8086    1.7389 O.3       1 ATP        -0.5756
     19 C2'         0.7477    0.1630    0.7858 C.3       1 ATP         0.0673
     20 O2'         0.1373   -0.0577    2.0407 O.3       1 ATP        -0.5671
     21 C1'         1.3733    1.5427    0.6747 C.3       1 ATP         0.3795
     22 N9          0.4520    2.5240    0.1767 N.pl3     1 ATP        -0.4175
     23 C8          0.2216    2.8192   -1.0985 C.ar      1 ATP         0.2552
     24 N7         -0.6906    3.7763   -1.2384 N.pl3     1 ATP        -0.4731
     25 C5         -1.0575    4.1037    0.0366 C.ar      1 ATP        -0.1295
     26 C6         -2.0291    5.0943    0.5330 C.ar      1 ATP         0.7196
     27 N6         -2.7093    5.8371   -0.2800 N.2       1 ATP        -0.8094
     28 N1         -2.1051    5.1136    1.9204 N.pl3     1 ATP        -0.8312
     29 C2         -1.3354    4.2774    2.7129 C.ar      1 ATP         0.6744
     30 N3         -0.4707    3.3945    2.2944 N.2       1 ATP        -0.5937
     31 C4         -0.3734    3.3525    0.9220 C.ar      1 ATP         0.2810
     32 HOG3        5.2448   -2.7787   -6.9853 H         1 ATP         0.4152
     33 HOA2       -0.1740   -2.6106   -1.8022 H         1 ATP         0.4571
     34 H5'1        2.8432    0.3119   -2.6398 H         1 ATP         0.0465
     35 H5'2        1.2128   -0.0927   -2.0428 H         1 ATP         0.0465
     36 H4'         3.8044   -0.1397   -0.4040 H         1 ATP         0.1379
     37 H3'         1.6764   -1.7639    0.2728 H         1 ATP         0.1317
     38 HO3'        2.2232   -1.2979    2.3953 H         1 ATP         0.4175
     39 H2'        -0.0011    0.0027    0.0003 H         1 ATP         0.0669
     40 HO2'       -0.1563   -0.9855    2.0596 H         1 ATP         0.4064
     41 H1'         1.7826    1.9024    1.6451 H         1 ATP         0.1285
     42 H8          0.7125    2.3429   -1.9292 H         1 ATP         0.2954
     43 HN62       -3.3217    6.4517    0.2629 H         1 ATP         0.4226
     44 H2         -1.5188    4.4223    3.7890 H         1 ATP         0.0826
     45 H45        -2.7470    5.7626    2.3665 H         1 ATP         0.4581
     46 H46        -1.0305    4.1680   -2.1054 H         1 ATP         0.5252
@<TRIPOS>BOND
     1    1    2 2
     2    1    3 1
     3    1    4 1
     4    1    8 1
     5    4   32 1
     6    5    6 2
     7    5    7 1
     8    5    8 1
     9    5   12 1
    10    9   10 2
    11    9   11 1
    12    9   12 1
    13    9   13 1
    14   11   33 1
    15   13   14 1
    16   14   15 1
    17   14   34 1
    18   14   35 1
    19   15   16 1
    20   15   17 1
    21   15   36 1
    22   16   21 1
    23   17   18 1
    24   17   19 1
    25   17   37 1
    26   18   38 1
    27   19   20 1
    28   19   21 1
    29   19   39 1
    30   20   40 1
    31   21   22 1
    32   21   41 1
    33   22   23 ar
    34   22   31 ar
    35   23   24 ar
    36   23   42 1
    37   24   25 ar
    38   24   46 1
    39   25   26 ar
    40   25   31 ar
    41   26   27 2
    42   26   28 ar
    43   27   43 1
    44   28   29 ar
    45   28   45 1
    46   29   30 ar
    47   29   44 1
    48   30   31 ar
@<TRIPOS>SUBSTRUCTURE
     1 ATP         1 GROUP 0 A     ****
@<TRIPOS>MOLECULE
[[[3,4-dihydroxy-5-(6-imino-7,8-dihydro-1~{H}-purin-8-ylium-9-yl)tetrahydrofuran-2-yl]methoxy-hydroxy-phosphoryl]oxy-oxido-phosphoryl] hydrogen phosphate
   46    48     1     0     0
SMALL
USER_CHARGES

@<TRIPOS>ATOM
      1 PG          2.1479   -0.0854   -9.0048 P.3       1 ATP         1.5644
      2 O1G         2.7123   -1.4026   -9.4884 O.co2     1 ATP        -0.8581
      3 O2G         2.7164    1.2293   -9.4904 O.co2     1 ATP        -0.8581
      4 O3G         0.5366   -0.0834   -9.2692 O.3       1 ATP        -0.7962
      5 PB          1.4920   -1.1615   -6.3264 P.3       1 ATP         1.6830
      6 O1B        -0.0144   -1.1334   -6.4597 O.co2     1 ATP        -0.8633
      7 O2B         2.2607   -2.4594   -6.4366 O.co2     1 ATP        -0.8633
      8 O3B         2.1281   -0.0850   -7.3744 O.3       1 ATP        -0.8097
      9 PA          3.3429   -0.0249   -4.3155 P.3       1 ATP         1.7610
     10 O1A         4.1316    0.9232   -5.1715 O.2       1 ATP        -0.8554
     11 O2A         4.0556   -1.4579   -4.0783 O.3       1 ATP        -0.8102
     12 O3A         1.9004   -0.4266   -4.9275 O.3       1 ATP        -0.7693
     13 O5'         3.0213    0.5153   -2.8245 O.3       1 ATP        -0.5757
     14 C5'         2.2816   -0.2918   -1.9206 C.3       1 ATP         0.1911
     15 C4'         2.7248    0.0226   -0.4980 C.3       1 ATP         0.1218
     16 O4'         2.4697    1.4219   -0.2462 O.3       1 ATP        -0.4138
     17 C3'         1.9404   -0.7419    0.5596 C.3       1 ATP         0.1338
     18 O3'         2.7418   -0.8086    1.7389 O.3       1 ATP        -0.5756
     19 C2'         0.7477    0.1630    0.7858 C.3       1 ATP         0.0673
     20 O2'         0.1373   -0.0577    2.0407 O.3       1 ATP        -0.5671
     21 C1'         1.3733    1.5427    0.6747 C.3       1 ATP         0.3795
     22 N9          0.4520    2.5240    0.1767 N.pl3     1 ATP        -0.4175
     23 C8          0.2216    2.8192   -1.0985 C.ar      1 ATP         0.2552
     24 N7         -0.6906    3.7763   -1.2384 N.pl3     1 ATP        -0.4731
     25 C5         -1.0575    4.1037    0.0366 C.ar      1 ATP        -0.1295
     26 C6         -2.0291    5.0943    0.5330 C.ar      1 ATP         0.7196
     27 N6         -2.7093    5.8371   -0.2800 N.2       1 ATP        -0.8094
     28 N1         -2.1051    5.1136    1.9204 N.pl3     1 ATP        -0.8312
     29 C2         -1.3354    4.2774    2.7129 C.ar      1 ATP         0.6744
     30 N3         -0.4707    3.3945    2.2944 N.2       1 ATP        -0.5937
     31 C4         -0.3734    3.3525    0.9220 C.ar      1 ATP         0.2810
     32 HOG3        0.0216    0.7093   -9.0071 H         1 ATP         0.4152
     33 HOA2        4.9339   -1.4843   -3.6423 H         1 ATP         0.4571
     34 H5'1        1.2163   -0.0770   -2.0471 H         1 ATP         0.0465
     35 H5'2        2.4655   -1.3443   -2.1563 H         1 ATP         0.0465
     36 H4'         3.8044   -0.1397   -0.4040 H         1 ATP         0.1379
     37 H3'         1.6764   -1.7639    0.2728 H         1 ATP         0.1317
     38 HO3'        2.2232   -1.2979    2.3953 H         1 ATP         0.4175
     39 H2'        -0.0011    0.0027    0.0003 H         1 ATP         0.0669
     40 HO2'       -0.6141    0.5574    2.1082 H         1 ATP         0.4064
     41 H1'         1.7826    1.9024    1.6451 H         1 ATP         0.1285
     42 H8          0.7125    2.3429   -1.9292 H         1 ATP         0.2954
     43 HN62       -3.3217    6.4517    0.2629 H         1 ATP         0.4226
     44 H2         -1.5188    4.4223    3.7890 H         1 ATP         0.0826
     45 H45        -2.7470    5.7626    2.3665 H         1 ATP         0.4581
     46 H46        -1.0305    4.1680   -2.1054 H         1 ATP         0.5252
@<TRIPOS>BOND
     1    1    2 2
     2    1    3 1
     3    1    4 1
     4    1    8 1
     5    4   32 1
     6    5    6 2
     7    5    7 1
     8    5    8 1
     9    5   12 1
    10    9   10 2
    11    9   11 1
    12    9   12 1
    13    9   13 1
    14   11   33 1
    15   13   14 1
    16   14   15 1
    17   14   34 1
    18   14   35 1
    19   15   16 1
    20   15   17 1
    21   15   36 1
    22   16   21 1
    23   17   18 1
    24   17   19 1
    25   17   37 1
    26   18   38 1
    27   19   20 1
    28   19   21 1
    29   19   39 1
    30   20   40 1
    31   21   22 1
    32   21   41 1
    33   22   23 ar
    34   22   31 ar
    35   23   24 ar
    36   23   42 1
    37   24   25 ar
    38   24   46 1
    39   25   26 ar
    40   25   31 ar
    41   26   27 2
    42   26   28 ar
    43   27   43 1
    44   28   29 ar
    45   28   45 1
    46   29   30 ar
    47   29   44 1
    48   30   31 ar
@<TRIPOS>SUBSTRUCTURE
     1 ATP         1 GROUP 0 A     ****
@<TRIPOS>MOLECULE
[[[3,4-dihydroxy-5-(6-imino-7,8-dihydro-1~{H}-purin-8-ylium-9-yl)tetrahydrofuran-2-yl]methoxy-hydroxy-phosphoryl]oxy-oxido-phosphoryl] hydrogen phosphate
   46    48     1     0     0
SMALL
USER_CHARGES

@<TRIPOS>ATOM
      1 PG         -2.1658   -1.5991   -6.1674 P.3       1 ATP         1.5644
      2 O1G        -2.1337   -0.5972   -7.3000 O.co2     1 ATP        -0.8581
      3 O2G        -3.2762   -1.5768   -5.1408 O.co2     1 ATP        -0.8581
      4 O3G        -2.0749   -3.1012   -6.8012 O.3       1 ATP        -0.7962
      5 PB          0.7855   -1.7301   -5.9806 P.3       1 ATP         1.6830
      6 O1B         0.9591   -3.1410   -6.4973 O.co2     1 ATP        -0.8633
      7 O2B         1.0962   -0.5355   -6.8548 O.co2     1 ATP        -0.8633
      8 O3B        -0.7295   -1.5718   -5.3961 O.3       1 ATP        -0.8097
      9 PA          1.5776   -2.4676   -3.2256 P.3       1 ATP         1.7610
     10 O1A         1.9399   -3.9114   -3.4201 O.2       1 ATP        -0.8554
     11 O2A         0.0775   -2.2267   -2.6692 O.3       1 ATP        -0.8102
     12 O3A         1.6142   -1.5868   -4.5819 O.3       1 ATP        -0.7693
     13 O5'         2.5245   -1.6648   -2.1878 O.3       1 ATP        -0.5757
     14 C5'         2.2816   -0.2918   -1.9206 C.3       1 ATP         0.1911
     15 C4'         2.7248    0.0226   -0.4980 C.3       1 ATP         0.1218
     16 O4'         2.4697    1.4219   -0.2462 O.3       1 ATP        -0.4138
     17 C3'         1.9404   -0.7419    0.5596 C.3       1 ATP         0.1338
     18 O3'         2.7418   -0.8086    1.7389 O.3       1 ATP        -0.5756
     19 C2'         0.7477    0.1630    0.7858 C.3       1 ATP         0.0673
     20 O2'         0.1373   -0.0577    2.0407 O.3       1 ATP        -0.5671
     21 C1'         1.3733    1.5427    0.6747 C.3       1 ATP         0.3795
     22 N9          0.4520    2.5240    0.1767 N.pl3     1 ATP        -0.4175
     23 C8          0.2216    2.8192   -1.0985 C.ar      1 ATP         0.2552
     24 N7         -0.6906    3.7763   -1.2384 N.pl3     1 ATP        -0.4731
     25 C5         -1.0575    4.1037    0.0366 C.ar      1 ATP        -0.1295
     26 C6         -2.0291    5.0943    0.5330 C.ar      1 ATP         0.7196
     27 N6         -2.7093    5.8371   -0.2800 N.2       1 ATP        -0.8094
     28 N1         -2.1051    5.1136    1.9204 N.pl3     1 ATP        -0.8312
     29 C2         -1.3354    4.2774    2.7129 C.ar      1 ATP         0.6744
     30 N3         -0.4707    3.3945    2.2944 N.2       1 ATP        -0.5937
     31 C4         -0.3734    3.3525    0.9220 C.ar      1 ATP         0.2810
     32 HOG3       -2.0844   -3.8675   -6.1888 H         1 ATP         0.4152
     33 HOA2       -0.1740   -2.6106   -1.8022 H         1 ATP         0.4571
     34 H5'1        2.8432    0.3119   -2.6398 H         1 ATP         0.0465
     35 H5'2        1.2128   -0.0927   -2.0428 H         1 ATP         0.0465
     36 H4'         3.8044   -0.1397   -0.4040 H         1 ATP         0.1379
     37 H3'         1.6764   -1.7639    0.2728 H         1 ATP         0.1317
     38 HO3'        2.2232   -1.2979    2.3953 H         1 ATP         0.4175
     39 H2'        -0.0011    0.0027    0.0003 H         1 ATP         0.0669
     40 HO2'       -0.6141    0.5574    2.1082 H         1 ATP         0.4064
     41 H1'         1.7826    1.9024    1.6451 H         1 ATP         0.1285
     42 H8          0.7125    2.3429   -1.9292 H         1 ATP         0.2954
     43 HN62       -3.3217    6.4517    0.2629 H         1 ATP         0.4226
     44 H2         -1.5188    4.4223    3.7890 H         1 ATP         0.0826
     45 H45        -2.7470    5.7626    2.3665 H         1 ATP         0.4581
     46 H46        -1.0305    4.1680   -2.1054 H         1 ATP         0.5252
@<TRIPOS>BOND
     1    1    2 2
     2    1    3 1
     3    1    4 1
     4    1    8 1
     5    4   32 1
     6    5    6 2
     7    5    7 1
     8    5    8 1
     9    5   12 1
    10    9   10 2
    11    9   11 1
    12    9   12 1
    13    9   13 1
    14   11   33 1
    15   13   14 1
    16   14   15 1
    17   14   34 1
    18   14   35 1
    19   15   16 1
    20   15   17 1
    21   15   36 1
    22   16   21 1
    23   17   18 1
    24   17   19 1
    25   17   37 1
    26   18   38 1
    27   19   20 1
    28   19   21 1
    29   19   39 1
    30   20   40 1
    31   21   22 1
    32   21   41 1
    33   22   23 ar
    34   22   31 ar
    35   23   24 ar
    36   23   42 1
    37   24   25 ar
    38   24   46 1
    39   25   26 ar
    40   25   31 ar
    41   26   27 2
    42   26   28 ar
    43   27   43 1
    44   28   29 ar
    45   28   45 1
    46   29   30 ar
    47   29   44 1
    48   30   31 ar
@<TRIPOS>SUBSTRUCTURE
     1 ATP         1 GROUP 0 A     ****
@<TRIPOS>MOLECULE
[[[3,4-dihydroxy-5-(6-imino-7,8-dihydro-1~{H}-purin-8-ylium-9-yl)tetrahydrofuran-2-yl]methoxy-hydroxy-phosphoryl]oxy-oxido-phosphoryl] hydrogen phosphate
   46    48     1     0     0
SMALL
USER_CHARGES

@<TRIPOS>ATOM
      1 PG          5.0748   -4.6099   -5.5368 P.3       1 ATP         1.5644
      2 O1G         6.0746   -4.2611   -6.6167 O.co2     1 ATP        -0.8581
      3 O2G         4.0586   -5.7107   -5.7441 O.co2     1 ATP        -0.8581
      4 O3G         5.8891   -4.9090   -4.1534 O.3       1 ATP        -0.7962
      5 PB          3.2596   -2.2994   -5.8960 P.3       1 ATP         1.6830
      6 O1B         4.0088   -1.6263   -7.0244 O.co2     1 ATP        -0.8633
      7 O2B         1.9902   -3.0790   -6.1583 O.co2     1 ATP        -0.8633
      8 O3B         4.2993   -3.2518   -5.0753 O.3       1 ATP        -0.8097
      9 PA          3.9521   -0.1769   -3.9527 P.3       1 ATP         1.7610
     10 O1A         4.6810    0.7861   -4.8443 O.2       1 ATP        -0.8554
     11 O2A         4.9166   -1.1746   -3.1207 O.3       1 ATP        -0.8102
     12 O3A         2.9635   -1.1884   -4.7377 O.3       1 ATP        -0.7693
     13 O5'         3.0213    0.5153   -2.8245 O.3       1 ATP        -0.5757
     14 C5'         2.2816   -0.2918   -1.9206 C.3       1 ATP         0.1911
     15 C4'         2.7248    0.0226   -0.4980 C.3       1 ATP         0.1218
     16 O4'         2.4697    1.4219   -0.2462 O.3       1 ATP        -0.4138
     17 C3'         1.9404   -0.7419    0.5596 C.3       1 ATP         0.1338
     18 O3'         2.7418   -0.8086    1.7389 O.3       1 ATP        -0.5756
     19 C2'         0.7477    0.1630    0.7858 C.3       1 ATP         0.0673
     20 O2'         0.1373   -0.0577    2.0407 O.3       1 ATP        -0.5671
     21 C1'         1.3733    1.5427    0.6747 C.3       1 ATP         0.3795
     22 N9          0.4520    2.5240    0.1767 N.pl3     1 ATP        -0.4175
     23 C8          0.2216    2.8192   -1.0985 C.ar      1 ATP         0.2552
     24 N7         -0.6906    3.7763   -1.2384 N.pl3     1 ATP        -0.4731
     25 C5         -1.0575    4.1037    0.0366 C.ar      1 ATP        -0.1295
     26 C6         -2.0291    5.0943    0.5330 C.ar      1 ATP         0.7196
     27 N6         -2.7093    5.8371   -0.2800 N.2       1 ATP        -0.8094
     28 N1         -2.1051    5.1136    1.9204 N.pl3     1 ATP        -0.8312
     29 C2         -1.3354    4.2774    2.7129 C.ar      1 ATP         0.6744
     30 N3         -0.4707    3.3945    2.2944 N.2       1 ATP        -0.5937
     31 C4         -0.3734    3.3525    0.9220 C.ar      1 ATP         0.2810
     32 HOG3        5.3762   -5.1514   -3.3531 H         1 ATP         0.4152
     33 HOA2        5.5732   -0.7917   -2.5006 H         1 ATP         0.4571
     34 H5'1        1.2163   -0.0770   -2.0471 H         1 ATP         0.0465
     35 H5'2        2.4655   -1.3443   -2.1563 H         1 ATP         0.0465
     36 H4'         3.8044   -0.1397   -0.4040 H         1 ATP         0.1379
     37 H3'         1.6764   -1.7639    0.2728 H         1 ATP         0.1317
     38 HO3'        2.2232   -1.2979    2.3953 H         1 ATP         0.4175
     39 H2'        -0.0011    0.0027    0.0003 H         1 ATP         0.0669
     40 HO2'       -0.6141    0.5574    2.1082 H         1 ATP         0.4064
     41 H1'         1.7826    1.9024    1.6451 H         1 ATP         0.1285
     42 H8          0.7125    2.3429   -1.9292 H         1 ATP         0.2954
     43 HN62       -3.3217    6.4517    0.2629 H         1 ATP         0.4226
     44 H2         -1.5188    4.4223    3.7890 H         1 ATP         0.0826
     45 H45        -2.7470    5.7626    2.3665 H         1 ATP         0.4581
     46 H46        -1.0305    4.1680   -2.1054 H         1 ATP         0.5252
@<TRIPOS>BOND
     1    1    2 2
     2    1    3 1
     3    1    4 1
     4    1    8 1
     5    4   32 1
     6    5    6 2
     7    5    7 1
     8    5    8 1
     9    5   12 1
    10    9   10 2
    11    9   11 1
    12    9   12 1
    13    9   13 1
    14   11   33 1
    15   13   14 1
    16   14   15 1
    17   14   34 1
    18   14   35 1
    19   15   16 1
    20   15   17 1
    21   15   36 1
    22   16   21 1
    23   17   18 1
    24   17   19 1
    25   17   37 1
    26   18   38 1
    27   19   20 1
    28   19   21 1
    29   19   39 1
    30   20   40 1
    31   21   22 1
    32   21   41 1
    33   22   23 ar
    34   22   31 ar
    35   23   24 ar
    36   23   42 1
    37   24   25 ar
    38   24   46 1
    39   25   26 ar
    40   25   31 ar
    41   26   27 2
    42   26   28 ar
    43   27   43 1
    44   28   29 ar
    45   28   45 1
    46   29   30 ar
    47   29   44 1
    48   30   31 ar
@<TRIPOS>SUBSTRUCTURE
     1 ATP         1 GROUP 0 A     ****
@<TRIPOS>MOLECULE
[[[3,4-dihydroxy-5-(6-imino-7,8-dihydro-1~{H}-purin-8-ylium-9-yl)tetrahydrofuran-2-yl]methoxy-hydroxy-phosphoryl]oxy-oxido-phosphoryl] hydrogen phosphate
   46    48     1     0     0
SMALL
USER_CHARGES

@<TRIPOS>ATOM
      1 PG         -1.0902    1.2903   -6.9853 P.3       1 ATP         1.5644
      2 O1G        -1.6249   -0.1190   -7.1104 O.co2     1 ATP        -0.8581
      3 O2G        -0.5742    2.0365   -8.1954 O.co2     1 ATP        -0.8581
      4 O3G        -2.2217    2.2108   -6.2514 O.3       1 ATP        -0.7962
      5 PB          0.8430    2.5831   -5.1541 P.3       1 ATP         1.6830
      6 O1B         1.7414    3.1945   -6.2061 O.co2     1 ATP        -0.8633
      7 O2B        -0.1447    3.4307   -4.3836 O.co2     1 ATP        -0.8633
      8 O3B         0.0468    1.3229   -5.8171 O.3       1 ATP        -0.8097
      9 PA          2.8900    0.6162   -4.3161 P.3       1 ATP         1.7610
     10 O1A         4.0478    1.0418   -5.1716 O.2       1 ATP        -0.8554
     11 O2A         2.0339   -0.6169   -4.9198 O.3       1 ATP        -0.8102
     12 O3A         1.7740    1.7656   -4.0918 O.3       1 ATP        -0.7693
     13 O5'         3.2903    0.1346   -2.8241 O.3       1 ATP        -0.5757
     14 C5'         2.2816   -0.2918   -1.9206 C.3       1 ATP         0.1911
     15 C4'         2.7248    0.0226   -0.4980 C.3       1 ATP         0.1218
     16 O4'         2.4697    1.4219   -0.2462 O.3       1 ATP        -0.4138
     17 C3'         1.9404   -0.7419    0.5596 C.3       1 ATP         0.1338
     18 O3'         2.7418   -0.8086    1.7389 O.3       1 ATP        -0.5756
     19 C2'         0.7477    0.1630    0.7858 C.3       1 ATP         0.0673
     20 O2'         0.1373   -0.0577    2.0407 O.3       1 ATP        -0.5671
     21 C1'         1.3733    1.5427    0.6747 C.3       1 ATP         0.3795
     22 N9          0.4520    2.5240    0.1767 N.pl3     1 ATP        -0.4175
     23 C8         -0.2004    2.4829   -0.9804 C.ar      1 ATP         0.2552
     24 N7         -0.9830    3.5431   -1.1568 N.pl3     1 ATP        -0.4731
     25 C5         -0.8095    4.3012   -0.0331 C.ar      1 ATP        -0.1295
     26 C6         -1.4065    5.5904    0.3585 C.ar      1 ATP         0.7196
     27 N6         -2.2501    6.2030   -0.4084 N.2       1 ATP        -0.8094
     28 N1         -0.9585    6.0272    1.5994 N.pl3     1 ATP        -0.8312
     29 C2         -0.0508    5.3009    2.3532 C.ar      1 ATP         0.6744
     30 N3          0.4890    4.1592    2.0257 N.2       1 ATP        -0.5937
     31 C4          0.0637    3.7006    0.7995 C.ar      1 ATP         0.2810
     32 HOG3       -2.0232    3.1589   -6.0963 H         1 ATP         0.4152
     33 HOA2        1.6031   -0.5116   -5.7948 H         1 ATP         0.4571
     34 H5'1        1.3514    0.2330   -2.1577 H         1 ATP         0.0465
     35 H5'2        2.1280   -1.3678   -2.0460 H         1 ATP         0.0465
     36 H4'         3.8044   -0.1397   -0.4040 H         1 ATP         0.1379
     37 H3'         1.6764   -1.7639    0.2728 H         1 ATP         0.1317
     38 HO3'        2.2232   -1.2979    2.3953 H         1 ATP         0.4175
     39 H2'        -0.0011    0.0027    0.0003 H         1 ATP         0.0669
     40 HO2'       -0.6141    0.5574    2.1082 H         1 ATP         0.4064
     41 H1'         1.7826    1.9024    1.6451 H         1 ATP         0.1285
     42 H8         -0.1116    1.6863   -1.6984 H         1 ATP         0.2954
     43 HN62       -2.5420    7.0730    0.0447 H         1 ATP         0.4226
     44 H2          0.1969    5.7893    3.3086 H         1 ATP         0.0826
     45 H45        -1.3097    6.9080    1.9642 H         1 ATP         0.4581
     46 H46        -1.5735    3.7351   -1.9538 H         1 ATP         0.5252
@<TRIPOS>BOND
     1    1    2 2
     2    1    3 1
     3    1    4 1
     4    1    8 1
     5    4   32 1
     6    5    6 2
     7    5    7 1
     8    5    8 1
     9    5   12 1
    10    9   10 2
    11    9   11 1
    12    9   12 1
    13    9   13 1
    14   11   33 1
    15   13   14 1
    16   14   15 1
    17   14   34 1
    18   14   35 1
    19   15   16 1
    20   15   17 1
    21   15   36 1
    22   16   21 1
    23   17   18 1
    24   17   19 1
    25   17   37 1
    26   18   38 1
    27   19   20 1
    28   19   21 1
    29   19   39 1
    30   20   40 1
    31   21   22 1
    32   21   41 1
    33   22   23 ar
    34   22   31 ar
    35   23   24 ar
    36   23   42 1
    37   24   25 ar
    38   24   46 1
    39   25   26 ar
    40   25   31 ar
    41   26   27 2
    42   26   28 ar
    43   27   43 1
    44   28   29 ar
    45   28   45 1
    46   29   30 ar
    47   29   44 1
    48   30   31 ar
@<TRIPOS>SUBSTRUCTURE
     1 ATP         1 GROUP 0 A     ****
@<TRIPOS>MOLECULE
[[[3,4-dihydroxy-5-(6-imino-7,8-dihydro-1~{H}-purin-8-ylium-9-yl)tetrahydrofuran-2-yl]methoxy-hydroxy-phosphoryl]oxy-oxido-phosphoryl] hydrogen phosphate
   46    48     1     0     0
SMALL
USER_CHARGES

@<TRIPOS>ATOM
      1 PG          0.0281    4.3772   -6.7546 P.3       1 ATP         1.5644
      2 O1G         1.2215    5.0868   -7.3544 O.co2     1 ATP        -0.8581
      3 O2G        -1.1562    5.1567   -6.2279 O.co2     1 ATP        -0.8581
      4 O3G        -0.5133    3.2740   -7.8298 O.3       1 ATP        -0.7962
      5 PB         -0.2671    2.2365   -4.7317 P.3       1 ATP         1.6830
      6 O1B        -1.2486    2.9468   -3.8262 O.co2     1 ATP        -0.8633
      7 O2B        -0.7223    1.1375   -5.6659 O.co2     1 ATP        -0.8633
      8 O3B         0.5481    3.3547   -5.5958 O.3       1 ATP        -0.8097
      9 PA          2.3611    0.9709   -4.2298 P.3       1 ATP         1.7610
     10 O1A         3.2462    1.8212   -5.0942 O.2       1 ATP        -0.8554
     11 O2A         1.8893   -0.4146   -4.9195 O.3       1 ATP        -0.8102
     12 O3A         0.9632    1.6736   -3.8189 O.3       1 ATP        -0.7693
     13 O5'         3.0213    0.5153   -2.8245 O.3       1 ATP        -0.5757
     14 C5'         2.2816   -0.2918   -1.9206 C.3       1 ATP         0.1911
     15 C4'         2.7248    0.0226   -0.4980 C.3       1 ATP         0.1218
     16 O4'         2.4697    1.4219   -0.2462 O.3       1 ATP        -0.4138
     17 C3'         1.9404   -0.7419    0.5596 C.3       1 ATP         0.1338
     18 O3'         2.7418   -0.8086    1.7389 O.3       1 ATP        -0.5756
     19 C2'         0.7477    0.1630    0.7858 C.3       1 ATP         0.0673
     20 O2'         0.1373   -0.0577    2.0407 O.3       1 ATP        -0.5671
     21 C1'         1.3733    1.5427    0.6747 C.3       1 ATP         0.3795
     22 N9          0.4520    2.5240    0.1767 N.pl3     1 ATP        -0.4175
     23 C8          0.5691    3.2215   -0.9485 C.ar      1 ATP         0.2552
     24 N7         -0.4499    4.0551   -1.1342 N.pl3     1 ATP        -0.4731
     25 C5         -1.2618    3.8674   -0.0512 C.ar      1 ATP        -0.1295
     26 C6         -2.5420    4.5007    0.3120 C.ar      1 ATP         0.7196
     27 N6         -3.0874    5.3993   -0.4432 N.2       1 ATP        -0.8094
     28 N1         -3.0494    4.0205    1.5133 N.pl3     1 ATP        -0.8312
     29 C2         -2.3933    3.0527    2.2567 C.ar      1 ATP         0.6744
     30 N3         -1.2611    2.4796    1.9536 N.2       1 ATP        -0.5937
     31 C4         -0.7334    2.9358    0.7669 C.ar      1 ATP         0.2810
     32 HOG3       -1.2903    2.7269   -7.5860 H         1 ATP         0.4152
     33 HOA2        2.5715   -1.0618   -5.1984 H         1 ATP         0.4571
     34 H5'1        1.2163   -0.0770   -2.0471 H         1 ATP         0.0465
     35 H5'2        2.4655   -1.3443   -2.1563 H         1 ATP         0.0465
     36 H4'         3.8044   -0.1397   -0.4040 H         1 ATP         0.1379
     37 H3'         1.6764   -1.7639    0.2728 H         1 ATP         0.1317
     38 HO3'        2.2232   -1.2979    2.3953 H         1 ATP         0.4175
     39 H2'        -0.0011    0.0027    0.0003 H         1 ATP         0.0669
     40 HO2'       -0.1563   -0.9855    2.0596 H         1 ATP         0.4064
     41 H1'         1.7826    1.9024    1.6451 H         1 ATP         0.1285
     42 H8          1.3912    3.1285   -1.6365 H         1 ATP         0.2954
     43 HN62       -3.9637    5.7084   -0.0142 H         1 ATP         0.4226
     44 H2         -2.9317    2.7866    3.1796 H         1 ATP         0.0826
     45 H45        -3.9307    4.3923    1.8559 H         1 ATP         0.4581
     46 H46        -0.5835    4.6857   -1.9122 H         1 ATP         0.5252
@<TRIPOS>BOND
     1    1    2 2
     2    1    3 1
     3    1    4 1
     4    1    8 1
     5    4   32 1
     6    5    6 2
     7    5    7 1
     8    5    8 1
     9    5   12 1
    10    9   10 2
    11    9   11 1
    12    9   12 1
    13    9   13 1
    14   11   33 1
    15   13   14 1
    16   14   15 1
    17   14   34 1
    18   14   35 1
    19   15   16 1
    20   15   17 1
    21   15   36 1
    22   16   21 1
    23   17   18 1
    24   17   19 1
    25   17   37 1
    26   18   38 1
    27   19   20 1
    28   19   21 1
    29   19   39 1
    30   20   40 1
    31   21   22 1
    32   21   41 1
    33   22   23 ar
    34   22   31 ar
    35   23   24 ar
    36   23   42 1
    37   24   25 ar
    38   24   46 1
    39   25   26 ar
    40   25   31 ar
    41   26   27 2
    42   26   28 ar
    43   27   43 1
    44   28   29 ar
    45   28   45 1
    46   29   30 ar
    47   29   44 1
    48   30   31 ar
@<TRIPOS>SUBSTRUCTURE
     1 ATP         1 GROUP 0 A     ****
@<TRIPOS>MOLECULE
[[[3,4-dihydroxy-5-(6-imino-7,8-dihydro-1~{H}-purin-8-ylium-9-yl)tetrahydrofuran-2-yl]methoxy-hydroxy-phosphoryl]oxy-oxido-phosphoryl] hydrogen phosphate
   46    48     1     0     0
SMALL
USER_CHARGES

@<TRIPOS>ATOM
      1 PG         -0.1436   -1.9889   -7.4669 P.3       1 ATP         1.5644
      2 O1G        -1.6530   -1.8959   -7.4407 O.co2     1 ATP        -0.8581
      3 O2G         0.5529   -3.3314   -7.4599 O.co2     1 ATP        -0.8581
      4 O3G         0.4070   -1.1251   -8.7385 O.3       1 ATP        -0.7962
      5 PB          0.2012    0.4988   -5.9002 P.3       1 ATP         1.6830
      6 O1B         0.7799    1.3554   -7.0043 O.co2     1 ATP        -0.8633
      7 O2B        -1.2367    0.6607   -5.4597 O.co2     1 ATP        -0.8633
      8 O3B         0.4640   -1.0695   -6.2652 O.3       1 ATP        -0.8097
      9 PA          2.7605    0.3953   -4.4169 P.3       1 ATP         1.7610
     10 O1A         3.6064    1.3021   -5.2629 O.2       1 ATP        -0.8554
     11 O2A         2.9475   -1.1798   -4.7368 O.3       1 ATP        -0.8102
     12 O3A         1.1682    0.6209   -4.5912 O.3       1 ATP        -0.7693
     13 O5'         3.0213    0.5153   -2.8245 O.3       1 ATP        -0.5757
     14 C5'         2.2816   -0.2918   -1.9206 C.3       1 ATP         0.1911
     15 C4'         2.7248    0.0226   -0.4980 C.3       1 ATP         0.1218
     16 O4'         2.4697    1.4219   -0.2462 O.3       1 ATP        -0.4138
     17 C3'         1.9404   -0.7419    0.5596 C.3       1 ATP         0.1338
     18 O3'         2.7418   -0.8086    1.7389 O.3       1 ATP        -0.5756
     19 C2'         0.7477    0.1630    0.7858 C.3       1 ATP         0.0673
     20 O2'         0.1373   -0.0577    2.0407 O.3       1 ATP        -0.5671
     21 C1'         1.3733    1.5427    0.6747 C.3       1 ATP         0.3795
     22 N9          0.4520    2.5240    0.1767 N.pl3     1 ATP        -0.4175
     23 C8         -0.2004    2.4829   -0.9804 C.ar      1 ATP         0.2552
     24 N7         -0.9830    3.5431   -1.1568 N.pl3     1 ATP        -0.4731
     25 C5         -0.8095    4.3012   -0.0331 C.ar      1 ATP        -0.1295
     26 C6         -1.4065    5.5904    0.3585 C.ar      1 ATP         0.7196
     27 N6         -2.2501    6.2030   -0.4084 N.2       1 ATP        -0.8094
     28 N1         -0.9585    6.0272    1.5994 N.pl3     1 ATP        -0.8312
     29 C2         -0.0508    5.3009    2.3532 C.ar      1 ATP         0.6744
     30 N3          0.4890    4.1592    2.0257 N.2       1 ATP        -0.5937
     31 C4          0.0637    3.7006    0.7995 C.ar      1 ATP         0.2810
     32 HOG3        1.3750   -1.0870   -8.8927 H         1 ATP         0.4152
     33 HOA2        2.7451   -1.5077   -5.6388 H         1 ATP         0.4571
     34 H5'1        1.2163   -0.0770   -2.0471 H         1 ATP         0.0465
     35 H5'2        2.4655   -1.3443   -2.1563 H         1 ATP         0.0465
     36 H4'         3.8044   -0.1397   -0.4040 H         1 ATP         0.1379
     37 H3'         1.6764   -1.7639    0.2728 H         1 ATP         0.1317
     38 HO3'        2.2232   -1.2979    2.3953 H         1 ATP         0.4175
     39 H2'        -0.0011    0.0027    0.0003 H         1 ATP         0.0669
     40 HO2'       -0.1563   -0.9855    2.0596 H         1 ATP         0.4064
     41 H1'         1.7826    1.9024    1.6451 H         1 ATP         0.1285
     42 H8         -0.1116    1.6863   -1.6984 H         1 ATP         0.2954
     43 HN62       -2.5420    7.0730    0.0447 H         1 ATP         0.4226
     44 H2          0.1969    5.7893    3.3086 H         1 ATP         0.0826
     45 H45        -1.3097    6.9080    1.9642 H         1 ATP         0.4581
     46 H46        -1.5735    3.7351   -1.9538 H         1 ATP         0.5252
@<TRIPOS>BOND
     1    1    2 2
     2    1    3 1
     3    1    4 1
     4    1    8 1
     5    4   32 1
     6    5    6 2
     7    5    7 1
     8    5    8 1
     9    5   12 1
    10    9   10 2
    11    9   11 1
    12    9   12 1
    13    9   13 1
    14   11   33 1
    15   13   14 1
    16   14   15 1
    17   14   34 1
    18   14   35 1
    19   15   16 1
    20   15   17 1
    21   15   36 1
    22   16   21 1
    23   17   18 1
    24   17   19 1
    25   17   37 1
    26   18   38 1
    27   19   20 1
    28   19   21 1
    29   19   39 1
    30   20   40 1
    31   21   22 1
    32   21   41 1
    33   22   23 ar
    34   22   31 ar
    35   23   24 ar
    36   23   42 1
    37   24   25 ar
    38   24   46 1
    39   25   26 ar
    40   25   31 ar
    41   26   27 2
    42   26   28 ar
    43   27   43 1
    44   28   29 ar
    45   28   45 1
    46   29   30 ar
    47   29   44 1
    48   30   31 ar
@<TRIPOS>SUBSTRUCTURE
     1 ATP         1 GROUP 0 A     ****
@<TRIPOS>MOLECULE
[[[3,4-dihydroxy-5-(6-imino-7,8-dihydro-1~{H}-purin-8-ylium-9-yl)tetrahydrofuran-2-yl]methoxy-hydroxy-phosphoryl]oxy-oxido-phosphoryl] hydrogen phosphate
   46    48     1     0     0
SMALL
USER_CHARGES

@<TRIPOS>ATOM
      1 PG          3.6595   -0.1264   -7.6600 P.3       1 ATP         1.5644
      2 O1G         3.9774    1.1139   -8.4651 O.co2     1 ATP        -0.8581
      3 O2G         2.2314   -0.5894   -7.4764 O.co2     1 ATP        -0.8581
      4 O3G         4.5358   -1.3693   -8.2546 O.3       1 ATP        -0.7962
      5 PB          4.4941   -1.0941   -4.9899 P.3       1 ATP         1.6830
      6 O1B         5.0776   -2.3719   -5.5508 O.co2     1 ATP        -0.8633
      7 O2B         5.1111   -0.4175   -3.7861 O.co2     1 ATP        -0.8633
      8 O3B         4.3698   -0.0040   -6.1974 O.3       1 ATP        -0.8097
      9 PA          2.1493   -2.2871   -3.6336 P.3       1 ATP         1.7610
     10 O1A         2.4555   -3.7486   -3.7880 O.2       1 ATP        -0.8554
     11 O2A         0.5901   -1.9079   -3.8415 O.3       1 ATP        -0.8102
     12 O3A         2.9062   -1.3352   -4.7002 O.3       1 ATP        -0.7693
     13 O5'         2.5245   -1.6648   -2.1878 O.3       1 ATP        -0.5757
     14 C5'         2.2816   -0.2918   -1.9206 C.3       1 ATP         0.1911
     15 C4'         2.7248    0.0226   -0.4980 C.3       1 ATP         0.1218
     16 O4'         2.4697    1.4219   -0.2462 O.3       1 ATP        -0.4138
     17 C3'         1.9404   -0.7419    0.5596 C.3       1 ATP         0.1338
     18 O3'         2.7418   -0.8086    1.7389 O.3       1 ATP        -0.5756
     19 C2'         0.7477    0.1630    0.7858 C.3       1 ATP         0.0673
     20 O2'         0.1373   -0.0577    2.0407 O.3       1 ATP        -0.5671
     21 C1'         1.3733    1.5427    0.6747 C.3       1 ATP         0.3795
     22 N9          0.4520    2.5240    0.1767 N.pl3     1 ATP        -0.4175
     23 C8          0.2216    2.8192   -1.0985 C.ar      1 ATP         0.2552
     24 N7         -0.6906    3.7763   -1.2384 N.pl3     1 ATP        -0.4731
     25 C5         -1.0575    4.1037    0.0366 C.ar      1 ATP        -0.1295
     26 C6         -2.0291    5.0943    0.5330 C.ar      1 ATP         0.7196
     27 N6         -2.7093    5.8371   -0.2800 N.2       1 ATP        -0.8094
     28 N1         -2.1051    5.1136    1.9204 N.pl3     1 ATP        -0.8312
     29 C2         -1.3354    4.2774    2.7129 C.ar      1 ATP         0.6744
     30 N3         -0.4707    3.3945    2.2944 N.2       1 ATP        -0.5937
     31 C4         -0.3734    3.3525    0.9220 C.ar      1 ATP         0.2810
     32 HOG3        4.4399   -2.2508   -7.8349 H         1 ATP         0.4152
     33 HOA2       -0.0792   -2.3122   -3.2493 H         1 ATP         0.4571
     34 H5'1        2.8432    0.3119   -2.6398 H         1 ATP         0.0465
     35 H5'2        1.2128   -0.0927   -2.0428 H         1 ATP         0.0465
     36 H4'         3.8044   -0.1397   -0.4040 H         1 ATP         0.1379
     37 H3'         1.6764   -1.7639    0.2728 H         1 ATP         0.1317
     38 HO3'        2.2232   -1.2979    2.3953 H         1 ATP         0.4175
     39 H2'        -0.0011    0.0027    0.0003 H         1 ATP         0.0669
     40 HO2'       -0.1563   -0.9855    2.0596 H         1 ATP         0.4064
     41 H1'         1.7826    1.9024    1.6451 H         1 ATP         0.1285
     42 H8          0.7125    2.3429   -1.9292 H         1 ATP         0.2954
     43 HN62       -3.3217    6.4517    0.2629 H         1 ATP         0.4226
     44 H2         -1.5188    4.4223    3.7890 H         1 ATP         0.0826
     45 H45        -2.7470    5.7626    2.3665 H         1 ATP         0.4581
     46 H46        -1.0305    4.1680   -2.1054 H         1 ATP         0.5252
@<TRIPOS>BOND
     1    1    2 2
     2    1    3 1
     3    1    4 1
     4    1    8 1
     5    4   32 1
     6    5    6 2
     7    5    7 1
     8    5    8 1
     9    5   12 1
    10    9   10 2
    11    9   11 1
    12    9   12 1
    13    9   13 1
    14   11   33 1
    15   13   14 1
    16   14   15 1
    17   14   34 1
    18   14   35 1
    19   15   16 1
    20   15   17 1
    21   15   36 1
    22   16   21 1
    23   17   18 1
    24   17   19 1
    25   17   37 1
    26   18   38 1
    27   19   20 1
    28   19   21 1
    29   19   39 1
    30   20   40 1
    31   21   22 1
    32   21   41 1
    33   22   23 ar
    34   22   31 ar
    35   23   24 ar
    36   23   42 1
    37   24   25 ar
    38   24   46 1
    39   25   26 ar
    40   25   31 ar
    41   26   27 2
    42   26   28 ar
    43   27   43 1
    44   28   29 ar
    45   28   45 1
    46   29   30 ar
    47   29   44 1
    48   30   31 ar
@<TRIPOS>SUBSTRUCTURE
     1 ATP         1 GROUP 0 A     ****
@<TRIPOS>MOLECULE
[[[3,4-dihydroxy-5-(6-imino-7,8-dihydro-1~{H}-purin-8-ylium-9-yl)tetrahydrofuran-2-yl]methoxy-hydroxy-phosphoryl]oxy-oxido-phosphoryl] hydrogen phosphate
   46    48     1     0     0
SMALL
USER_CHARGES

@<TRIPOS>ATOM
      1 PG          6.4005   -0.0720   -2.9693 P.3       1 ATP         1.5644
      2 O1G         7.4073   -1.1671   -3.2425 O.co2     1 ATP        -0.8581
      3 O2G         6.2391    0.5071   -1.5815 O.co2     1 ATP        -0.8581
      4 O3G         6.6702    1.1529   -4.0148 O.3       1 ATP        -0.7962
      5 PB          4.4941   -1.0941   -4.9899 P.3       1 ATP         1.6830
      6 O1B         4.6326    0.0337   -5.9883 O.co2     1 ATP        -0.8633
      7 O2B         5.1538   -2.4339   -5.2302 O.co2     1 ATP        -0.8633
      8 O3B         4.9408   -0.5462   -3.5196 O.3       1 ATP        -0.8097
      9 PA          2.1493   -2.2871   -3.6336 P.3       1 ATP         1.7610
     10 O1A         2.4555   -3.7486   -3.7880 O.2       1 ATP        -0.8554
     11 O2A         0.5901   -1.9079   -3.8415 O.3       1 ATP        -0.8102
     12 O3A         2.9062   -1.3352   -4.7002 O.3       1 ATP        -0.7693
     13 O5'         2.5245   -1.6648   -2.1878 O.3       1 ATP        -0.5757
     14 C5'         2.2816   -0.2918   -1.9206 C.3       1 ATP         0.1911
     15 C4'         2.7248    0.0226   -0.4980 C.3       1 ATP         0.1218
     16 O4'         2.4697    1.4219   -0.2462 O.3       1 ATP        -0.4138
     17 C3'         1.9404   -0.7419    0.5596 C.3       1 ATP         0.1338
     18 O3'         2.7418   -0.8086    1.7389 O.3       1 ATP        -0.5756
     19 C2'         0.7477    0.1630    0.7858 C.3       1 ATP         0.0673
     20 O2'         0.1373   -0.0577    2.0407 O.3       1 ATP        -0.5671
     21 C1'         1.3733    1.5427    0.6747 C.3       1 ATP         0.3795
     22 N9          0.4520    2.5240    0.1767 N.pl3     1 ATP        -0.4175
     23 C8          0.2216    2.8192   -1.0985 C.ar      1 ATP         0.2552
     24 N7         -0.6906    3.7763   -1.2384 N.pl3     1 ATP        -0.4731
     25 C5         -1.0575    4.1037    0.0366 C.ar      1 ATP        -0.1295
     26 C6         -2.0291    5.0943    0.5330 C.ar      1 ATP         0.7196
     27 N6         -2.7093    5.8371   -0.2800 N.2       1 ATP        -0.8094
     28 N1         -2.1051    5.1136    1.9204 N.pl3     1 ATP        -0.8312
     29 C2         -1.3354    4.2774    2.7129 C.ar      1 ATP         0.6744
     30 N3         -0.4707    3.3945    2.2944 N.2       1 ATP        -0.5937
     31 C4         -0.3734    3.3525    0.9220 C.ar      1 ATP         0.2810
     32 HOG3        6.0939    1.9451   -3.9642 H         1 ATP         0.4152
     33 HOA2       -0.0792   -2.3122   -3.2493 H         1 ATP         0.4571
     34 H5'1        2.8432    0.3119   -2.6398 H         1 ATP         0.0465
     35 H5'2        1.2128   -0.0927   -2.0428 H         1 ATP         0.0465
     36 H4'         3.8044   -0.1397   -0.4040 H         1 ATP         0.1379
     37 H3'         1.6764   -1.7639    0.2728 H         1 ATP         0.1317
     38 HO3'        3.5554   -1.2733    1.4914 H         1 ATP         0.4175
     39 H2'        -0.0011    0.0027    0.0003 H         1 ATP         0.0669
     40 HO2'       -0.6141    0.5574    2.1082 H         1 ATP         0.4064
     41 H1'         1.7826    1.9024    1.6451 H         1 ATP         0.1285
     42 H8          0.7125    2.3429   -1.9292 H         1 ATP         0.2954
     43 HN62       -3.3217    6.4517    0.2629 H         1 ATP         0.4226
     44 H2         -1.5188    4.4223    3.7890 H         1 ATP         0.0826
     45 H45        -2.7470    5.7626    2.3665 H         1 ATP         0.4581
     46 H46        -1.0305    4.1680   -2.1054 H         1 ATP         0.5252
@<TRIPOS>BOND
     1    1    2 2
     2    1    3 1
     3    1    4 1
     4    1    8 1
     5    4   32 1
     6    5    6 2
     7    5    7 1
     8    5    8 1
     9    5   12 1
    10    9   10 2
    11    9   11 1
    12    9   12 1
    13    9   13 1
    14   11   33 1
    15   13   14 1
    16   14   15 1
    17   14   34 1
    18   14   35 1
    19   15   16 1
    20   15   17 1
    21   15   36 1
    22   16   21 1
    23   17   18 1
    24   17   19 1
    25   17   37 1
    26   18   38 1
    27   19   20 1
    28   19   21 1
    29   19   39 1
    30   20   40 1
    31   21   22 1
    32   21   41 1
    33   22   23 ar
    34   22   31 ar
    35   23   24 ar
    36   23   42 1
    37   24   25 ar
    38   24   46 1
    39   25   26 ar
    40   25   31 ar
    41   26   27 2
    42   26   28 ar
    43   27   43 1
    44   28   29 ar
    45   28   45 1
    46   29   30 ar
    47   29   44 1
    48   30   31 ar
@<TRIPOS>SUBSTRUCTURE
     1 ATP         1 GROUP 0 A     ****
@<TRIPOS>MOLECULE
[[[3,4-dihydroxy-5-(6-imino-7,8-dihydro-1~{H}-purin-8-ylium-9-yl)tetrahydrofuran-2-yl]methoxy-hydroxy-phosphoryl]oxy-oxido-phosphoryl] hydrogen phosphate
   46    48     1     0     0
SMALL
USER_CHARGES

@<TRIPOS>ATOM
      1 PG         -1.1730    1.0694   -6.3321 P.3       1 ATP         1.5644
      2 O1G        -2.6422    1.4048   -6.2033 O.co2     1 ATP        -0.8581
      3 O2G        -0.6896   -0.3598   -6.2269 O.co2     1 ATP        -0.8581
      4 O3G        -0.6170    1.7039   -7.7301 O.3       1 ATP        -0.7962
      5 PB          1.2852    2.1689   -5.1032 P.3       1 ATP         1.6830
      6 O1B         1.8921    2.5166   -6.4443 O.co2     1 ATP        -0.8633
      7 O2B         1.5429    3.0269   -3.8845 O.co2     1 ATP        -0.8633
      8 O3B        -0.3260    1.9942   -5.2899 O.3       1 ATP        -0.8097
      9 PA          3.0915   -0.0732   -4.4165 P.3       1 ATP         1.7610
     10 O1A         4.2296    0.4201   -5.2621 O.2       1 ATP        -0.8554
     11 O2A         2.7765   -1.6519   -4.5791 O.3       1 ATP        -0.8102
     12 O3A         1.6695    0.6231   -4.7478 O.3       1 ATP        -0.7693
     13 O5'         3.2903    0.1346   -2.8241 O.3       1 ATP        -0.5757
     14 C5'         2.2816   -0.2918   -1.9206 C.3       1 ATP         0.1911
     15 C4'         2.7248    0.0226   -0.4980 C.3       1 ATP         0.1218
     16 O4'         2.4697    1.4219   -0.2462 O.3       1 ATP        -0.4138
     17 C3'         1.9404   -0.7419    0.5596 C.3       1 ATP         0.1338
     18 O3'         2.7418   -0.8086    1.7389 O.3       1 ATP        -0.5756
     19 C2'         0.7477    0.1630    0.7858 C.3       1 ATP         0.0673
     20 O2'         0.1373   -0.0577    2.0407 O.3       1 ATP        -0.5671
     21 C1'         1.3733    1.5427    0.6747 C.3       1 ATP         0.3795
     22 N9          0.4520    2.5240    0.1767 N.pl3     1 ATP        -0.4175
     23 C8         -0.2004    2.4829   -0.9804 C.ar      1 ATP         0.2552
     24 N7         -0.9830    3.5431   -1.1568 N.pl3     1 ATP        -0.4731
     25 C5         -0.8095    4.3012   -0.0331 C.ar      1 ATP        -0.1295
     26 C6         -1.4065    5.5904    0.3585 C.ar      1 ATP         0.7196
     27 N6         -2.2501    6.2030   -0.4084 N.2       1 ATP        -0.8094
     28 N1         -0.9585    6.0272    1.5994 N.pl3     1 ATP        -0.8312
     29 C2         -0.0508    5.3009    2.3532 C.ar      1 ATP         0.6744
     30 N3          0.4890    4.1592    2.0257 N.2       1 ATP        -0.5937
     31 C4          0.0637    3.7006    0.7995 C.ar      1 ATP         0.2810
     32 HOG3        0.3275    1.5713   -7.9598 H         1 ATP         0.4152
     33 HOA2        3.4791   -2.3005   -4.3603 H         1 ATP         0.4571
     34 H5'1        1.3514    0.2330   -2.1577 H         1 ATP         0.0465
     35 H5'2        2.1280   -1.3678   -2.0460 H         1 ATP         0.0465
     36 H4'         3.8044   -0.1397   -0.4040 H         1 ATP         0.1379
     37 H3'         1.6764   -1.7639    0.2728 H         1 ATP         0.1317
     38 HO3'        2.2232   -1.2979    2.3953 H         1 ATP         0.4175
     39 H2'        -0.0011    0.0027    0.0003 H         1 ATP         0.0669
     40 HO2'       -0.6141    0.5574    2.1082 H         1 ATP         0.4064
     41 H1'         1.7826    1.9024    1.6451 H         1 ATP         0.1285
     42 H8         -0.1116    1.6863   -1.6984 H         1 ATP         0.2954
     43 HN62       -2.5420    7.0730    0.0447 H         1 ATP         0.4226
     44 H2          0.1969    5.7893    3.3086 H         1 ATP         0.0826
     45 H45        -1.3097    6.9080    1.9642 H         1 ATP         0.4581
     46 H46        -1.5735    3.7351   -1.9538 H         1 ATP         0.5252
@<TRIPOS>BOND
     1    1    2 2
     2    1    3 1
     3    1    4 1
     4    1    8 1
     5    4   32 1
     6    5    6 2
     7    5    7 1
     8    5    8 1
     9    5   12 1
    10    9   10 2
    11    9   11 1
    12    9   12 1
    13    9   13 1
    14   11   33 1
    15   13   14 1
    16   14   15 1
    17   14   34 1
    18   14   35 1
    19   15   16 1
    20   15   17 1
    21   15   36 1
    22   16   21 1
    23   17   18 1
    24   17   19 1
    25   17   37 1
    26   18   38 1
    27   19   20 1
    28   19   21 1
    29   19   39 1
    30   20   40 1
    31   21   22 1
    32   21   41 1
    33   22   23 ar
    34   22   31 ar
    35   23   24 ar
    36   23   42 1
    37   24   25 ar
    38   24   46 1
    39   25   26 ar
    40   25   31 ar
    41   26   27 2
    42   26   28 ar
    43   27   43 1
    44   28   29 ar
    45   28   45 1
    46   29   30 ar
    47   29   44 1
    48   30   31 ar
@<TRIPOS>SUBSTRUCTURE
     1 ATP         1 GROUP 0 A     ****
@<TRIPOS>MOLECULE
[[[3,4-dihydroxy-5-(6-imino-7,8-dihydro-1~{H}-purin-8-ylium-9-yl)tetrahydrofuran-2-yl]methoxy-hydroxy-phosphoryl]oxy-oxido-phosphoryl] hydrogen phosphate
   46    48     1     0     0
SMALL
USER_CHARGES

@<TRIPOS>ATOM
      1 PG          1.6783    1.1475   -6.4008 P.3       1 ATP         1.5644
      2 O1G         0.9157    1.2335   -5.0975 O.co2     1 ATP        -0.8581
      3 O2G         1.1699    1.8388   -7.6462 O.co2     1 ATP        -0.8581
      4 O3G         3.2168    1.6248   -6.1335 O.3       1 ATP        -0.7962
      5 PB          2.6551   -1.5897   -5.8389 P.3       1 ATP         1.6830
      6 O1B         2.5207   -2.9078   -6.5685 O.co2     1 ATP        -0.8633
      7 O2B         4.0020   -1.0990   -5.3565 O.co2     1 ATP        -0.8633
      8 O3B         1.9648   -0.4206   -6.7436 O.3       1 ATP        -0.8097
      9 PA          1.5776   -2.4676   -3.2256 P.3       1 ATP         1.7610
     10 O1A         1.9399   -3.9114   -3.4201 O.2       1 ATP        -0.8554
     11 O2A         0.0775   -2.2267   -2.6692 O.3       1 ATP        -0.8102
     12 O3A         1.6142   -1.5868   -4.5819 O.3       1 ATP        -0.7693
     13 O5'         2.5245   -1.6648   -2.1878 O.3       1 ATP        -0.5757
     14 C5'         2.2816   -0.2918   -1.9206 C.3       1 ATP         0.1911
     15 C4'         2.7248    0.0226   -0.4980 C.3       1 ATP         0.1218
     16 O4'         2.4697    1.4219   -0.2462 O.3       1 ATP        -0.4138
     17 C3'         1.9404   -0.7419    0.5596 C.3       1 ATP         0.1338
     18 O3'         2.7418   -0.8086    1.7389 O.3       1 ATP        -0.5756
     19 C2'         0.7477    0.1630    0.7858 C.3       1 ATP         0.0673
     20 O2'         0.1373   -0.0577    2.0407 O.3       1 ATP        -0.5671
     21 C1'         1.3733    1.5427    0.6747 C.3       1 ATP         0.3795
     22 N9          0.4520    2.5240    0.1767 N.pl3     1 ATP        -0.4175
     23 C8          0.2216    2.8192   -1.0985 C.ar      1 ATP         0.2552
     24 N7         -0.6906    3.7763   -1.2384 N.pl3     1 ATP        -0.4731
     25 C5         -1.0575    4.1037    0.0366 C.ar      1 ATP        -0.1295
     26 C6         -2.0291    5.0943    0.5330 C.ar      1 ATP         0.7196
     27 N6         -2.7093    5.8371   -0.2800 N.2       1 ATP        -0.8094
     28 N1         -2.1051    5.1136    1.9204 N.pl3     1 ATP        -0.8312
     29 C2         -1.3354    4.2774    2.7129 C.ar      1 ATP         0.6744
     30 N3         -0.4707    3.3945    2.2944 N.2       1 ATP        -0.5937
     31 C4         -0.3734    3.3525    0.9220 C.ar      1 ATP         0.2810
     32 HOG3        3.8432    1.6251   -6.8885 H         1 ATP         0.4152
     33 HOA2       -0.1740   -2.6106   -1.8022 H         1 ATP         0.4571
     34 H5'1        2.8432    0.3119   -2.6398 H         1 ATP         0.0465
     35 H5'2        1.2128   -0.0927   -2.0428 H         1 ATP         0.0465
     36 H4'         3.8044   -0.1397   -0.4040 H         1 ATP         0.1379
     37 H3'         1.6764   -1.7639    0.2728 H         1 ATP         0.1317
     38 HO3'        3.5554   -1.2733    1.4914 H         1 ATP         0.4175
     39 H2'        -0.0011    0.0027    0.0003 H         1 ATP         0.0669
     40 HO2'       -0.1563   -0.9855    2.0596 H         1 ATP         0.4064
     41 H1'         1.7826    1.9024    1.6451 H         1 ATP         0.1285
     42 H8          0.7125    2.3429   -1.9292 H         1 ATP         0.2954
     43 HN62       -3.3217    6.4517    0.2629 H         1 ATP         0.4226
     44 H2         -1.5188    4.4223    3.7890 H         1 ATP         0.0826
     45 H45        -2.7470    5.7626    2.3665 H         1 ATP         0.4581
     46 H46        -1.0305    4.1680   -2.1054 H         1 ATP         0.5252
@<TRIPOS>BOND
     1    1    2 2
     2    1    3 1
     3    1    4 1
     4    1    8 1
     5    4   32 1
     6    5    6 2
     7    5    7 1
     8    5    8 1
     9    5   12 1
    10    9   10 2
    11    9   11 1
    12    9   12 1
    13    9   13 1
    14   11   33 1
    15   13   14 1
    16   14   15 1
    17   14   34 1
    18   14   35 1
    19   15   16 1
    20   15   17 1
    21   15   36 1
    22   16   21 1
    23   17   18 1
    24   17   19 1
    25   17   37 1
    26   18   38 1
    27   19   20 1
    28   19   21 1
    29   19   39 1
    30   20   40 1
    31   21   22 1
    32   21   41 1
    33   22   23 ar
    34   22   31 ar
    35   23   24 ar
    36   23   42 1
    37   24   25 ar
    38   24   46 1
    39   25   26 ar
    40   25   31 ar
    41   26   27 2
    42   26   28 ar
    43   27   43 1
    44   28   29 ar
    45   28   45 1
    46   29   30 ar
    47   29   44 1
    48   30   31 ar
@<TRIPOS>SUBSTRUCTURE
     1 ATP         1 GROUP 0 A     ****
@<TRIPOS>MOLECULE
[[[3,4-dihydroxy-5-(6-imino-7,8-dihydro-1~{H}-purin-8-ylium-9-yl)tetrahydrofuran-2-yl]methoxy-hydroxy-phosphoryl]oxy-oxido-phosphoryl] hydrogen phosphate
   46    48     1     0     0
SMALL
USER_CHARGES

@<TRIPOS>ATOM
      1 PG          3.5787    4.4716   -4.5491 P.3       1 ATP         1.5644
      2 O1G         4.5949    5.1690   -5.4258 O.co2     1 ATP        -0.8581
      3 O2G         4.0171    3.5648   -3.4209 O.co2     1 ATP        -0.8581
      4 O3G         2.5573    5.5938   -3.9461 O.3       1 ATP        -0.7962
      5 PB          1.1513    2.8747   -5.1144 P.3       1 ATP         1.6830
      6 O1B         0.2606    3.8073   -4.3241 O.co2     1 ATP        -0.8633
      7 O2B         0.6387    2.1655   -6.3481 O.co2     1 ATP        -0.8633
      8 O3B         2.5251    3.6667   -5.4981 O.3       1 ATP        -0.8097
      9 PA          2.8900    0.6162   -4.3161 P.3       1 ATP         1.7610
     10 O1A         4.0478    1.0418   -5.1716 O.2       1 ATP        -0.8554
     11 O2A         2.0339   -0.6169   -4.9198 O.3       1 ATP        -0.8102
     12 O3A         1.7740    1.7656   -4.0918 O.3       1 ATP        -0.7693
     13 O5'         3.2903    0.1346   -2.8241 O.3       1 ATP        -0.5757
     14 C5'         2.2816   -0.2918   -1.9206 C.3       1 ATP         0.1911
     15 C4'         2.7248    0.0226   -0.4980 C.3       1 ATP         0.1218
     16 O4'         2.4697    1.4219   -0.2462 O.3       1 ATP        -0.4138
     17 C3'         1.9404   -0.7419    0.5596 C.3       1 ATP         0.1338
     18 O3'         2.7418   -0.8086    1.7389 O.3       1 ATP        -0.5756
     19 C2'         0.7477    0.1630    0.7858 C.3       1 ATP         0.0673
     20 O2'         0.1373   -0.0577    2.0407 O.3       1 ATP        -0.5671
     21 C1'         1.3733    1.5427    0.6747 C.3       1 ATP         0.3795
     22 N9          0.4520    2.5240    0.1767 N.pl3     1 ATP        -0.4175
     23 C8          0.2216    2.8192   -1.0985 C.ar      1 ATP         0.2552
     24 N7         -0.6906    3.7763   -1.2384 N.pl3     1 ATP        -0.4731
     25 C5         -1.0575    4.1037    0.0366 C.ar      1 ATP        -0.1295
     26 C6         -2.0291    5.0943    0.5330 C.ar      1 ATP         0.7196
     27 N6         -2.7093    5.8371   -0.2800 N.2       1 ATP        -0.8094
     28 N1         -2.1051    5.1136    1.9204 N.pl3     1 ATP        -0.8312
     29 C2         -1.3354    4.2774    2.7129 C.ar      1 ATP         0.6744
     30 N3         -0.4707    3.3945    2.2944 N.2       1 ATP        -0.5937
     31 C4         -0.3734    3.3525    0.9220 C.ar      1 ATP         0.2810
     32 HOG3        1.8347    5.2965   -3.3530 H         1 ATP         0.4152
     33 HOA2        2.4845   -1.4733   -5.0803 H         1 ATP         0.4571
     34 H5'1        1.3514    0.2330   -2.1577 H         1 ATP         0.0465
     35 H5'2        2.1280   -1.3678   -2.0460 H         1 ATP         0.0465
     36 H4'         3.8044   -0.1397   -0.4040 H         1 ATP         0.1379
     37 H3'         1.6764   -1.7639    0.2728 H         1 ATP         0.1317
     38 HO3'        2.2232   -1.2979    2.3953 H         1 ATP         0.4175
     39 H2'        -0.0011    0.0027    0.0003 H         1 ATP         0.0669
     40 HO2'       -0.6141    0.5574    2.1082 H         1 ATP         0.4064
     41 H1'         1.7826    1.9024    1.6451 H         1 ATP         0.1285
     42 H8          0.7125    2.3429   -1.9292 H         1 ATP         0.2954
     43 HN62       -3.3217    6.4517    0.2629 H         1 ATP         0.4226
     44 H2         -1.5188    4.4223    3.7890 H         1 ATP         0.0826
     45 H45        -2.7470    5.7626    2.3665 H         1 ATP         0.4581
     46 H46        -1.0305    4.1680   -2.1054 H         1 ATP         0.5252
@<TRIPOS>BOND
     1    1    2 2
     2    1    3 1
     3    1    4 1
     4    1    8 1
     5    4   32 1
     6    5    6 2
     7    5    7 1
     8    5    8 1
     9    5   12 1
    10    9   10 2
    11    9   11 1
    12    9   12 1
    13    9   13 1
    14   11   33 1
    15   13   14 1
    16   14   15 1
    17   14   34 1
    18   14   35 1
    19   15   16 1
    20   15   17 1
    21   15   36 1
    22   16   21 1
    23   17   18 1
    24   17   19 1
    25   17   37 1
    26   18   38 1
    27   19   20 1
    28   19   21 1
    29   19   39 1
    30   20   40 1
    31   21   22 1
    32   21   41 1
    33   22   23 ar
    34   22   31 ar
    35   23   24 ar
    36   23   42 1
    37   24   25 ar
    38   24   46 1
    39   25   26 ar
    40   25   31 ar
    41   26   27 2
    42   26   28 ar
    43   27   43 1
    44   28   29 ar
    45   28   45 1
    46   29   30 ar
    47   29   44 1
    48   30   31 ar
@<TRIPOS>SUBSTRUCTURE
     1 ATP         1 GROUP 0 A     ****
@<TRIPOS>MOLECULE
[[[3,4-dihydroxy-5-(6-imino-7,8-dihydro-1~{H}-purin-8-ylium-9-yl)tetrahydrofuran-2-yl]methoxy-hydroxy-phosphoryl]oxy-oxido-phosphoryl] hydrogen phosphate
   46    48     1     0     0
SMALL
USER_CHARGES

@<TRIPOS>ATOM
      1 PG          7.5213   -3.4461   -3.6863 P.3       1 ATP         1.5644
      2 O1G         8.6240   -2.6330   -4.3270 O.co2     1 ATP        -0.8581
      3 O2G         7.3606   -4.9179   -3.9952 O.co2     1 ATP        -0.8581
      4 O3G         7.6163   -3.2630   -2.0666 O.3       1 ATP        -0.7962
      5 PB          5.6461   -1.1567   -3.6212 P.3       1 ATP         1.6830
      6 O1B         5.6229   -0.9560   -2.1222 O.co2     1 ATP        -0.8633
      7 O2B         6.4308   -0.2275   -4.5205 O.co2     1 ATP        -0.8633
      8 O3B         6.0964   -2.6932   -3.9344 O.3       1 ATP        -0.8097
      9 PA          2.8587   -2.1496   -3.6950 P.3       1 ATP         1.7610
     10 O1A         3.0952   -3.6247   -3.8434 O.2       1 ATP        -0.8554
     11 O2A         1.6310   -1.5797   -4.5815 O.3       1 ATP        -0.8102
     12 O3A         4.1060   -1.2287   -4.1564 O.3       1 ATP        -0.7693
     13 O5'         2.5245   -1.6648   -2.1878 O.3       1 ATP        -0.5757
     14 C5'         2.2816   -0.2918   -1.9206 C.3       1 ATP         0.1911
     15 C4'         2.7248    0.0226   -0.4980 C.3       1 ATP         0.1218
     16 O4'         2.4697    1.4219   -0.2462 O.3       1 ATP        -0.4138
     17 C3'         1.9404   -0.7419    0.5596 C.3       1 ATP         0.1338
     18 O3'         2.7418   -0.8086    1.7389 O.3       1 ATP        -0.5756
     19 C2'         0.7477    0.1630    0.7858 C.3       1 ATP         0.0673
     20 O2'         0.1373   -0.0577    2.0407 O.3       1 ATP        -0.5671
     21 C1'         1.3733    1.5427    0.6747 C.3       1 ATP         0.3795
     22 N9          0.4520    2.5240    0.1767 N.pl3     1 ATP        -0.4175
     23 C8          0.2216    2.8192   -1.0985 C.ar      1 ATP         0.2552
     24 N7         -0.6906    3.7763   -1.2384 N.pl3     1 ATP        -0.4731
     25 C5         -1.0575    4.1037    0.0366 C.ar      1 ATP        -0.1295
     26 C6         -2.0291    5.0943    0.5330 C.ar      1 ATP         0.7196
     27 N6         -2.7093    5.8371   -0.2800 N.2       1 ATP        -0.8094
     28 N1         -2.1051    5.1136    1.9204 N.pl3     1 ATP        -0.8312
     29 C2         -1.3354    4.2774    2.7129 C.ar      1 ATP         0.6744
     30 N3         -0.4707    3.3945    2.2944 N.2       1 ATP        -0.5937
     31 C4         -0.3734    3.3525    0.9220 C.ar      1 ATP         0.2810
     32 HOG3        6.9632   -3.7323   -1.5047 H         1 ATP         0.4152
     33 HOA2        0.7307   -1.9389   -4.4311 H         1 ATP         0.4571
     34 H5'1        2.8432    0.3119   -2.6398 H         1 ATP         0.0465
     35 H5'2        1.2128   -0.0927   -2.0428 H         1 ATP         0.0465
     36 H4'         3.8044   -0.1397   -0.4040 H         1 ATP         0.1379
     37 H3'         1.6764   -1.7639    0.2728 H         1 ATP         0.1317
     38 HO3'        2.2232   -1.2979    2.3953 H         1 ATP         0.4175
     39 H2'        -0.0011    0.0027    0.0003 H         1 ATP         0.0669
     40 HO2'       -0.6141    0.5574    2.1082 H         1 ATP         0.4064
     41 H1'         1.7826    1.9024    1.6451 H         1 ATP         0.1285
     42 H8          0.7125    2.3429   -1.9292 H         1 ATP         0.2954
     43 HN62       -3.3217    6.4517    0.2629 H         1 ATP         0.4226
     44 H2         -1.5188    4.4223    3.7890 H         1 ATP         0.0826
     45 H45        -2.7470    5.7626    2.3665 H         1 ATP         0.4581
     46 H46        -1.0305    4.1680   -2.1054 H         1 ATP         0.5252
@<TRIPOS>BOND
     1    1    2 2
     2    1    3 1
     3    1    4 1
     4    1    8 1
     5    4   32 1
     6    5    6 2
     7    5    7 1
     8    5    8 1
     9    5   12 1
    10    9   10 2
    11    9   11 1
    12    9   12 1
    13    9   13 1
    14   11   33 1
    15   13   14 1
    16   14   15 1
    17   14   34 1
    18   14   35 1
    19   15   16 1
    20   15   17 1
    21   15   36 1
    22   16   21 1
    23   17   18 1
    24   17   19 1
    25   17   37 1
    26   18   38 1
    27   19   20 1
    28   19   21 1
    29   19   39 1
    30   20   40 1
    31   21   22 1
    32   21   41 1
    33   22   23 ar
    34   22   31 ar
    35   23   24 ar
    36   23   42 1
    37   24   25 ar
    38   24   46 1
    39   25   26 ar
    40   25   31 ar
    41   26   27 2
    42   26   28 ar
    43   27   43 1
    44   28   29 ar
    45   28   45 1
    46   29   30 ar
    47   29   44 1
    48   30   31 ar
@<TRIPOS>SUBSTRUCTURE
     1 ATP         1 GROUP 0 A     ****
@<TRIPOS>MOLECULE
[[[3,4-dihydroxy-5-(6-imino-7,8-dihydro-1~{H}-purin-8-ylium-9-yl)tetrahydrofuran-2-yl]methoxy-hydroxy-phosphoryl]oxy-oxido-phosphoryl] hydrogen phosphate
   46    48     1     0     0
SMALL
USER_CHARGES

@<TRIPOS>ATOM
      1 PG          2.1468    1.5421   -7.8649 P.3       1 ATP         1.5644
      2 O1G         0.8406    1.8432   -8.5656 O.co2     1 ATP        -0.8581
      3 O2G         2.5916    0.1160   -7.6285 O.co2     1 ATP        -0.8581
      4 O3G         3.3450    2.3383   -8.6372 O.3       1 ATP        -0.7962
      5 PB          1.2852    2.1689   -5.1032 P.3       1 ATP         1.6830
      6 O1B         1.8473    3.0628   -4.0203 O.co2     1 ATP        -0.8633
      7 O2B        -0.1769    2.2314   -5.4853 O.co2     1 ATP        -0.8633
      8 O3B         2.1872    2.3520   -6.4503 O.3       1 ATP        -0.8097
      9 PA          3.0915   -0.0732   -4.4165 P.3       1 ATP         1.7610
     10 O1A         4.2296    0.4201   -5.2621 O.2       1 ATP        -0.8554
     11 O2A         2.7765   -1.6519   -4.5791 O.3       1 ATP        -0.8102
     12 O3A         1.6695    0.6231   -4.7478 O.3       1 ATP        -0.7693
     13 O5'         3.2903    0.1346   -2.8241 O.3       1 ATP        -0.5757
     14 C5'         2.2816   -0.2918   -1.9206 C.3       1 ATP         0.1911
     15 C4'         2.7248    0.0226   -0.4980 C.3       1 ATP         0.1218
     16 O4'         2.4697    1.4219   -0.2462 O.3       1 ATP        -0.4138
     17 C3'         1.9404   -0.7419    0.5596 C.3       1 ATP         0.1338
     18 O3'         2.7418   -0.8086    1.7389 O.3       1 ATP        -0.5756
     19 C2'         0.7477    0.1630    0.7858 C.3       1 ATP         0.0673
     20 O2'         0.1373   -0.0577    2.0407 O.3       1 ATP        -0.5671
     21 C1'         1.3733    1.5427    0.6747 C.3       1 ATP         0.3795
     22 N9          0.4520    2.5240    0.1767 N.pl3     1 ATP        -0.4175
     23 C8          0.2216    2.8192   -1.0985 C.ar      1 ATP         0.2552
     24 N7         -0.6906    3.7763   -1.2384 N.pl3     1 ATP        -0.4731
     25 C5         -1.0575    4.1037    0.0366 C.ar      1 ATP        -0.1295
     26 C6         -2.0291    5.0943    0.5330 C.ar      1 ATP         0.7196
     27 N6         -2.7093    5.8371   -0.2800 N.2       1 ATP        -0.8094
     28 N1         -2.1051    5.1136    1.9204 N.pl3     1 ATP        -0.8312
     29 C2         -1.3354    4.2774    2.7129 C.ar      1 ATP         0.6744
     30 N3         -0.4707    3.3945    2.2944 N.2       1 ATP        -0.5937
     31 C4         -0.3734    3.3525    0.9220 C.ar      1 ATP         0.2810
     32 HOG3        4.2613    2.2438   -8.2998 H         1 ATP         0.4152
     33 HOA2        3.4791   -2.3005   -4.3603 H         1 ATP         0.4571
     34 H5'1        1.3514    0.2330   -2.1577 H         1 ATP         0.0465
     35 H5'2        2.1280   -1.3678   -2.0460 H         1 ATP         0.0465
     36 H4'         3.8044   -0.1397   -0.4040 H         1 ATP         0.1379
     37 H3'         1.6764   -1.7639    0.2728 H         1 ATP         0.1317
     38 HO3'        2.2232   -1.2979    2.3953 H         1 ATP         0.4175
     39 H2'        -0.0011    0.0027    0.0003 H         1 ATP         0.0669
     40 HO2'       -0.6141    0.5574    2.1082 H         1 ATP         0.4064
     41 H1'         1.7826    1.9024    1.6451 H         1 ATP         0.1285
     42 H8          0.7125    2.3429   -1.9292 H         1 ATP         0.2954
     43 HN62       -3.3217    6.4517    0.2629 H         1 ATP         0.4226
     44 H2         -1.5188    4.4223    3.7890 H         1 ATP         0.0826
     45 H45        -2.7470    5.7626    2.3665 H         1 ATP         0.4581
     46 H46        -1.0305    4.1680   -2.1054 H         1 ATP         0.5252
@<TRIPOS>BOND
     1    1    2 2
     2    1    3 1
     3    1    4 1
     4    1    8 1
     5    4   32 1
     6    5    6 2
     7    5    7 1
     8    5    8 1
     9    5   12 1
    10    9   10 2
    11    9   11 1
    12    9   12 1
    13    9   13 1
    14   11   33 1
    15   13   14 1
    16   14   15 1
    17   14   34 1
    18   14   35 1
    19   15   16 1
    20   15   17 1
    21   15   36 1
    22   16   21 1
    23   17   18 1
    24   17   19 1
    25   17   37 1
    26   18   38 1
    27   19   20 1
    28   19   21 1
    29   19   39 1
    30   20   40 1
    31   21   22 1
    32   21   41 1
    33   22   23 ar
    34   22   31 ar
    35   23   24 ar
    36   23   42 1
    37   24   25 ar
    38   24   46 1
    39   25   26 ar
    40   25   31 ar
    41   26   27 2
    42   26   28 ar
    43   27   43 1
    44   28   29 ar
    45   28   45 1
    46   29   30 ar
    47   29   44 1
    48   30   31 ar
@<TRIPOS>SUBSTRUCTURE
     1 ATP         1 GROUP 0 A     ****
@<TRIPOS>MOLECULE
[[[3,4-dihydroxy-5-(6-imino-7,8-dihydro-1~{H}-purin-8-ylium-9-yl)tetrahydrofuran-2-yl]methoxy-hydroxy-phosphoryl]oxy-oxido-phosphoryl] hydrogen phosphate
   46    48     1     0     0
SMALL
USER_CHARGES

@<TRIPOS>ATOM
      1 PG          2.9654   -0.1468   -7.2067 P.3       1 ATP         1.5644
      2 O1G         3.0404    1.2467   -7.7897 O.co2     1 ATP        -0.8581
      3 O2G         3.5221   -1.3353   -7.9585 O.co2     1 ATP        -0.8581
      4 O3G         3.6269   -0.1206   -5.7141 O.3       1 ATP        -0.7962
      5 PB          0.7855   -1.7301   -5.9806 P.3       1 ATP         1.6830
      6 O1B        -0.6737   -1.4437   -5.7038 O.co2     1 ATP        -0.8633
      7 O2B         1.2126   -3.0065   -6.6706 O.co2     1 ATP        -0.8633
      8 O3B         1.4222   -0.4613   -6.7847 O.3       1 ATP        -0.8097
      9 PA          1.5776   -2.4676   -3.2256 P.3       1 ATP         1.7610
     10 O1A         1.9399   -3.9114   -3.4201 O.2       1 ATP        -0.8554
     11 O2A         0.0775   -2.2267   -2.6692 O.3       1 ATP        -0.8102
     12 O3A         1.6142   -1.5868   -4.5819 O.3       1 ATP        -0.7693
     13 O5'         2.5245   -1.6648   -2.1878 O.3       1 ATP        -0.5757
     14 C5'         2.2816   -0.2918   -1.9206 C.3       1 ATP         0.1911
     15 C4'         2.7248    0.0226   -0.4980 C.3       1 ATP         0.1218
     16 O4'         2.4697    1.4219   -0.2462 O.3       1 ATP        -0.4138
     17 C3'         1.9404   -0.7419    0.5596 C.3       1 ATP         0.1338
     18 O3'         2.7418   -0.8086    1.7389 O.3       1 ATP        -0.5756
     19 C2'         0.7477    0.1630    0.7858 C.3       1 ATP         0.0673
     20 O2'         0.1373   -0.0577    2.0407 O.3       1 ATP        -0.5671
     21 C1'         1.3733    1.5427    0.6747 C.3       1 ATP         0.3795
     22 N9          0.4520    2.5240    0.1767 N.pl3     1 ATP        -0.4175
     23 C8          0.2216    2.8192   -1.0985 C.ar      1 ATP         0.2552
     24 N7         -0.6906    3.7763   -1.2384 N.pl3     1 ATP        -0.4731
     25 C5         -1.0575    4.1037    0.0366 C.ar      1 ATP        -0.1295
     26 C6         -2.0291    5.0943    0.5330 C.ar      1 ATP         0.7196
     27 N6         -2.7093    5.8371   -0.2800 N.2       1 ATP        -0.8094
     28 N1         -2.1051    5.1136    1.9204 N.pl3     1 ATP        -0.8312
     29 C2         -1.3354    4.2774    2.7129 C.ar      1 ATP         0.6744
     30 N3         -0.4707    3.3945    2.2944 N.2       1 ATP        -0.5937
     31 C4         -0.3734    3.3525    0.9220 C.ar      1 ATP         0.2810
     32 HOG3        3.6538   -0.9562   -5.2008 H         1 ATP         0.4152
     33 HOA2       -0.1740   -2.6106   -1.8022 H         1 ATP         0.4571
     34 H5'1        2.8432    0.3119   -2.6398 H         1 ATP         0.0465
     35 H5'2        1.2128   -0.0927   -2.0428 H         1 ATP         0.0465
     36 H4'         3.8044   -0.1397   -0.4040 H         1 ATP         0.1379
     37 H3'         1.6764   -1.7639    0.2728 H         1 ATP         0.1317
     38 HO3'        2.2232   -1.2979    2.3953 H         1 ATP         0.4175
     39 H2'        -0.0011    0.0027    0.0003 H         1 ATP         0.0669
     40 HO2'       -0.1563   -0.9855    2.0596 H         1 ATP         0.4064
     41 H1'         1.7826    1.9024    1.6451 H         1 ATP         0.1285
     42 H8          0.7125    2.3429   -1.9292 H         1 ATP         0.2954
     43 HN62       -3.3217    6.4517    0.2629 H         1 ATP         0.4226
     44 H2         -1.5188    4.4223    3.7890 H         1 ATP         0.0826
     45 H45        -2.7470    5.7626    2.3665 H         1 ATP         0.4581
     46 H46        -1.0305    4.1680   -2.1054 H         1 ATP         0.5252
@<TRIPOS>BOND
     1    1    2 2
     2    1    3 1
     3    1    4 1
     4    1    8 1
     5    4   32 1
     6    5    6 2
     7    5    7 1
     8    5    8 1
     9    5   12 1
    10    9   10 2
    11    9   11 1
    12    9   12 1
    13    9   13 1
    14   11   33 1
    15   13   14 1
    16   14   15 1
    17   14   34 1
    18   14   35 1
    19   15   16 1
    20   15   17 1
    21   15   36 1
    22   16   21 1
    23   17   18 1
    24   17   19 1
    25   17   37 1
    26   18   38 1
    27   19   20 1
    28   19   21 1
    29   19   39 1
    30   20   40 1
    31   21   22 1
    32   21   41 1
    33   22   23 ar
    34   22   31 ar
    35   23   24 ar
    36   23   42 1
    37   24   25 ar
    38   24   46 1
    39   25   26 ar
    40   25   31 ar
    41   26   27 2
    42   26   28 ar
    43   27   43 1
    44   28   29 ar
    45   28   45 1
    46   29   30 ar
    47   29   44 1
    48   30   31 ar
@<TRIPOS>SUBSTRUCTURE
     1 ATP         1 GROUP 0 A     ****
@<TRIPOS>MOLECULE
[[[3,4-dihydroxy-5-(6-imino-7,8-dihydro-1~{H}-purin-8-ylium-9-yl)tetrahydrofuran-2-yl]methoxy-hydroxy-phosphoryl]oxy-oxido-phosphoryl] hydrogen phosphate
   46    48     1     0     0
SMALL
USER_CHARGES

@<TRIPOS>ATOM
      1 PG          0.2334    4.7985   -5.7954 P.3       1 ATP         1.5644
      2 O1G         1.2564    5.4891   -6.6695 O.co2     1 ATP        -0.8581
      3 O2G        -0.7655    5.5971   -4.9880 O.co2     1 ATP        -0.8581
      4 O3G        -0.5823    3.7172   -6.7073 O.3       1 ATP        -0.7962
      5 PB          2.0383    4.0324   -3.5778 P.3       1 ATP         1.6830
      6 O1B         3.3144    4.6136   -4.1448 O.co2     1 ATP        -0.8633
      7 O2B         1.2928    4.7289   -2.4611 O.co2     1 ATP        -0.8633
      8 O3B         1.0014    3.7542   -4.8063 O.3       1 ATP        -0.8097
      9 PA          2.9499    1.2416   -3.9540 P.3       1 ATP         1.7610
     10 O1A         4.1019    1.6058   -4.8451 O.2       1 ATP        -0.8554
     11 O2A         1.6689    0.6367   -4.7357 O.3       1 ATP        -0.8102
     12 O3A         2.3267    2.4887   -3.1336 O.3       1 ATP        -0.7693
     13 O5'         3.2903    0.1346   -2.8241 O.3       1 ATP        -0.5757
     14 C5'         2.2816   -0.2918   -1.9206 C.3       1 ATP         0.1911
     15 C4'         2.7248    0.0226   -0.4980 C.3       1 ATP         0.1218
     16 O4'         2.4697    1.4219   -0.2462 O.3       1 ATP        -0.4138
     17 C3'         1.9404   -0.7419    0.5596 C.3       1 ATP         0.1338
     18 O3'         2.7418   -0.8086    1.7389 O.3       1 ATP        -0.5756
     19 C2'         0.7477    0.1630    0.7858 C.3       1 ATP         0.0673
     20 O2'         0.1373   -0.0577    2.0407 O.3       1 ATP        -0.5671
     21 C1'         1.3733    1.5427    0.6747 C.3       1 ATP         0.3795
     22 N9          0.4520    2.5240    0.1767 N.pl3     1 ATP        -0.4175
     23 C8         -0.2004    2.4829   -0.9804 C.ar      1 ATP         0.2552
     24 N7         -0.9830    3.5431   -1.1568 N.pl3     1 ATP        -0.4731
     25 C5         -0.8095    4.3012   -0.0331 C.ar      1 ATP        -0.1295
     26 C6         -1.4065    5.5904    0.3585 C.ar      1 ATP         0.7196
     27 N6         -2.2501    6.2030   -0.4084 N.2       1 ATP        -0.8094
     28 N1         -0.9585    6.0272    1.5994 N.pl3     1 ATP        -0.8312
     29 C2         -0.0508    5.3009    2.3532 C.ar      1 ATP         0.6744
     30 N3          0.4890    4.1592    2.0257 N.2       1 ATP        -0.5937
     31 C4          0.0637    3.7006    0.7995 C.ar      1 ATP         0.2810
     32 HOG3       -1.2866    3.1839   -6.2807 H         1 ATP         0.4152
     33 HOA2        1.2248    1.1872   -5.4154 H         1 ATP         0.4571
     34 H5'1        1.3514    0.2330   -2.1577 H         1 ATP         0.0465
     35 H5'2        2.1280   -1.3678   -2.0460 H         1 ATP         0.0465
     36 H4'         3.8044   -0.1397   -0.4040 H         1 ATP         0.1379
     37 H3'         1.6764   -1.7639    0.2728 H         1 ATP         0.1317
     38 HO3'        2.2232   -1.2979    2.3953 H         1 ATP         0.4175
     39 H2'        -0.0011    0.0027    0.0003 H         1 ATP         0.0669
     40 HO2'       -0.6141    0.5574    2.1082 H         1 ATP         0.4064
     41 H1'         1.7826    1.9024    1.6451 H         1 ATP         0.1285
     42 H8         -0.1116    1.6863   -1.6984 H         1 ATP         0.2954
     43 HN62       -2.5420    7.0730    0.0447 H         1 ATP         0.4226
     44 H2          0.1969    5.7893    3.3086 H         1 ATP         0.0826
     45 H45        -1.3097    6.9080    1.9642 H         1 ATP         0.4581
     46 H46        -1.5735    3.7351   -1.9538 H         1 ATP         0.5252
@<TRIPOS>BOND
     1    1    2 2
     2    1    3 1
     3    1    4 1
     4    1    8 1
     5    4   32 1
     6    5    6 2
     7    5    7 1
     8    5    8 1
     9    5   12 1
    10    9   10 2
    11    9   11 1
    12    9   12 1
    13    9   13 1
    14   11   33 1
    15   13   14 1
    16   14   15 1
    17   14   34 1
    18   14   35 1
    19   15   16 1
    20   15   17 1
    21   15   36 1
    22   16   21 1
    23   17   18 1
    24   17   19 1
    25   17   37 1
    26   18   38 1
    27   19   20 1
    28   19   21 1
    29   19   39 1
    30   20   40 1
    31   21   22 1
    32   21   41 1
    33   22   23 ar
    34   22   31 ar
    35   23   24 ar
    36   23   42 1
    37   24   25 ar
    38   24   46 1
    39   25   26 ar
    40   25   31 ar
    41   26   27 2
    42   26   28 ar
    43   27   43 1
    44   28   29 ar
    45   28   45 1
    46   29   30 ar
    47   29   44 1
    48   30   31 ar
@<TRIPOS>SUBSTRUCTURE
     1 ATP         1 GROUP 0 A     ****
@<TRIPOS>MOLECULE
[[[3,4-dihydroxy-5-(6-imino-7,8-dihydro-1~{H}-purin-8-ylium-9-yl)tetrahydrofuran-2-yl]methoxy-hydroxy-phosphoryl]oxy-oxido-phosphoryl] hydrogen phosphate
   46    48     1     0     0
SMALL
USER_CHARGES

@<TRIPOS>ATOM
      1 PG          0.8577   -3.6857   -5.0817 P.3       1 ATP         1.5644
      2 O1G        -0.4810   -3.3799   -4.4478 O.co2     1 ATP        -0.8581
      3 O2G         2.0492   -4.0722   -4.2341 O.co2     1 ATP        -0.8581
      4 O3G         0.6405   -4.8311   -6.2249 O.3       1 ATP        -0.7962
      5 PB          1.6689   -0.9046   -5.6900 P.3       1 ATP         1.6830
      6 O1B         2.1436   -0.2160   -6.9503 O.co2     1 ATP        -0.8633
      7 O2B         0.5642   -0.3100   -4.8451 O.co2     1 ATP        -0.8633
      8 O3B         1.2780   -2.4462   -6.0541 O.3       1 ATP        -0.8097
      9 PA          3.9521   -0.1769   -3.9527 P.3       1 ATP         1.7610
     10 O1A         4.6810    0.7861   -4.8443 O.2       1 ATP        -0.8554
     11 O2A         4.9166   -1.1746   -3.1207 O.3       1 ATP        -0.8102
     12 O3A         2.9635   -1.1884   -4.7377 O.3       1 ATP        -0.7693
     13 O5'         3.0213    0.5153   -2.8245 O.3       1 ATP        -0.5757
     14 C5'         2.2816   -0.2918   -1.9206 C.3       1 ATP         0.1911
     15 C4'         2.7248    0.0226   -0.4980 C.3       1 ATP         0.1218
     16 O4'         2.4697    1.4219   -0.2462 O.3       1 ATP        -0.4138
     17 C3'         1.9404   -0.7419    0.5596 C.3       1 ATP         0.1338
     18 O3'         2.7418   -0.8086    1.7389 O.3       1 ATP        -0.5756
     19 C2'         0.7477    0.1630    0.7858 C.3       1 ATP         0.0673
     20 O2'         0.1373   -0.0577    2.0407 O.3       1 ATP        -0.5671
     21 C1'         1.3733    1.5427    0.6747 C.3       1 ATP         0.3795
     22 N9          0.4520    2.5240    0.1767 N.pl3     1 ATP        -0.4175
     23 C8         -0.2004    2.4829   -0.9804 C.ar      1 ATP         0.2552
     24 N7         -0.9830    3.5431   -1.1568 N.pl3     1 ATP        -0.4731
     25 C5         -0.8095    4.3012   -0.0331 C.ar      1 ATP        -0.1295
     26 C6         -1.4065    5.5904    0.3585 C.ar      1 ATP         0.7196
     27 N6         -2.2501    6.2030   -0.4084 N.2       1 ATP        -0.8094
     28 N1         -0.9585    6.0272    1.5994 N.pl3     1 ATP        -0.8312
     29 C2         -0.0508    5.3009    2.3532 C.ar      1 ATP         0.6744
     30 N3          0.4890    4.1592    2.0257 N.2       1 ATP        -0.5937
     31 C4          0.0637    3.7006    0.7995 C.ar      1 ATP         0.2810
     32 HOG3        1.4223   -5.1398   -6.7307 H         1 ATP         0.4152
     33 HOA2        5.5139   -1.7769   -3.6133 H         1 ATP         0.4571
     34 H5'1        1.2163   -0.0770   -2.0471 H         1 ATP         0.0465
     35 H5'2        2.4655   -1.3443   -2.1563 H         1 ATP         0.0465
     36 H4'         3.8044   -0.1397   -0.4040 H         1 ATP         0.1379
     37 H3'         1.6764   -1.7639    0.2728 H         1 ATP         0.1317
     38 HO3'        2.2232   -1.2979    2.3953 H         1 ATP         0.4175
     39 H2'        -0.0011    0.0027    0.0003 H         1 ATP         0.0669
     40 HO2'       -0.1563   -0.9855    2.0596 H         1 ATP         0.4064
     41 H1'         1.7826    1.9024    1.6451 H         1 ATP         0.1285
     42 H8         -0.1116    1.6863   -1.6984 H         1 ATP         0.2954
     43 HN62       -2.5420    7.0730    0.0447 H         1 ATP         0.4226
     44 H2          0.1969    5.7893    3.3086 H         1 ATP         0.0826
     45 H45        -1.3097    6.9080    1.9642 H         1 ATP         0.4581
     46 H46        -1.5735    3.7351   -1.9538 H         1 ATP         0.5252
@<TRIPOS>BOND
     1    1    2 2
     2    1    3 1
     3    1    4 1
     4    1    8 1
     5    4   32 1
     6    5    6 2
     7    5    7 1
     8    5    8 1
     9    5   12 1
    10    9   10 2
    11    9   11 1
    12    9   12 1
    13    9   13 1
    14   11   33 1
    15   13   14 1
    16   14   15 1
    17   14   34 1
    18   14   35 1
    19   15   16 1
    20   15   17 1
    21   15   36 1
    22   16   21 1
    23   17   18 1
    24   17   19 1
    25   17   37 1
    26   18   38 1
    27   19   20 1
    28   19   21 1
    29   19   39 1
    30   20   40 1
    31   21   22 1
    32   21   41 1
    33   22   23 ar
    34   22   31 ar
    35   23   24 ar
    36   23   42 1
    37   24   25 ar
    38   24   46 1
    39   25   26 ar
    40   25   31 ar
    41   26   27 2
    42   26   28 ar
    43   27   43 1
    44   28   29 ar
    45   28   45 1
    46   29   30 ar
    47   29   44 1
    48   30   31 ar
@<TRIPOS>SUBSTRUCTURE
     1 ATP         1 GROUP 0 A     ****
@<TRIPOS>MOLECULE
[[[3,4-dihydroxy-5-(6-imino-7,8-dihydro-1~{H}-purin-8-ylium-9-yl)tetrahydrofuran-2-yl]methoxy-hydroxy-phosphoryl]oxy-oxido-phosphoryl] hydrogen phosphate
   46    48     1     0     0
SMALL
USER_CHARGES

@<TRIPOS>ATOM
      1 PG          2.8527   -0.0123   -8.6628 P.3       1 ATP         1.5644
      2 O1G         2.0661    1.2788   -8.7073 O.co2     1 ATP        -0.8581
      3 O2G         2.4162   -1.2168   -9.4666 O.co2     1 ATP        -0.8581
      4 O3G         4.4104    0.3169   -9.0253 O.3       1 ATP        -0.7962
      5 PB          1.9581   -0.9465   -6.0003 P.3       1 ATP         1.6830
      6 O1B         1.0489    0.2168   -5.6720 O.co2     1 ATP        -0.8633
      7 O2B         1.3922   -2.2804   -6.4342 O.co2     1 ATP        -0.8633
      8 O3B         3.0523   -0.4566   -7.1067 O.3       1 ATP        -0.8097
      9 PA          3.9521   -0.1769   -3.9527 P.3       1 ATP         1.7610
     10 O1A         4.6810    0.7861   -4.8443 O.2       1 ATP        -0.8554
     11 O2A         4.9166   -1.1746   -3.1207 O.3       1 ATP        -0.8102
     12 O3A         2.9635   -1.1884   -4.7377 O.3       1 ATP        -0.7693
     13 O5'         3.0213    0.5153   -2.8245 O.3       1 ATP        -0.5757
     14 C5'         2.2816   -0.2918   -1.9206 C.3       1 ATP         0.1911
     15 C4'         2.7248    0.0226   -0.4980 C.3       1 ATP         0.1218
     16 O4'         2.4697    1.4219   -0.2462 O.3       1 ATP        -0.4138
     17 C3'         1.9404   -0.7419    0.5596 C.3       1 ATP         0.1338
     18 O3'         2.7418   -0.8086    1.7389 O.3       1 ATP        -0.5756
     19 C2'         0.7477    0.1630    0.7858 C.3       1 ATP         0.0673
     20 O2'         0.1373   -0.0577    2.0407 O.3       1 ATP        -0.5671
     21 C1'         1.3733    1.5427    0.6747 C.3       1 ATP         0.3795
     22 N9          0.4520    2.5240    0.1767 N.pl3     1 ATP        -0.4175
     23 C8          0.2216    2.8192   -1.0985 C.ar      1 ATP         0.2552
     24 N7         -0.6906    3.7763   -1.2384 N.pl3     1 ATP        -0.4731
     25 C5         -1.0575    4.1037    0.0366 C.ar      1 ATP        -0.1295
     26 C6         -2.0291    5.0943    0.5330 C.ar      1 ATP         0.7196
     27 N6         -2.7093    5.8371   -0.2800 N.2       1 ATP        -0.8094
     28 N1         -2.1051    5.1136    1.9204 N.pl3     1 ATP        -0.8312
     29 C2         -1.3354    4.2774    2.7129 C.ar      1 ATP         0.6744
     30 N3         -0.4707    3.3945    2.2944 N.2       1 ATP        -0.5937
     31 C4         -0.3734    3.3525    0.9220 C.ar      1 ATP         0.2810
     32 HOG3        5.0532   -0.4240   -9.0379 H         1 ATP         0.4152
     33 HOA2        5.5732   -0.7917   -2.5006 H         1 ATP         0.4571
     34 H5'1        1.2163   -0.0770   -2.0471 H         1 ATP         0.0465
     35 H5'2        2.4655   -1.3443   -2.1563 H         1 ATP         0.0465
     36 H4'         3.8044   -0.1397   -0.4040 H         1 ATP         0.1379
     37 H3'         1.6764   -1.7639    0.2728 H         1 ATP         0.1317
     38 HO3'        2.2232   -1.2979    2.3953 H         1 ATP         0.4175
     39 H2'        -0.0011    0.0027    0.0003 H         1 ATP         0.0669
     40 HO2'       -0.1563   -0.9855    2.0596 H         1 ATP         0.4064
     41 H1'         1.7826    1.9024    1.6451 H         1 ATP         0.1285
     42 H8          0.7125    2.3429   -1.9292 H         1 ATP         0.2954
     43 HN62       -3.3217    6.4517    0.2629 H         1 ATP         0.4226
     44 H2         -1.5188    4.4223    3.7890 H         1 ATP         0.0826
     45 H45        -2.7470    5.7626    2.3665 H         1 ATP         0.4581
     46 H46        -1.0305    4.1680   -2.1054 H         1 ATP         0.5252
@<TRIPOS>BOND
     1    1    2 2
     2    1    3 1
     3    1    4 1
     4    1    8 1
     5    4   32 1
     6    5    6 2
     7    5    7 1
     8    5    8 1
     9    5   12 1
    10    9   10 2
    11    9   11 1
    12    9   12 1
    13    9   13 1
    14   11   33 1
    15   13   14 1
    16   14   15 1
    17   14   34 1
    18   14   35 1
    19   15   16 1
    20   15   17 1
    21   15   36 1
    22   16   21 1
    23   17   18 1
    24   17   19 1
    25   17   37 1
    26   18   38 1
    27   19   20 1
    28   19   21 1
    29   19   39 1
    30   20   40 1
    31   21   22 1
    32   21   41 1
    33   22   23 ar
    34   22   31 ar
    35   23   24 ar
    36   23   42 1
    37   24   25 ar
    38   24   46 1
    39   25   26 ar
    40   25   31 ar
    41   26   27 2
    42   26   28 ar
    43   27   43 1
    44   28   29 ar
    45   28   45 1
    46   29   30 ar
    47   29   44 1
    48   30   31 ar
@<TRIPOS>SUBSTRUCTURE
     1 ATP         1 GROUP 0 A     ****
@<TRIPOS>MOLECULE
[[[3,4-dihydroxy-5-(6-imino-7,8-dihydro-1~{H}-purin-8-ylium-9-yl)tetrahydrofuran-2-yl]methoxy-hydroxy-phosphoryl]oxy-oxido-phosphoryl] hydrogen phosphate
   46    48     1     0     0
SMALL
USER_CHARGES

@<TRIPOS>ATOM
      1 PG          3.4716    1.7826   -7.9465 P.3       1 ATP         1.5644
      2 O1G         2.0901    2.1234   -8.4591 O.co2     1 ATP        -0.8581
      3 O2G         4.5113    1.1723   -8.8598 O.co2     1 ATP        -0.8581
      4 O3G         4.1097    3.1149   -7.2508 O.3       1 ATP        -0.7962
      5 PB          2.7588   -0.6637   -6.4400 P.3       1 ATP         1.6830
      6 O1B         1.2763   -0.6619   -6.7399 O.co2     1 ATP        -0.8633
      7 O2B         3.6965   -1.6167   -7.1472 O.co2     1 ATP        -0.8633
      8 O3B         3.3272    0.8557   -6.6128 O.3       1 ATP        -0.8097
      9 PA          2.6378   -2.0641   -3.8351 P.3       1 ATP         1.7610
     10 O1A         3.3753   -3.3287   -4.1674 O.2       1 ATP        -0.8554
     11 O2A         1.0268   -2.1923   -3.9146 O.3       1 ATP        -0.8102
     12 O3A         2.9594   -0.8288   -4.8287 O.3       1 ATP        -0.7693
     13 O5'         2.9216   -1.4836   -2.3516 O.3       1 ATP        -0.5757
     14 C5'         2.2816   -0.2918   -1.9206 C.3       1 ATP         0.1911
     15 C4'         2.7248    0.0226   -0.4980 C.3       1 ATP         0.1218
     16 O4'         2.4697    1.4219   -0.2462 O.3       1 ATP        -0.4138
     17 C3'         1.9404   -0.7419    0.5596 C.3       1 ATP         0.1338
     18 O3'         2.7418   -0.8086    1.7389 O.3       1 ATP        -0.5756
     19 C2'         0.7477    0.1630    0.7858 C.3       1 ATP         0.0673
     20 O2'         0.1373   -0.0577    2.0407 O.3       1 ATP        -0.5671
     21 C1'         1.3733    1.5427    0.6747 C.3       1 ATP         0.3795
     22 N9          0.4520    2.5240    0.1767 N.pl3     1 ATP        -0.4175
     23 C8          0.2216    2.8192   -1.0985 C.ar      1 ATP         0.2552
     24 N7         -0.6906    3.7763   -1.2384 N.pl3     1 ATP        -0.4731
     25 C5         -1.0575    4.1037    0.0366 C.ar      1 ATP        -0.1295
     26 C6         -2.0291    5.0943    0.5330 C.ar      1 ATP         0.7196
     27 N6         -2.7093    5.8371   -0.2800 N.2       1 ATP        -0.8094
     28 N1         -2.1051    5.1136    1.9204 N.pl3     1 ATP        -0.8312
     29 C2         -1.3354    4.2774    2.7129 C.ar      1 ATP         0.6744
     30 N3         -0.4707    3.3945    2.2944 N.2       1 ATP        -0.5937
     31 C4         -0.3734    3.3525    0.9220 C.ar      1 ATP         0.2810
     32 HOG3        5.0104    3.0549   -6.8667 H         1 ATP         0.4152
     33 HOA2        0.6127   -2.4426   -4.7679 H         1 ATP         0.4571
     34 H5'1        2.5589    0.5217   -2.5976 H         1 ATP         0.0465
     35 H5'2        1.1982   -0.4388   -1.9617 H         1 ATP         0.0465
     36 H4'         3.8044   -0.1397   -0.4040 H         1 ATP         0.1379
     37 H3'         1.6764   -1.7639    0.2728 H         1 ATP         0.1317
     38 HO3'        2.2232   -1.2979    2.3953 H         1 ATP         0.4175
     39 H2'        -0.0011    0.0027    0.0003 H         1 ATP         0.0669
     40 HO2'       -0.6141    0.5574    2.1082 H         1 ATP         0.4064
     41 H1'         1.7826    1.9024    1.6451 H         1 ATP         0.1285
     42 H8          0.7125    2.3429   -1.9292 H         1 ATP         0.2954
     43 HN62       -3.3217    6.4517    0.2629 H         1 ATP         0.4226
     44 H2         -1.5188    4.4223    3.7890 H         1 ATP         0.0826
     45 H45        -2.7470    5.7626    2.3665 H         1 ATP         0.4581
     46 H46        -1.0305    4.1680   -2.1054 H         1 ATP         0.5252
@<TRIPOS>BOND
     1    1    2 2
     2    1    3 1
     3    1    4 1
     4    1    8 1
     5    4   32 1
     6    5    6 2
     7    5    7 1
     8    5    8 1
     9    5   12 1
    10    9   10 2
    11    9   11 1
    12    9   12 1
    13    9   13 1
    14   11   33 1
    15   13   14 1
    16   14   15 1
    17   14   34 1
    18   14   35 1
    19   15   16 1
    20   15   17 1
    21   15   36 1
    22   16   21 1
    23   17   18 1
    24   17   19 1
    25   17   37 1
    26   18   38 1
    27   19   20 1
    28   19   21 1
    29   19   39 1
    30   20   40 1
    31   21   22 1
    32   21   41 1
    33   22   23 ar
    34   22   31 ar
    35   23   24 ar
    36   23   42 1
    37   24   25 ar
    38   24   46 1
    39   25   26 ar
    40   25   31 ar
    41   26   27 2
    42   26   28 ar
    43   27   43 1
    44   28   29 ar
    45   28   45 1
    46   29   30 ar
    47   29   44 1
    48   30   31 ar
@<TRIPOS>SUBSTRUCTURE
     1 ATP         1 GROUP 0 A     ****
@<TRIPOS>MOLECULE
[[[3,4-dihydroxy-5-(6-imino-7,8-dihydro-1~{H}-purin-8-ylium-9-yl)tetrahydrofuran-2-yl]methoxy-hydroxy-phosphoryl]oxy-oxido-phosphoryl] hydrogen phosphate
   46    48     1     0     0
SMALL
USER_CHARGES

@<TRIPOS>ATOM
      1 PG         -2.2350   -0.4615   -5.4304 P.3       1 ATP         1.5644
      2 O1G        -2.9590   -1.7058   -5.8942 O.co2     1 ATP        -0.8581
      3 O2G        -2.1464    0.7620   -6.3151 O.co2     1 ATP        -0.8581
      4 O3G        -2.8480   -0.0135   -3.9848 O.3       1 ATP        -0.7962
      5 PB          0.5353   -1.4376   -5.7974 P.3       1 ATP         1.6830
      6 O1B         0.1972   -2.8201   -6.3094 O.co2     1 ATP        -0.8633
      7 O2B         1.0089   -0.3518   -6.7379 O.co2     1 ATP        -0.8633
      8 O3B        -0.7346   -0.8734   -4.9427 O.3       1 ATP        -0.8097
      9 PA          1.5776   -2.4676   -3.2256 P.3       1 ATP         1.7610
     10 O1A         1.9399   -3.9114   -3.4201 O.2       1 ATP        -0.8554
     11 O2A         0.0775   -2.2267   -2.6692 O.3       1 ATP        -0.8102
     12 O3A         1.6142   -1.5868   -4.5819 O.3       1 ATP        -0.7693
     13 O5'         2.5245   -1.6648   -2.1878 O.3       1 ATP        -0.5757
     14 C5'         2.2816   -0.2918   -1.9206 C.3       1 ATP         0.1911
     15 C4'         2.7248    0.0226   -0.4980 C.3       1 ATP         0.1218
     16 O4'         2.4697    1.4219   -0.2462 O.3       1 ATP        -0.4138
     17 C3'         1.9404   -0.7419    0.5596 C.3       1 ATP         0.1338
     18 O3'         2.7418   -0.8086    1.7389 O.3       1 ATP        -0.5756
     19 C2'         0.7477    0.1630    0.7858 C.3       1 ATP         0.0673
     20 O2'         0.1373   -0.0577    2.0407 O.3       1 ATP        -0.5671
     21 C1'         1.3733    1.5427    0.6747 C.3       1 ATP         0.3795
     22 N9          0.4520    2.5240    0.1767 N.pl3     1 ATP        -0.4175
     23 C8          0.2216    2.8192   -1.0985 C.ar      1 ATP         0.2552
     24 N7         -0.6906    3.7763   -1.2384 N.pl3     1 ATP        -0.4731
     25 C5         -1.0575    4.1037    0.0366 C.ar      1 ATP        -0.1295
     26 C6         -2.0291    5.0943    0.5330 C.ar      1 ATP         0.7196
     27 N6         -2.7093    5.8371   -0.2800 N.2       1 ATP        -0.8094
     28 N1         -2.1051    5.1136    1.9204 N.pl3     1 ATP        -0.8312
     29 C2         -1.3354    4.2774    2.7129 C.ar      1 ATP         0.6744
     30 N3         -0.4707    3.3945    2.2944 N.2       1 ATP        -0.5937
     31 C4         -0.3734    3.3525    0.9220 C.ar      1 ATP         0.2810
     32 HOG3       -2.4791    0.7839   -3.5484 H         1 ATP         0.4152
     33 HOA2       -0.1740   -2.6106   -1.8022 H         1 ATP         0.4571
     34 H5'1        2.8432    0.3119   -2.6398 H         1 ATP         0.0465
     35 H5'2        1.2128   -0.0927   -2.0428 H         1 ATP         0.0465
     36 H4'         3.8044   -0.1397   -0.4040 H         1 ATP         0.1379
     37 H3'         1.6764   -1.7639    0.2728 H         1 ATP         0.1317
     38 HO3'        2.2232   -1.2979    2.3953 H         1 ATP         0.4175
     39 H2'        -0.0011    0.0027    0.0003 H         1 ATP         0.0669
     40 HO2'       -0.6141    0.5574    2.1082 H         1 ATP         0.4064
     41 H1'         1.7826    1.9024    1.6451 H         1 ATP         0.1285
     42 H8          0.7125    2.3429   -1.9292 H         1 ATP         0.2954
     43 HN62       -3.3217    6.4517    0.2629 H         1 ATP         0.4226
     44 H2         -1.5188    4.4223    3.7890 H         1 ATP         0.0826
     45 H45        -2.7470    5.7626    2.3665 H         1 ATP         0.4581
     46 H46        -1.0305    4.1680   -2.1054 H         1 ATP         0.5252
@<TRIPOS>BOND
     1    1    2 2
     2    1    3 1
     3    1    4 1
     4    1    8 1
     5    4   32 1
     6    5    6 2
     7    5    7 1
     8    5    8 1
     9    5   12 1
    10    9   10 2
    11    9   11 1
    12    9   12 1
    13    9   13 1
    14   11   33 1
    15   13   14 1
    16   14   15 1
    17   14   34 1
    18   14   35 1
    19   15   16 1
    20   15   17 1
    21   15   36 1
    22   16   21 1
    23   17   18 1
    24   17   19 1
    25   17   37 1
    26   18   38 1
    27   19   20 1
    28   19   21 1
    29   19   39 1
    30   20   40 1
    31   21   22 1
    32   21   41 1
    33   22   23 ar
    34   22   31 ar
    35   23   24 ar
    36   23   42 1
    37   24   25 ar
    38   24   46 1
    39   25   26 ar
    40   25   31 ar
    41   26   27 2
    42   26   28 ar
    43   27   43 1
    44   28   29 ar
    45   28   45 1
    46   29   30 ar
    47   29   44 1
    48   30   31 ar
@<TRIPOS>SUBSTRUCTURE
     1 ATP         1 GROUP 0 A     ****
@<TRIPOS>MOLECULE
[[[3,4-dihydroxy-5-(6-imino-7,8-dihydro-1~{H}-purin-8-ylium-9-yl)tetrahydrofuran-2-yl]methoxy-hydroxy-phosphoryl]oxy-oxido-phosphoryl] hydrogen phosphate
   46    48     1     0     0
SMALL
USER_CHARGES

@<TRIPOS>ATOM
      1 PG         -1.2367   -0.7976   -5.0627 P.3       1 ATP         1.5644
      2 O1G        -2.2748   -1.6151   -5.7986 O.co2     1 ATP        -0.8581
      3 O2G        -1.6414    0.3702   -4.1910 O.co2     1 ATP        -0.8581
      4 O3G        -0.3117   -1.8105   -4.1770 O.3       1 ATP        -0.7962
      5 PB          1.3094    0.4744   -5.8760 P.3       1 ATP         1.6830
      6 O1B         2.0580    0.5481   -7.1882 O.co2     1 ATP        -0.8633
      7 O2B         1.0447    1.7188   -5.0581 O.co2     1 ATP        -0.8633
      8 O3B        -0.1050   -0.2994   -6.1256 O.3       1 ATP        -0.8097
      9 PA          3.5004   -0.6417   -4.2282 P.3       1 ATP         1.7610
     10 O1A         4.5984   -0.0927   -5.0923 O.2       1 ATP        -0.8554
     11 O2A         3.6979   -2.1908   -3.8049 O.3       1 ATP        -0.8102
     12 O3A         2.0409   -0.6327   -4.9257 O.3       1 ATP        -0.7693
     13 O5'         3.2903    0.1346   -2.8241 O.3       1 ATP        -0.5757
     14 C5'         2.2816   -0.2918   -1.9206 C.3       1 ATP         0.1911
     15 C4'         2.7248    0.0226   -0.4980 C.3       1 ATP         0.1218
     16 O4'         2.4697    1.4219   -0.2462 O.3       1 ATP        -0.4138
     17 C3'         1.9404   -0.7419    0.5596 C.3       1 ATP         0.1338
     18 O3'         2.7418   -0.8086    1.7389 O.3       1 ATP        -0.5756
     19 C2'         0.7477    0.1630    0.7858 C.3       1 ATP         0.0673
     20 O2'         0.1373   -0.0577    2.0407 O.3       1 ATP        -0.5671
     21 C1'         1.3733    1.5427    0.6747 C.3       1 ATP         0.3795
     22 N9          0.4520    2.5240    0.1767 N.pl3     1 ATP        -0.4175
     23 C8          0.2216    2.8192   -1.0985 C.ar      1 ATP         0.2552
     24 N7         -0.6906    3.7763   -1.2384 N.pl3     1 ATP        -0.4731
     25 C5         -1.0575    4.1037    0.0366 C.ar      1 ATP        -0.1295
     26 C6         -2.0291    5.0943    0.5330 C.ar      1 ATP         0.7196
     27 N6         -2.7093    5.8371   -0.2800 N.2       1 ATP        -0.8094
     28 N1         -2.1051    5.1136    1.9204 N.pl3     1 ATP        -0.8312
     29 C2         -1.3354    4.2774    2.7129 C.ar      1 ATP         0.6744
     30 N3         -0.4707    3.3945    2.2944 N.2       1 ATP        -0.5937
     31 C4         -0.3734    3.3525    0.9220 C.ar      1 ATP         0.2810
     32 HOG3        0.4136   -1.4290   -3.6378 H         1 ATP         0.4152
     33 HOA2        4.4955   -2.4446   -3.2935 H         1 ATP         0.4571
     34 H5'1        1.3514    0.2330   -2.1577 H         1 ATP         0.0465
     35 H5'2        2.1280   -1.3678   -2.0460 H         1 ATP         0.0465
     36 H4'         3.8044   -0.1397   -0.4040 H         1 ATP         0.1379
     37 H3'         1.6764   -1.7639    0.2728 H         1 ATP         0.1317
     38 HO3'        2.2232   -1.2979    2.3953 H         1 ATP         0.4175
     39 H2'        -0.0011    0.0027    0.0003 H         1 ATP         0.0669
     40 HO2'       -0.1563   -0.9855    2.0596 H         1 ATP         0.4064
     41 H1'         1.7826    1.9024    1.6451 H         1 ATP         0.1285
     42 H8          0.7125    2.3429   -1.9292 H         1 ATP         0.2954
     43 HN62       -3.3217    6.4517    0.2629 H         1 ATP         0.4226
     44 H2         -1.5188    4.4223    3.7890 H         1 ATP         0.0826
     45 H45        -2.7470    5.7626    2.3665 H         1 ATP         0.4581
     46 H46        -1.0305    4.1680   -2.1054 H         1 ATP         0.5252
@<TRIPOS>BOND
     1    1    2 2
     2    1    3 1
     3    1    4 1
     4    1    8 1
     5    4   32 1
     6    5    6 2
     7    5    7 1
     8    5    8 1
     9    5   12 1
    10    9   10 2
    11    9   11 1
    12    9   12 1
    13    9   13 1
    14   11   33 1
    15   13   14 1
    16   14   15 1
    17   14   34 1
    18   14   35 1
    19   15   16 1
    20   15   17 1
    21   15   36 1
    22   16   21 1
    23   17   18 1
    24   17   19 1
    25   17   37 1
    26   18   38 1
    27   19   20 1
    28   19   21 1
    29   19   39 1
    30   20   40 1
    31   21   22 1
    32   21   41 1
    33   22   23 ar
    34   22   31 ar
    35   23   24 ar
    36   23   42 1
    37   24   25 ar
    38   24   46 1
    39   25   26 ar
    40   25   31 ar
    41   26   27 2
    42   26   28 ar
    43   27   43 1
    44   28   29 ar
    45   28   45 1
    46   29   30 ar
    47   29   44 1
    48   30   31 ar
@<TRIPOS>SUBSTRUCTURE
     1 ATP         1 GROUP 0 A     ****
@<TRIPOS>MOLECULE
[[[3,4-dihydroxy-5-(6-imino-7,8-dihydro-1~{H}-purin-8-ylium-9-yl)tetrahydrofuran-2-yl]methoxy-hydroxy-phosphoryl]oxy-oxido-phosphoryl] hydrogen phosphate
   46    48     1     0     0
SMALL
USER_CHARGES

@<TRIPOS>ATOM
      1 PG          8.6180    0.4127   -3.0971 P.3       1 ATP         1.5644
      2 O1G         8.6359    1.4151   -4.2296 O.co2     1 ATP        -0.8581
      3 O2G         9.6175   -0.7213   -3.0466 O.co2     1 ATP        -0.8581
      4 O3G         8.6845    1.2267   -1.6832 O.3       1 ATP        -0.7962
      5 PB          6.2623   -1.1522   -3.9711 P.3       1 ATP         1.6830
      6 O1B         5.9495   -0.3653   -5.2243 O.co2     1 ATP        -0.8633
      7 O2B         6.9353   -2.5047   -4.0469 O.co2     1 ATP        -0.8633
      8 O3B         7.1133   -0.1995   -2.9563 O.3       1 ATP        -0.8097
      9 PA          3.5156   -2.0921   -3.3934 P.3       1 ATP         1.7610
     10 O1A         3.6877   -3.5728   -3.5714 O.2       1 ATP        -0.8554
     11 O2A         2.9211   -1.3302   -4.6911 O.3       1 ATP        -0.8102
     12 O3A         4.8921   -1.2960   -3.0962 O.3       1 ATP        -0.7693
     13 O5'         2.5245   -1.6648   -2.1878 O.3       1 ATP        -0.5757
     14 C5'         2.2816   -0.2918   -1.9206 C.3       1 ATP         0.1911
     15 C4'         2.7248    0.0226   -0.4980 C.3       1 ATP         0.1218
     16 O4'         2.4697    1.4219   -0.2462 O.3       1 ATP        -0.4138
     17 C3'         1.9404   -0.7419    0.5596 C.3       1 ATP         0.1338
     18 O3'         2.7418   -0.8086    1.7389 O.3       1 ATP        -0.5756
     19 C2'         0.7477    0.1630    0.7858 C.3       1 ATP         0.0673
     20 O2'         0.1373   -0.0577    2.0407 O.3       1 ATP        -0.5671
     21 C1'         1.3733    1.5427    0.6747 C.3       1 ATP         0.3795
     22 N9          0.4520    2.5240    0.1767 N.pl3     1 ATP        -0.4175
     23 C8          0.2216    2.8192   -1.0985 C.ar      1 ATP         0.2552
     24 N7         -0.6906    3.7763   -1.2384 N.pl3     1 ATP        -0.4731
     25 C5         -1.0575    4.1037    0.0366 C.ar      1 ATP        -0.1295
     26 C6         -2.0291    5.0943    0.5330 C.ar      1 ATP         0.7196
     27 N6         -2.7093    5.8371   -0.2800 N.2       1 ATP        -0.8094
     28 N1         -2.1051    5.1136    1.9204 N.pl3     1 ATP        -0.8312
     29 C2         -1.3354    4.2774    2.7129 C.ar      1 ATP         0.6744
     30 N3         -0.4707    3.3945    2.2944 N.2       1 ATP        -0.5937
     31 C4         -0.3734    3.3525    0.9220 C.ar      1 ATP         0.2810
     32 HOG3        8.6810    0.7122   -0.8479 H         1 ATP         0.4152
     33 HOA2        3.4207   -1.3697   -5.5343 H         1 ATP         0.4571
     34 H5'1        2.8432    0.3119   -2.6398 H         1 ATP         0.0465
     35 H5'2        1.2128   -0.0927   -2.0428 H         1 ATP         0.0465
     36 H4'         3.8044   -0.1397   -0.4040 H         1 ATP         0.1379
     37 H3'         1.6764   -1.7639    0.2728 H         1 ATP         0.1317
     38 HO3'        2.2232   -1.2979    2.3953 H         1 ATP         0.4175
     39 H2'        -0.0011    0.0027    0.0003 H         1 ATP         0.0669
     40 HO2'       -0.1563   -0.9855    2.0596 H         1 ATP         0.4064
     41 H1'         1.7826    1.9024    1.6451 H         1 ATP         0.1285
     42 H8          0.7125    2.3429   -1.9292 H         1 ATP         0.2954
     43 HN62       -3.3217    6.4517    0.2629 H         1 ATP         0.4226
     44 H2         -1.5188    4.4223    3.7890 H         1 ATP         0.0826
     45 H45        -2.7470    5.7626    2.3665 H         1 ATP         0.4581
     46 H46        -1.0305    4.1680   -2.1054 H         1 ATP         0.5252
@<TRIPOS>BOND
     1    1    2 2
     2    1    3 1
     3    1    4 1
     4    1    8 1
     5    4   32 1
     6    5    6 2
     7    5    7 1
     8    5    8 1
     9    5   12 1
    10    9   10 2
    11    9   11 1
    12    9   12 1
    13    9   13 1
    14   11   33 1
    15   13   14 1
    16   14   15 1
    17   14   34 1
    18   14   35 1
    19   15   16 1
    20   15   17 1
    21   15   36 1
    22   16   21 1
    23   17   18 1
    24   17   19 1
    25   17   37 1
    26   18   38 1
    27   19   20 1
    28   19   21 1
    29   19   39 1
    30   20   40 1
    31   21   22 1
    32   21   41 1
    33   22   23 ar
    34   22   31 ar
    35   23   24 ar
    36   23   42 1
    37   24   25 ar
    38   24   46 1
    39   25   26 ar
    40   25   31 ar
    41   26   27 2
    42   26   28 ar
    43   27   43 1
    44   28   29 ar
    45   28   45 1
    46   29   30 ar
    47   29   44 1
    48   30   31 ar
@<TRIPOS>SUBSTRUCTURE
     1 ATP         1 GROUP 0 A     ****
@<TRIPOS>MOLECULE
[[[3,4-dihydroxy-5-(6-imino-7,8-dihydro-1~{H}-purin-8-ylium-9-yl)tetrahydrofuran-2-yl]methoxy-hydroxy-phosphoryl]oxy-oxido-phosphoryl] hydrogen phosphate
   46    48     1     0     0
SMALL
USER_CHARGES

@<TRIPOS>ATOM
      1 PG         -0.5091    3.0706   -4.9762 P.3       1 ATP         1.5644
      2 O1G         0.4820    3.1666   -3.8378 O.co2     1 ATP        -0.8581
      3 O2G        -1.9503    3.4896   -4.7898 O.co2     1 ATP        -0.8581
      4 O3G         0.1011    3.8685   -6.2635 O.3       1 ATP        -0.7962
      5 PB          0.7873    0.6679   -6.1202 P.3       1 ATP         1.6830
      6 O1B         0.2962   -0.7310   -6.4193 O.co2     1 ATP        -0.8633
      7 O2B         1.5424    1.4681   -7.1581 O.co2     1 ATP        -0.8633
      8 O3B        -0.4706    1.5585   -5.5851 O.3       1 ATP        -0.8097
      9 PA          3.0915   -0.0732   -4.4165 P.3       1 ATP         1.7610
     10 O1A         4.2296    0.4201   -5.2621 O.2       1 ATP        -0.8554
     11 O2A         2.7765   -1.6519   -4.5791 O.3       1 ATP        -0.8102
     12 O3A         1.6695    0.6231   -4.7478 O.3       1 ATP        -0.7693
     13 O5'         3.2903    0.1346   -2.8241 O.3       1 ATP        -0.5757
     14 C5'         2.2816   -0.2918   -1.9206 C.3       1 ATP         0.1911
     15 C4'         2.7248    0.0226   -0.4980 C.3       1 ATP         0.1218
     16 O4'         2.4697    1.4219   -0.2462 O.3       1 ATP        -0.4138
     17 C3'         1.9404   -0.7419    0.5596 C.3       1 ATP         0.1338
     18 O3'         2.7418   -0.8086    1.7389 O.3       1 ATP        -0.5756
     19 C2'         0.7477    0.1630    0.7858 C.3       1 ATP         0.0673
     20 O2'         0.1373   -0.0577    2.0407 O.3       1 ATP        -0.5671
     21 C1'         1.3733    1.5427    0.6747 C.3       1 ATP         0.3795
     22 N9          0.4520    2.5240    0.1767 N.pl3     1 ATP        -0.4175
     23 C8         -0.2004    2.4829   -0.9804 C.ar      1 ATP         0.2552
     24 N7         -0.9830    3.5431   -1.1568 N.pl3     1 ATP        -0.4731
     25 C5         -0.8095    4.3012   -0.0331 C.ar      1 ATP        -0.1295
     26 C6         -1.4065    5.5904    0.3585 C.ar      1 ATP         0.7196
     27 N6         -2.2501    6.2030   -0.4084 N.2       1 ATP        -0.8094
     28 N1         -0.9585    6.0272    1.5994 N.pl3     1 ATP        -0.8312
     29 C2         -0.0508    5.3009    2.3532 C.ar      1 ATP         0.6744
     30 N3          0.4890    4.1592    2.0257 N.2       1 ATP        -0.5937
     31 C4          0.0637    3.7006    0.7995 C.ar      1 ATP         0.2810
     32 HOG3       -0.4287    3.8977   -7.0886 H         1 ATP         0.4152
     33 HOA2        2.5282   -1.9972   -5.4631 H         1 ATP         0.4571
     34 H5'1        1.3514    0.2330   -2.1577 H         1 ATP         0.0465
     35 H5'2        2.1280   -1.3678   -2.0460 H         1 ATP         0.0465
     36 H4'         3.8044   -0.1397   -0.4040 H         1 ATP         0.1379
     37 H3'         1.6764   -1.7639    0.2728 H         1 ATP         0.1317
     38 HO3'        2.2232   -1.2979    2.3953 H         1 ATP         0.4175
     39 H2'        -0.0011    0.0027    0.0003 H         1 ATP         0.0669
     40 HO2'       -0.6141    0.5574    2.1082 H         1 ATP         0.4064
     41 H1'         1.7826    1.9024    1.6451 H         1 ATP         0.1285
     42 H8         -0.1116    1.6863   -1.6984 H         1 ATP         0.2954
     43 HN62       -2.5420    7.0730    0.0447 H         1 ATP         0.4226
     44 H2          0.1969    5.7893    3.3086 H         1 ATP         0.0826
     45 H45        -1.3097    6.9080    1.9642 H         1 ATP         0.4581
     46 H46        -1.5735    3.7351   -1.9538 H         1 ATP         0.5252
@<TRIPOS>BOND
     1    1    2 2
     2    1    3 1
     3    1    4 1
     4    1    8 1
     5    4   32 1
     6    5    6 2
     7    5    7 1
     8    5    8 1
     9    5   12 1
    10    9   10 2
    11    9   11 1
    12    9   12 1
    13    9   13 1
    14   11   33 1
    15   13   14 1
    16   14   15 1
    17   14   34 1
    18   14   35 1
    19   15   16 1
    20   15   17 1
    21   15   36 1
    22   16   21 1
    23   17   18 1
    24   17   19 1
    25   17   37 1
    26   18   38 1
    27   19   20 1
    28   19   21 1
    29   19   39 1
    30   20   40 1
    31   21   22 1
    32   21   41 1
    33   22   23 ar
    34   22   31 ar
    35   23   24 ar
    36   23   42 1
    37   24   25 ar
    38   24   46 1
    39   25   26 ar
    40   25   31 ar
    41   26   27 2
    42   26   28 ar
    43   27   43 1
    44   28   29 ar
    45   28   45 1
    46   29   30 ar
    47   29   44 1
    48   30   31 ar
@<TRIPOS>SUBSTRUCTURE
     1 ATP         1 GROUP 0 A     ****
@<TRIPOS>MOLECULE
[[[3,4-dihydroxy-5-(6-imino-7,8-dihydro-1~{H}-purin-8-ylium-9-yl)tetrahydrofuran-2-yl]methoxy-hydroxy-phosphoryl]oxy-oxido-phosphoryl] hydrogen phosphate
   46    48     1     0     0
SMALL
USER_CHARGES

@<TRIPOS>ATOM
      1 PG         -5.9198   -7.3751   -0.4963 P.3       1 ATP         1.5644
      2 O1G        -6.2344   -8.7658    0.0080 O.co2     1 ATP        -0.8581
      3 O2G        -5.3669   -7.1590   -1.8874 O.co2     1 ATP        -0.8581
      4 O3G        -7.2497   -6.4450   -0.3161 O.3       1 ATP        -0.7962
      5 PB         -4.4251   -5.0846    0.6358 P.3       1 ATP         1.6830
      6 O1B        -3.4973   -4.8490   -0.5352 O.co2     1 ATP        -0.8633
      7 O2B        -5.6082   -4.1768    0.8887 O.co2     1 ATP        -0.8633
      8 O3B        -4.9510   -6.6281    0.5817 O.3       1 ATP        -0.8097
      9 PA         -2.2443   -6.0789    2.3728 P.3       1 ATP         1.7610
     10 O1A        -2.3284   -7.4946    1.8805 O.2       1 ATP        -0.8554
     11 O2A        -2.1507   -5.9380    3.9819 O.3       1 ATP        -0.8102
     12 O3A        -3.5279   -5.1691    1.9965 O.3       1 ATP        -0.7693
     13 O5'        -0.9724   -5.2440    1.8220 O.3       1 ATP        -0.5757
     14 C5'        -0.7840   -3.8935    2.2172 C.3       1 ATP         0.1911
     15 C4'        -0.0724   -3.1466    1.1027 C.3       1 ATP         0.1218
     16 O4'        -0.8674   -3.1929   -0.0945 O.3       1 ATP        -0.4138
     17 C3'         0.1338   -1.6715    1.4027 C.3       1 ATP         0.1338
     18 O3'         1.2893   -1.4445    2.1808 O.3       1 ATP        -0.5756
     19 C2'         0.2158   -1.0724    0.0128 C.3       1 ATP         0.0673
     20 O2'         1.5141   -1.2448   -0.5513 O.3       1 ATP        -0.5671
     21 C1'        -0.7897   -1.9176   -0.7583 C.3       1 ATP         0.3795
     22 N9         -2.1040   -1.3333   -0.7704 N.pl3     1 ATP        -0.4175
     23 C8         -3.0590   -1.5123    0.1363 C.ar      1 ATP         0.2552
     24 N7         -4.1655   -0.8354   -0.1554 N.pl3     1 ATP        -0.4731
     25 C5         -3.8852   -0.1874   -1.3253 C.ar      1 ATP        -0.1295
     26 C6         -4.7113    0.7160   -2.1458 C.ar      1 ATP         0.7196
     27 N6         -5.9213    1.0209   -1.8021 N.2       1 ATP        -0.8094
     28 N1         -4.0411    1.1673   -3.2764 N.pl3     1 ATP        -0.8312
     29 C2         -2.7403    0.7865   -3.5638 C.ar      1 ATP         0.6744
     30 N3         -1.9921   -0.0108   -2.8519 N.2       1 ATP        -0.5937
     31 C4         -2.6302   -0.4747   -1.7239 C.ar      1 ATP         0.2810
     32 HOG3       -7.2052   -5.5070   -0.5999 H         1 ATP         0.4152
     33 HOA2       -1.3965   -6.3540    4.4512 H         1 ATP         0.4571
     34 H5'1       -1.7618   -3.4448    2.4164 H         1 ATP         0.0465
     35 H5'2       -0.1874   -3.8744    3.1341 H         1 ATP         0.0465
     36 H4'         0.8874   -3.6466    0.8805 H         1 ATP         0.1379
     37 H3'        -0.7376   -1.2333    1.9867 H         1 ATP         0.1317
     38 HO3'        1.3408   -0.4870    2.3219 H         1 ATP         0.4175
     39 H2'        -0.0384   -0.0310    0.0096 H         1 ATP         0.0669
     40 HO2'        2.1463   -0.7958    0.0370 H         1 ATP         0.4064
     41 H1'        -0.4769   -2.1002   -1.8093 H         1 ATP         0.1285
     42 H8         -2.9569   -2.1323    1.0098 H         1 ATP         0.2954
     43 HN62       -6.3169    1.6552   -2.5012 H         1 ATP         0.4226
     44 H2         -2.3612    1.2343   -4.4957 H         1 ATP         0.0826
     45 H45        -4.5223    1.7976   -3.9117 H         1 ATP         0.4581
     46 H46        -5.0218   -0.8132    0.3804 H         1 ATP         0.5252
@<TRIPOS>BOND
     1    1    2 2
     2    1    3 1
     3    1    4 1
     4    1    8 1
     5    4   32 1
     6    5    6 2
     7    5    7 1
     8    5    8 1
     9    5   12 1
    10    9   10 2
    11    9   11 1
    12    9   12 1
    13    9   13 1
    14   11   33 1
    15   13   14 1
    16   14   15 1
    17   14   34 1
    18   14   35 1
    19   15   16 1
    20   15   17 1
    21   15   36 1
    22   16   21 1
    23   17   18 1
    24   17   19 1
    25   17   37 1
    26   18   38 1
    27   19   20 1
    28   19   21 1
    29   19   39 1
    30   20   40 1
    31   21   22 1
    32   21   41 1
    33   22   23 ar
    34   22   31 ar
    35   23   24 ar
    36   23   42 1
    37   24   25 ar
    38   24   46 1
    39   25   26 ar
    40   25   31 ar
    41   26   27 2
    42   26   28 ar
    43   27   43 1
    44   28   29 ar
    45   28   45 1
    46   29   30 ar
    47   29   44 1
    48   30   31 ar
@<TRIPOS>SUBSTRUCTURE
     1 ATP         1 GROUP 0 A     ****
@<TRIPOS>MOLECULE
[[[3,4-dihydroxy-5-(6-imino-7,8-dihydro-1~{H}-purin-8-ylium-9-yl)tetrahydrofuran-2-yl]methoxy-hydroxy-phosphoryl]oxy-oxido-phosphoryl] hydrogen phosphate
   46    48     1     0     0
SMALL
USER_CHARGES

@<TRIPOS>ATOM
      1 PG         -1.4255    1.7167   -7.1497 P.3       1 ATP         1.5644
      2 O1G        -2.7833    2.1782   -6.6689 O.co2     1 ATP        -0.8581
      3 O2G        -1.2871    0.4991   -8.0362 O.co2     1 ATP        -0.8581
      4 O3G        -0.6772    2.9741   -7.8743 O.3       1 ATP        -0.7962
      5 PB         -0.0645    2.6074   -4.6766 P.3       1 ATP         1.6830
      6 O1B         0.7184    3.7536   -5.2774 O.co2     1 ATP        -0.8633
      7 O2B        -1.3023    2.8596   -3.8447 O.co2     1 ATP        -0.8633
      8 O3B        -0.4369    1.5519   -5.8636 O.3       1 ATP        -0.8097
      9 PA          2.3611    0.9709   -4.2298 P.3       1 ATP         1.7610
     10 O1A         3.2462    1.8212   -5.0942 O.2       1 ATP        -0.8554
     11 O2A         1.8893   -0.4146   -4.9195 O.3       1 ATP        -0.8102
     12 O3A         0.9632    1.6736   -3.8189 O.3       1 ATP        -0.7693
     13 O5'         3.0213    0.5153   -2.8245 O.3       1 ATP        -0.5757
     14 C5'         2.2816   -0.2918   -1.9206 C.3       1 ATP         0.1911
     15 C4'         2.7248    0.0226   -0.4980 C.3       1 ATP         0.1218
     16 O4'         2.4697    1.4219   -0.2462 O.3       1 ATP        -0.4138
     17 C3'         1.9404   -0.7419    0.5596 C.3       1 ATP         0.1338
     18 O3'         2.7418   -0.8086    1.7389 O.3       1 ATP        -0.5756
     19 C2'         0.7477    0.1630    0.7858 C.3       1 ATP         0.0673
     20 O2'         0.1373   -0.0577    2.0407 O.3       1 ATP        -0.5671
     21 C1'         1.3733    1.5427    0.6747 C.3       1 ATP         0.3795
     22 N9          0.4520    2.5240    0.1767 N.pl3     1 ATP        -0.4175
     23 C8          0.5691    3.2215   -0.9485 C.ar      1 ATP         0.2552
     24 N7         -0.4499    4.0551   -1.1342 N.pl3     1 ATP        -0.4731
     25 C5         -1.2618    3.8674   -0.0512 C.ar      1 ATP        -0.1295
     26 C6         -2.5420    4.5007    0.3120 C.ar      1 ATP         0.7196
     27 N6         -3.0874    5.3993   -0.4432 N.2       1 ATP        -0.8094
     28 N1         -3.0494    4.0205    1.5133 N.pl3     1 ATP        -0.8312
     29 C2         -2.3933    3.0527    2.2567 C.ar      1 ATP         0.6744
     30 N3         -1.2611    2.4796    1.9536 N.2       1 ATP        -0.5937
     31 C4         -0.7334    2.9358    0.7669 C.ar      1 ATP         0.2810
     32 HOG3        0.2212    2.8334   -8.2424 H         1 ATP         0.4152
     33 HOA2        2.5715   -1.0618   -5.1984 H         1 ATP         0.4571
     34 H5'1        1.2163   -0.0770   -2.0471 H         1 ATP         0.0465
     35 H5'2        2.4655   -1.3443   -2.1563 H         1 ATP         0.0465
     36 H4'         3.8044   -0.1397   -0.4040 H         1 ATP         0.1379
     37 H3'         1.6764   -1.7639    0.2728 H         1 ATP         0.1317
     38 HO3'        2.2232   -1.2979    2.3953 H         1 ATP         0.4175
     39 H2'        -0.0011    0.0027    0.0003 H         1 ATP         0.0669
     40 HO2'       -0.1563   -0.9855    2.0596 H         1 ATP         0.4064
     41 H1'         1.7826    1.9024    1.6451 H         1 ATP         0.1285
     42 H8          1.3912    3.1285   -1.6365 H         1 ATP         0.2954
     43 HN62       -3.9637    5.7084   -0.0142 H         1 ATP         0.4226
     44 H2         -2.9317    2.7866    3.1796 H         1 ATP         0.0826
     45 H45        -3.9307    4.3923    1.8559 H         1 ATP         0.4581
     46 H46        -0.5835    4.6857   -1.9122 H         1 ATP         0.5252
@<TRIPOS>BOND
     1    1    2 2
     2    1    3 1
     3    1    4 1
     4    1    8 1
     5    4   32 1
     6    5    6 2
     7    5    7 1
     8    5    8 1
     9    5   12 1
    10    9   10 2
    11    9   11 1
    12    9   12 1
    13    9   13 1
    14   11   33 1
    15   13   14 1
    16   14   15 1
    17   14   34 1
    18   14   35 1
    19   15   16 1
    20   15   17 1
    21   15   36 1
    22   16   21 1
    23   17   18 1
    24   17   19 1
    25   17   37 1
    26   18   38 1
    27   19   20 1
    28   19   21 1
    29   19   39 1
    30   20   40 1
    31   21   22 1
    32   21   41 1
    33   22   23 ar
    34   22   31 ar
    35   23   24 ar
    36   23   42 1
    37   24   25 ar
    38   24   46 1
    39   25   26 ar
    40   25   31 ar
    41   26   27 2
    42   26   28 ar
    43   27   43 1
    44   28   29 ar
    45   28   45 1
    46   29   30 ar
    47   29   44 1
    48   30   31 ar
@<TRIPOS>SUBSTRUCTURE
     1 ATP         1 GROUP 0 A     ****
@<TRIPOS>MOLECULE
[[[3,4-dihydroxy-5-(6-imino-7,8-dihydro-1~{H}-purin-8-ylium-9-yl)tetrahydrofuran-2-yl]methoxy-hydroxy-phosphoryl]oxy-oxido-phosphoryl] hydrogen phosphate
   46    48     1     0     0
SMALL
USER_CHARGES

@<TRIPOS>ATOM
      1 PG          0.4747    1.2637   -6.2714 P.3       1 ATP         1.5644
      2 O1G         0.3565    2.5240   -5.4437 O.co2     1 ATP        -0.8581
      3 O2G        -0.7568    0.5583   -6.7941 O.co2     1 ATP        -0.8581
      4 O3G         1.4753    1.5603   -7.5273 O.3       1 ATP        -0.7962
      5 PB          1.9856   -1.2600   -5.9396 P.3       1 ATP         1.6830
      6 O1B         0.8258   -2.2152   -6.1131 O.co2     1 ATP        -0.8633
      7 O2B         2.9892   -1.0418   -7.0499 O.co2     1 ATP        -0.8633
      8 O3B         1.4016    0.1888   -5.4689 O.3       1 ATP        -0.8097
      9 PA          4.0072   -0.9371   -3.8018 P.3       1 ATP         1.7610
     10 O1A         5.0554   -0.3590   -4.7078 O.2       1 ATP        -0.8554
     11 O2A         4.5510   -2.0894   -2.8046 O.3       1 ATP        -0.8102
     12 O3A         2.7889   -1.6652   -4.5779 O.3       1 ATP        -0.7693
     13 O5'         3.2903    0.1346   -2.8241 O.3       1 ATP        -0.5757
     14 C5'         2.2816   -0.2918   -1.9206 C.3       1 ATP         0.1911
     15 C4'         2.7248    0.0226   -0.4980 C.3       1 ATP         0.1218
     16 O4'         2.4697    1.4219   -0.2462 O.3       1 ATP        -0.4138
     17 C3'         1.9404   -0.7419    0.5596 C.3       1 ATP         0.1338
     18 O3'         2.7418   -0.8086    1.7389 O.3       1 ATP        -0.5756
     19 C2'         0.7477    0.1630    0.7858 C.3       1 ATP         0.0673
     20 O2'         0.1373   -0.0577    2.0407 O.3       1 ATP        -0.5671
     21 C1'         1.3733    1.5427    0.6747 C.3       1 ATP         0.3795
     22 N9          0.4520    2.5240    0.1767 N.pl3     1 ATP        -0.4175
     23 C8          0.2216    2.8192   -1.0985 C.ar      1 ATP         0.2552
     24 N7         -0.6906    3.7763   -1.2384 N.pl3     1 ATP        -0.4731
     25 C5         -1.0575    4.1037    0.0366 C.ar      1 ATP        -0.1295
     26 C6         -2.0291    5.0943    0.5330 C.ar      1 ATP         0.7196
     27 N6         -2.7093    5.8371   -0.2800 N.2       1 ATP        -0.8094
     28 N1         -2.1051    5.1136    1.9204 N.pl3     1 ATP        -0.8312
     29 C2         -1.3354    4.2774    2.7129 C.ar      1 ATP         0.6744
     30 N3         -0.4707    3.3945    2.2944 N.2       1 ATP        -0.5937
     31 C4         -0.3734    3.3525    0.9220 C.ar      1 ATP         0.2810
     32 HOG3        1.6554    0.8343   -8.1621 H         1 ATP         0.4152
     33 HOA2        5.2614   -1.8670   -2.1658 H         1 ATP         0.4571
     34 H5'1        1.3514    0.2330   -2.1577 H         1 ATP         0.0465
     35 H5'2        2.1280   -1.3678   -2.0460 H         1 ATP         0.0465
     36 H4'         3.8044   -0.1397   -0.4040 H         1 ATP         0.1379
     37 H3'         1.6764   -1.7639    0.2728 H         1 ATP         0.1317
     38 HO3'        2.2232   -1.2979    2.3953 H         1 ATP         0.4175
     39 H2'        -0.0011    0.0027    0.0003 H         1 ATP         0.0669
     40 HO2'       -0.6141    0.5574    2.1082 H         1 ATP         0.4064
     41 H1'         1.7826    1.9024    1.6451 H         1 ATP         0.1285
     42 H8          0.7125    2.3429   -1.9292 H         1 ATP         0.2954
     43 HN62       -3.3217    6.4517    0.2629 H         1 ATP         0.4226
     44 H2         -1.5188    4.4223    3.7890 H         1 ATP         0.0826
     45 H45        -2.7470    5.7626    2.3665 H         1 ATP         0.4581
     46 H46        -1.0305    4.1680   -2.1054 H         1 ATP         0.5252
@<TRIPOS>BOND
     1    1    2 2
     2    1    3 1
     3    1    4 1
     4    1    8 1
     5    4   32 1
     6    5    6 2
     7    5    7 1
     8    5    8 1
     9    5   12 1
    10    9   10 2
    11    9   11 1
    12    9   12 1
    13    9   13 1
    14   11   33 1
    15   13   14 1
    16   14   15 1
    17   14   34 1
    18   14   35 1
    19   15   16 1
    20   15   17 1
    21   15   36 1
    22   16   21 1
    23   17   18 1
    24   17   19 1
    25   17   37 1
    26   18   38 1
    27   19   20 1
    28   19   21 1
    29   19   39 1
    30   20   40 1
    31   21   22 1
    32   21   41 1
    33   22   23 ar
    34   22   31 ar
    35   23   24 ar
    36   23   42 1
    37   24   25 ar
    38   24   46 1
    39   25   26 ar
    40   25   31 ar
    41   26   27 2
    42   26   28 ar
    43   27   43 1
    44   28   29 ar
    45   28   45 1
    46   29   30 ar
    47   29   44 1
    48   30   31 ar
@<TRIPOS>SUBSTRUCTURE
     1 ATP         1 GROUP 0 A     ****
@<TRIPOS>MOLECULE
[[[3,4-dihydroxy-5-(6-imino-7,8-dihydro-1~{H}-purin-8-ylium-9-yl)tetrahydrofuran-2-yl]methoxy-hydroxy-phosphoryl]oxy-oxido-phosphoryl] hydrogen phosphate
   46    48     1     0     0
SMALL
USER_CHARGES

@<TRIPOS>ATOM
      1 PG         -1.7893   -0.6265   -6.7018 P.3       1 ATP         1.5644
      2 O1G        -1.5792   -0.3489   -8.1736 O.co2     1 ATP        -0.8581
      3 O2G        -2.7184    0.2325   -5.8734 O.co2     1 ATP        -0.8581
      4 O3G        -2.2325   -2.1883   -6.5269 O.3       1 ATP        -0.7962
      5 PB          0.7769    0.4636   -5.7077 P.3       1 ATP         1.6830
      6 O1B         1.3466    0.8903   -7.0423 O.co2     1 ATP        -0.8633
      7 O2B         0.2048    1.4788   -4.7434 O.co2     1 ATP        -0.8633
      8 O3B        -0.3368   -0.7006   -5.9647 O.3       1 ATP        -0.8097
      9 PA          3.3429   -0.0249   -4.3155 P.3       1 ATP         1.7610
     10 O1A         4.1316    0.9232   -5.1715 O.2       1 ATP        -0.8554
     11 O2A         4.0556   -1.4579   -4.0783 O.3       1 ATP        -0.8102
     12 O3A         1.9004   -0.4266   -4.9275 O.3       1 ATP        -0.7693
     13 O5'         3.0213    0.5153   -2.8245 O.3       1 ATP        -0.5757
     14 C5'         2.2816   -0.2918   -1.9206 C.3       1 ATP         0.1911
     15 C4'         2.7248    0.0226   -0.4980 C.3       1 ATP         0.1218
     16 O4'         2.4697    1.4219   -0.2462 O.3       1 ATP        -0.4138
     17 C3'         1.9404   -0.7419    0.5596 C.3       1 ATP         0.1338
     18 O3'         2.7418   -0.8086    1.7389 O.3       1 ATP        -0.5756
     19 C2'         0.7477    0.1630    0.7858 C.3       1 ATP         0.0673
     20 O2'         0.1373   -0.0577    2.0407 O.3       1 ATP        -0.5671
     21 C1'         1.3733    1.5427    0.6747 C.3       1 ATP         0.3795
     22 N9          0.4520    2.5240    0.1767 N.pl3     1 ATP        -0.4175
     23 C8         -0.2004    2.4829   -0.9804 C.ar      1 ATP         0.2552
     24 N7         -0.9830    3.5431   -1.1568 N.pl3     1 ATP        -0.4731
     25 C5         -0.8095    4.3012   -0.0331 C.ar      1 ATP        -0.1295
     26 C6         -1.4065    5.5904    0.3585 C.ar      1 ATP         0.7196
     27 N6         -2.2501    6.2030   -0.4084 N.2       1 ATP        -0.8094
     28 N1         -0.9585    6.0272    1.5994 N.pl3     1 ATP        -0.8312
     29 C2         -0.0508    5.3009    2.3532 C.ar      1 ATP         0.6744
     30 N3          0.4890    4.1592    2.0257 N.2       1 ATP        -0.5937
     31 C4          0.0637    3.7006    0.7995 C.ar      1 ATP         0.2810
     32 HOG3       -2.4073   -2.5254   -5.6223 H         1 ATP         0.4152
     33 HOA2        4.9339   -1.4843   -3.6423 H         1 ATP         0.4571
     34 H5'1        1.2163   -0.0770   -2.0471 H         1 ATP         0.0465
     35 H5'2        2.4655   -1.3443   -2.1563 H         1 ATP         0.0465
     36 H4'         3.8044   -0.1397   -0.4040 H         1 ATP         0.1379
     37 H3'         1.6764   -1.7639    0.2728 H         1 ATP         0.1317
     38 HO3'        2.2232   -1.2979    2.3953 H         1 ATP         0.4175
     39 H2'        -0.0011    0.0027    0.0003 H         1 ATP         0.0669
     40 HO2'       -0.1563   -0.9855    2.0596 H         1 ATP         0.4064
     41 H1'         1.7826    1.9024    1.6451 H         1 ATP         0.1285
     42 H8         -0.1116    1.6863   -1.6984 H         1 ATP         0.2954
     43 HN62       -2.5420    7.0730    0.0447 H         1 ATP         0.4226
     44 H2          0.1969    5.7893    3.3086 H         1 ATP         0.0826
     45 H45        -1.3097    6.9080    1.9642 H         1 ATP         0.4581
     46 H46        -1.5735    3.7351   -1.9538 H         1 ATP         0.5252
@<TRIPOS>BOND
     1    1    2 2
     2    1    3 1
     3    1    4 1
     4    1    8 1
     5    4   32 1
     6    5    6 2
     7    5    7 1
     8    5    8 1
     9    5   12 1
    10    9   10 2
    11    9   11 1
    12    9   12 1
    13    9   13 1
    14   11   33 1
    15   13   14 1
    16   14   15 1
    17   14   34 1
    18   14   35 1
    19   15   16 1
    20   15   17 1
    21   15   36 1
    22   16   21 1
    23   17   18 1
    24   17   19 1
    25   17   37 1
    26   18   38 1
    27   19   20 1
    28   19   21 1
    29   19   39 1
    30   20   40 1
    31   21   22 1
    32   21   41 1
    33   22   23 ar
    34   22   31 ar
    35   23   24 ar
    36   23   42 1
    37   24   25 ar
    38   24   46 1
    39   25   26 ar
    40   25   31 ar
    41   26   27 2
    42   26   28 ar
    43   27   43 1
    44   28   29 ar
    45   28   45 1
    46   29   30 ar
    47   29   44 1
    48   30   31 ar
@<TRIPOS>SUBSTRUCTURE
     1 ATP         1 GROUP 0 A     ****
@<TRIPOS>MOLECULE
[[[3,4-dihydroxy-5-(6-imino-7,8-dihydro-1~{H}-purin-8-ylium-9-yl)tetrahydrofuran-2-yl]methoxy-hydroxy-phosphoryl]oxy-oxido-phosphoryl] hydrogen phosphate
   46    48     1     0     0
SMALL
USER_CHARGES

@<TRIPOS>ATOM
      1 PG          6.3655    0.0120   -6.6906 P.3       1 ATP         1.5644
      2 O1G         6.8722   -1.2104   -7.4231 O.co2     1 ATP        -0.8581
      3 O2G         7.2852    1.1739   -6.3878 O.co2     1 ATP        -0.8581
      4 O3G         5.0526    0.5807   -7.4774 O.3       1 ATP        -0.7962
      5 PB          6.2623   -1.1522   -3.9711 P.3       1 ATP         1.6830
      6 O1B         6.7516   -2.5389   -4.3253 O.co2     1 ATP        -0.8633
      7 O2B         7.1722   -0.1544   -3.2898 O.co2     1 ATP        -0.8633
      8 O3B         5.6375   -0.4620   -5.3108 O.3       1 ATP        -0.8097
      9 PA          3.5156   -2.0921   -3.3934 P.3       1 ATP         1.7610
     10 O1A         3.6877   -3.5728   -3.5714 O.2       1 ATP        -0.8554
     11 O2A         2.9211   -1.3302   -4.6911 O.3       1 ATP        -0.8102
     12 O3A         4.8921   -1.2960   -3.0962 O.3       1 ATP        -0.7693
     13 O5'         2.5245   -1.6648   -2.1878 O.3       1 ATP        -0.5757
     14 C5'         2.2816   -0.2918   -1.9206 C.3       1 ATP         0.1911
     15 C4'         2.7248    0.0226   -0.4980 C.3       1 ATP         0.1218
     16 O4'         2.4697    1.4219   -0.2462 O.3       1 ATP        -0.4138
     17 C3'         1.9404   -0.7419    0.5596 C.3       1 ATP         0.1338
     18 O3'         2.7418   -0.8086    1.7389 O.3       1 ATP        -0.5756
     19 C2'         0.7477    0.1630    0.7858 C.3       1 ATP         0.0673
     20 O2'         0.1373   -0.0577    2.0407 O.3       1 ATP        -0.5671
     21 C1'         1.3733    1.5427    0.6747 C.3       1 ATP         0.3795
     22 N9          0.4520    2.5240    0.1767 N.pl3     1 ATP        -0.4175
     23 C8          0.2216    2.8192   -1.0985 C.ar      1 ATP         0.2552
     24 N7         -0.6906    3.7763   -1.2384 N.pl3     1 ATP        -0.4731
     25 C5         -1.0575    4.1037    0.0366 C.ar      1 ATP        -0.1295
     26 C6         -2.0291    5.0943    0.5330 C.ar      1 ATP         0.7196
     27 N6         -2.7093    5.8371   -0.2800 N.2       1 ATP        -0.8094
     28 N1         -2.1051    5.1136    1.9204 N.pl3     1 ATP        -0.8312
     29 C2         -1.3354    4.2774    2.7129 C.ar      1 ATP         0.6744
     30 N3         -0.4707    3.3945    2.2944 N.2       1 ATP        -0.5937
     31 C4         -0.3734    3.3525    0.9220 C.ar      1 ATP         0.2810
     32 HOG3        4.6047    1.3780   -7.1224 H         1 ATP         0.4152
     33 HOA2        3.4207   -1.3697   -5.5343 H         1 ATP         0.4571
     34 H5'1        2.8432    0.3119   -2.6398 H         1 ATP         0.0465
     35 H5'2        1.2128   -0.0927   -2.0428 H         1 ATP         0.0465
     36 H4'         3.8044   -0.1397   -0.4040 H         1 ATP         0.1379
     37 H3'         1.6764   -1.7639    0.2728 H         1 ATP         0.1317
     38 HO3'        2.2232   -1.2979    2.3953 H         1 ATP         0.4175
     39 H2'        -0.0011    0.0027    0.0003 H         1 ATP         0.0669
     40 HO2'       -0.6141    0.5574    2.1082 H         1 ATP         0.4064
     41 H1'         1.7826    1.9024    1.6451 H         1 ATP         0.1285
     42 H8          0.7125    2.3429   -1.9292 H         1 ATP         0.2954
     43 HN62       -3.3217    6.4517    0.2629 H         1 ATP         0.4226
     44 H2         -1.5188    4.4223    3.7890 H         1 ATP         0.0826
     45 H45        -2.7470    5.7626    2.3665 H         1 ATP         0.4581
     46 H46        -1.0305    4.1680   -2.1054 H         1 ATP         0.5252
@<TRIPOS>BOND
     1    1    2 2
     2    1    3 1
     3    1    4 1
     4    1    8 1
     5    4   32 1
     6    5    6 2
     7    5    7 1
     8    5    8 1
     9    5   12 1
    10    9   10 2
    11    9   11 1
    12    9   12 1
    13    9   13 1
    14   11   33 1
    15   13   14 1
    16   14   15 1
    17   14   34 1
    18   14   35 1
    19   15   16 1
    20   15   17 1
    21   15   36 1
    22   16   21 1
    23   17   18 1
    24   17   19 1
    25   17   37 1
    26   18   38 1
    27   19   20 1
    28   19   21 1
    29   19   39 1
    30   20   40 1
    31   21   22 1
    32   21   41 1
    33   22   23 ar
    34   22   31 ar
    35   23   24 ar
    36   23   42 1
    37   24   25 ar
    38   24   46 1
    39   25   26 ar
    40   25   31 ar
    41   26   27 2
    42   26   28 ar
    43   27   43 1
    44   28   29 ar
    45   28   45 1
    46   29   30 ar
    47   29   44 1
    48   30   31 ar
@<TRIPOS>SUBSTRUCTURE
     1 ATP         1 GROUP 0 A     ****
@<TRIPOS>MOLECULE
[[[3,4-dihydroxy-5-(6-imino-7,8-dihydro-1~{H}-purin-8-ylium-9-yl)tetrahydrofuran-2-yl]methoxy-hydroxy-phosphoryl]oxy-oxido-phosphoryl] hydrogen phosphate
   46    48     1     0     0
SMALL
USER_CHARGES

@<TRIPOS>ATOM
      1 PG         -6.0863   -4.2916    2.6150 P.3       1 ATP         1.5644
      2 O1G        -7.0904   -5.3550    2.2296 O.co2     1 ATP        -0.8581
      3 O2G        -5.0617   -3.7927    1.6205 O.co2     1 ATP        -0.8581
      4 O3G        -6.8962   -3.0068    3.2145 O.3       1 ATP        -0.7962
      5 PB         -4.2899   -5.9927    4.2401 P.3       1 ATP         1.6830
      6 O1B        -3.7374   -5.8719    5.6430 O.co2     1 ATP        -0.8633
      7 O2B        -4.9374   -7.2742    3.7645 O.co2     1 ATP        -0.8633
      8 O3B        -5.3209   -4.7558    3.9778 O.3       1 ATP        -0.8097
      9 PA         -1.7101   -6.2838    2.8184 P.3       1 ATP         1.7610
     10 O1A        -1.8467   -7.6794    2.2823 O.2       1 ATP        -0.8554
     11 O2A        -0.8728   -6.1797    4.1989 O.3       1 ATP        -0.8102
     12 O3A        -3.1168   -5.5743    3.1854 O.3       1 ATP        -0.7693
     13 O5'        -0.9724   -5.2440    1.8220 O.3       1 ATP        -0.5757
     14 C5'        -0.7840   -3.8935    2.2172 C.3       1 ATP         0.1911
     15 C4'        -0.0724   -3.1466    1.1027 C.3       1 ATP         0.1218
     16 O4'        -0.8674   -3.1929   -0.0945 O.3       1 ATP        -0.4138
     17 C3'         0.1338   -1.6715    1.4027 C.3       1 ATP         0.1338
     18 O3'         1.2893   -1.4445    2.1808 O.3       1 ATP        -0.5756
     19 C2'         0.2158   -1.0724    0.0128 C.3       1 ATP         0.0673
     20 O2'         1.5141   -1.2448   -0.5513 O.3       1 ATP        -0.5671
     21 C1'        -0.7897   -1.9176   -0.7583 C.3       1 ATP         0.3795
     22 N9         -2.1040   -1.3333   -0.7704 N.pl3     1 ATP        -0.4175
     23 C8         -3.0590   -1.5123    0.1363 C.ar      1 ATP         0.2552
     24 N7         -4.1655   -0.8354   -0.1554 N.pl3     1 ATP        -0.4731
     25 C5         -3.8852   -0.1874   -1.3253 C.ar      1 ATP        -0.1295
     26 C6         -4.7113    0.7160   -2.1458 C.ar      1 ATP         0.7196
     27 N6         -5.9213    1.0209   -1.8021 N.2       1 ATP        -0.8094
     28 N1         -4.0411    1.1673   -3.2764 N.pl3     1 ATP        -0.8312
     29 C2         -2.7403    0.7865   -3.5638 C.ar      1 ATP         0.6744
     30 N3         -1.9921   -0.0108   -2.8519 N.2       1 ATP        -0.5937
     31 C4         -2.6302   -0.4747   -1.7239 C.ar      1 ATP         0.2810
     32 HOG3       -6.3803   -2.2271    3.5117 H         1 ATP         0.4152
     33 HOA2        0.0586   -6.4873    4.2129 H         1 ATP         0.4571
     34 H5'1       -1.7618   -3.4448    2.4164 H         1 ATP         0.0465
     35 H5'2       -0.1874   -3.8744    3.1341 H         1 ATP         0.0465
     36 H4'         0.8874   -3.6466    0.8805 H         1 ATP         0.1379
     37 H3'        -0.7376   -1.2333    1.9867 H         1 ATP         0.1317
     38 HO3'        1.3408   -0.4870    2.3219 H         1 ATP         0.4175
     39 H2'        -0.0384   -0.0310    0.0096 H         1 ATP         0.0669
     40 HO2'        2.1463   -0.7958    0.0370 H         1 ATP         0.4064
     41 H1'        -0.4769   -2.1002   -1.8093 H         1 ATP         0.1285
     42 H8         -2.9569   -2.1323    1.0098 H         1 ATP         0.2954
     43 HN62       -6.3169    1.6552   -2.5012 H         1 ATP         0.4226
     44 H2         -2.3612    1.2343   -4.4957 H         1 ATP         0.0826
     45 H45        -4.5223    1.7976   -3.9117 H         1 ATP         0.4581
     46 H46        -5.0218   -0.8132    0.3804 H         1 ATP         0.5252
@<TRIPOS>BOND
     1    1    2 2
     2    1    3 1
     3    1    4 1
     4    1    8 1
     5    4   32 1
     6    5    6 2
     7    5    7 1
     8    5    8 1
     9    5   12 1
    10    9   10 2
    11    9   11 1
    12    9   12 1
    13    9   13 1
    14   11   33 1
    15   13   14 1
    16   14   15 1
    17   14   34 1
    18   14   35 1
    19   15   16 1
    20   15   17 1
    21   15   36 1
    22   16   21 1
    23   17   18 1
    24   17   19 1
    25   17   37 1
    26   18   38 1
    27   19   20 1
    28   19   21 1
    29   19   39 1
    30   20   40 1
    31   21   22 1
    32   21   41 1
    33   22   23 ar
    34   22   31 ar
    35   23   24 ar
    36   23   42 1
    37   24   25 ar
    38   24   46 1
    39   25   26 ar
    40   25   31 ar
    41   26   27 2
    42   26   28 ar
    43   27   43 1
    44   28   29 ar
    45   28   45 1
    46   29   30 ar
    47   29   44 1
    48   30   31 ar
@<TRIPOS>SUBSTRUCTURE
     1 ATP         1 GROUP 0 A     ****
@<TRIPOS>MOLECULE
[[[3,4-dihydroxy-5-(6-imino-7,8-dihydro-1~{H}-purin-8-ylium-9-yl)tetrahydrofuran-2-yl]methoxy-hydroxy-phosphoryl]oxy-oxido-phosphoryl] hydrogen phosphate
   46    48     1     0     0
SMALL
USER_CHARGES

@<TRIPOS>ATOM
      1 PG          1.9233    4.2821   -7.3240 P.3       1 ATP         1.5644
      2 O1G         1.0442    3.6435   -8.3760 O.co2     1 ATP        -0.8581
      3 O2G         3.3095    4.7804   -7.6670 O.co2     1 ATP        -0.8581
      4 O3G         1.0921    5.5008   -6.6238 O.3       1 ATP        -0.7962
      5 PB          0.8430    2.5831   -5.1541 P.3       1 ATP         1.6830
      6 O1B         0.0961    3.6631   -4.4035 O.co2     1 ATP        -0.8633
      7 O2B         0.1085    1.5875   -6.0241 O.co2     1 ATP        -0.8633
      8 O3B         2.0213    3.2832   -6.0390 O.3       1 ATP        -0.8097
      9 PA          2.8900    0.6162   -4.3161 P.3       1 ATP         1.7610
     10 O1A         4.0478    1.0418   -5.1716 O.2       1 ATP        -0.8554
     11 O2A         2.0339   -0.6169   -4.9198 O.3       1 ATP        -0.8102
     12 O3A         1.7740    1.7656   -4.0918 O.3       1 ATP        -0.7693
     13 O5'         3.2903    0.1346   -2.8241 O.3       1 ATP        -0.5757
     14 C5'         2.2816   -0.2918   -1.9206 C.3       1 ATP         0.1911
     15 C4'         2.7248    0.0226   -0.4980 C.3       1 ATP         0.1218
     16 O4'         2.4697    1.4219   -0.2462 O.3       1 ATP        -0.4138
     17 C3'         1.9404   -0.7419    0.5596 C.3       1 ATP         0.1338
     18 O3'         2.7418   -0.8086    1.7389 O.3       1 ATP        -0.5756
     19 C2'         0.7477    0.1630    0.7858 C.3       1 ATP         0.0673
     20 O2'         0.1373   -0.0577    2.0407 O.3       1 ATP        -0.5671
     21 C1'         1.3733    1.5427    0.6747 C.3       1 ATP         0.3795
     22 N9          0.4520    2.5240    0.1767 N.pl3     1 ATP        -0.4175
     23 C8          0.5691    3.2215   -0.9485 C.ar      1 ATP         0.2552
     24 N7         -0.4499    4.0551   -1.1342 N.pl3     1 ATP        -0.4731
     25 C5         -1.2618    3.8674   -0.0512 C.ar      1 ATP        -0.1295
     26 C6         -2.5420    4.5007    0.3120 C.ar      1 ATP         0.7196
     27 N6         -3.0874    5.3993   -0.4432 N.2       1 ATP        -0.8094
     28 N1         -3.0494    4.0205    1.5133 N.pl3     1 ATP        -0.8312
     29 C2         -2.3933    3.0527    2.2567 C.ar      1 ATP         0.6744
     30 N3         -1.2611    2.4796    1.9536 N.2       1 ATP        -0.5937
     31 C4         -0.7334    2.9358    0.7669 C.ar      1 ATP         0.2810
     32 HOG3        1.5306    6.0178   -5.9147 H         1 ATP         0.4152
     33 HOA2        1.6031   -0.5116   -5.7948 H         1 ATP         0.4571
     34 H5'1        1.3514    0.2330   -2.1577 H         1 ATP         0.0465
     35 H5'2        2.1280   -1.3678   -2.0460 H         1 ATP         0.0465
     36 H4'         3.8044   -0.1397   -0.4040 H         1 ATP         0.1379
     37 H3'         1.6764   -1.7639    0.2728 H         1 ATP         0.1317
     38 HO3'        2.2232   -1.2979    2.3953 H         1 ATP         0.4175
     39 H2'        -0.0011    0.0027    0.0003 H         1 ATP         0.0669
     40 HO2'       -0.1563   -0.9855    2.0596 H         1 ATP         0.4064
     41 H1'         1.7826    1.9024    1.6451 H         1 ATP         0.1285
     42 H8          1.3912    3.1285   -1.6365 H         1 ATP         0.2954
     43 HN62       -3.9637    5.7084   -0.0142 H         1 ATP         0.4226
     44 H2         -2.9317    2.7866    3.1796 H         1 ATP         0.0826
     45 H45        -3.9307    4.3923    1.8559 H         1 ATP         0.4581
     46 H46        -0.5835    4.6857   -1.9122 H         1 ATP         0.5252
@<TRIPOS>BOND
     1    1    2 2
     2    1    3 1
     3    1    4 1
     4    1    8 1
     5    4   32 1
     6    5    6 2
     7    5    7 1
     8    5    8 1
     9    5   12 1
    10    9   10 2
    11    9   11 1
    12    9   12 1
    13    9   13 1
    14   11   33 1
    15   13   14 1
    16   14   15 1
    17   14   34 1
    18   14   35 1
    19   15   16 1
    20   15   17 1
    21   15   36 1
    22   16   21 1
    23   17   18 1
    24   17   19 1
    25   17   37 1
    26   18   38 1
    27   19   20 1
    28   19   21 1
    29   19   39 1
    30   20   40 1
    31   21   22 1
    32   21   41 1
    33   22   23 ar
    34   22   31 ar
    35   23   24 ar
    36   23   42 1
    37   24   25 ar
    38   24   46 1
    39   25   26 ar
    40   25   31 ar
    41   26   27 2
    42   26   28 ar
    43   27   43 1
    44   28   29 ar
    45   28   45 1
    46   29   30 ar
    47   29   44 1
    48   30   31 ar
@<TRIPOS>SUBSTRUCTURE
     1 ATP         1 GROUP 0 A     ****
@<TRIPOS>MOLECULE
[[[3,4-dihydroxy-5-(6-imino-7,8-dihydro-1~{H}-purin-8-ylium-9-yl)tetrahydrofuran-2-yl]methoxy-hydroxy-phosphoryl]oxy-oxido-phosphoryl] hydrogen phosphate
   46    48     1     0     0
SMALL
USER_CHARGES

@<TRIPOS>ATOM
      1 PG         -1.6787    2.3205   -6.3943 P.3       1 ATP         1.5644
      2 O1G        -1.1711    3.4091   -7.3134 O.co2     1 ATP        -0.8581
      3 O2G        -2.7932    2.5920   -5.4086 O.co2     1 ATP        -0.8581
      4 O3G        -2.0915    1.0270   -7.3012 O.3       1 ATP        -0.7962
      5 PB          0.9823    1.0440   -6.1671 P.3       1 ATP         1.6830
      6 O1B         0.6687   -0.2179   -6.9397 O.co2     1 ATP        -0.8633
      7 O2B         1.7943    2.1581   -6.7893 O.co2     1 ATP        -0.8633
      8 O3B        -0.4140    1.6677   -5.5987 O.3       1 ATP        -0.8097
      9 PA          3.0915   -0.0732   -4.4165 P.3       1 ATP         1.7610
     10 O1A         4.2296    0.4201   -5.2621 O.2       1 ATP        -0.8554
     11 O2A         2.7765   -1.6519   -4.5791 O.3       1 ATP        -0.8102
     12 O3A         1.6695    0.6231   -4.7478 O.3       1 ATP        -0.7693
     13 O5'         3.2903    0.1346   -2.8241 O.3       1 ATP        -0.5757
     14 C5'         2.2816   -0.2918   -1.9206 C.3       1 ATP         0.1911
     15 C4'         2.7248    0.0226   -0.4980 C.3       1 ATP         0.1218
     16 O4'         2.4697    1.4219   -0.2462 O.3       1 ATP        -0.4138
     17 C3'         1.9404   -0.7419    0.5596 C.3       1 ATP         0.1338
     18 O3'         2.7418   -0.8086    1.7389 O.3       1 ATP        -0.5756
     19 C2'         0.7477    0.1630    0.7858 C.3       1 ATP         0.0673
     20 O2'         0.1373   -0.0577    2.0407 O.3       1 ATP        -0.5671
     21 C1'         1.3733    1.5427    0.6747 C.3       1 ATP         0.3795
     22 N9          0.4520    2.5240    0.1767 N.pl3     1 ATP        -0.4175
     23 C8          0.2216    2.8192   -1.0985 C.ar      1 ATP         0.2552
     24 N7         -0.6906    3.7763   -1.2384 N.pl3     1 ATP        -0.4731
     25 C5         -1.0575    4.1037    0.0366 C.ar      1 ATP        -0.1295
     26 C6         -2.0291    5.0943    0.5330 C.ar      1 ATP         0.7196
     27 N6         -2.7093    5.8371   -0.2800 N.2       1 ATP        -0.8094
     28 N1         -2.1051    5.1136    1.9204 N.pl3     1 ATP        -0.8312
     29 C2         -1.3354    4.2774    2.7129 C.ar      1 ATP         0.6744
     30 N3         -0.4707    3.3945    2.2944 N.2       1 ATP        -0.5937
     31 C4         -0.3734    3.3525    0.9220 C.ar      1 ATP         0.2810
     32 HOG3       -2.4418    0.2312   -6.8470 H         1 ATP         0.4152
     33 HOA2        3.4791   -2.3005   -4.3603 H         1 ATP         0.4571
     34 H5'1        1.3514    0.2330   -2.1577 H         1 ATP         0.0465
     35 H5'2        2.1280   -1.3678   -2.0460 H         1 ATP         0.0465
     36 H4'         3.8044   -0.1397   -0.4040 H         1 ATP         0.1379
     37 H3'         1.6764   -1.7639    0.2728 H         1 ATP         0.1317
     38 HO3'        3.5554   -1.2733    1.4914 H         1 ATP         0.4175
     39 H2'        -0.0011    0.0027    0.0003 H         1 ATP         0.0669
     40 HO2'        0.8082    0.1199    2.7232 H         1 ATP         0.4064
     41 H1'         1.7826    1.9024    1.6451 H         1 ATP         0.1285
     42 H8          0.7125    2.3429   -1.9292 H         1 ATP         0.2954
     43 HN62       -3.3217    6.4517    0.2629 H         1 ATP         0.4226
     44 H2         -1.5188    4.4223    3.7890 H         1 ATP         0.0826
     45 H45        -2.7470    5.7626    2.3665 H         1 ATP         0.4581
     46 H46        -1.0305    4.1680   -2.1054 H         1 ATP         0.5252
@<TRIPOS>BOND
     1    1    2 2
     2    1    3 1
     3    1    4 1
     4    1    8 1
     5    4   32 1
     6    5    6 2
     7    5    7 1
     8    5    8 1
     9    5   12 1
    10    9   10 2
    11    9   11 1
    12    9   12 1
    13    9   13 1
    14   11   33 1
    15   13   14 1
    16   14   15 1
    17   14   34 1
    18   14   35 1
    19   15   16 1
    20   15   17 1
    21   15   36 1
    22   16   21 1
    23   17   18 1
    24   17   19 1
    25   17   37 1
    26   18   38 1
    27   19   20 1
    28   19   21 1
    29   19   39 1
    30   20   40 1
    31   21   22 1
    32   21   41 1
    33   22   23 ar
    34   22   31 ar
    35   23   24 ar
    36   23   42 1
    37   24   25 ar
    38   24   46 1
    39   25   26 ar
    40   25   31 ar
    41   26   27 2
    42   26   28 ar
    43   27   43 1
    44   28   29 ar
    45   28   45 1
    46   29   30 ar
    47   29   44 1
    48   30   31 ar
@<TRIPOS>SUBSTRUCTURE
     1 ATP         1 GROUP 0 A     ****
@<TRIPOS>MOLECULE
[[[3,4-dihydroxy-5-(6-imino-7,8-dihydro-1~{H}-purin-8-ylium-9-yl)tetrahydrofuran-2-yl]methoxy-hydroxy-phosphoryl]oxy-oxido-phosphoryl] hydrogen phosphate
   46    48     1     0     0
SMALL
USER_CHARGES

@<TRIPOS>ATOM
      1 PG          4.6968    2.8158   -4.7574 P.3       1 ATP         1.5644
      2 O1G         3.2604    2.3759   -4.9329 O.co2     1 ATP        -0.8581
      3 O2G         5.3004    3.8753   -5.6521 O.co2     1 ATP        -0.8581
      4 O3G         4.9156    3.2633   -3.2024 O.3       1 ATP        -0.7962
      5 PB          5.5856    0.1299   -3.8867 P.3       1 ATP         1.6830
      6 O1B         6.6172   -0.8419   -4.4151 O.co2     1 ATP        -0.8633
      7 O2B         5.5413    0.4997   -2.4207 O.co2     1 ATP        -0.8633
      8 O3B         5.6586    1.4992   -4.7706 O.3       1 ATP        -0.8097
      9 PA          3.2593   -1.7000   -3.9192 P.3       1 ATP         1.7610
     10 O1A         3.9358   -3.0003   -4.2432 O.2       1 ATP        -0.8554
     11 O2A         1.8422   -1.4817   -4.6690 O.3       1 ATP        -0.8102
     12 O3A         4.1067   -0.3886   -4.3423 O.3       1 ATP        -0.7693
     13 O5'         2.9216   -1.4836   -2.3516 O.3       1 ATP        -0.5757
     14 C5'         2.2816   -0.2918   -1.9206 C.3       1 ATP         0.1911
     15 C4'         2.7248    0.0226   -0.4980 C.3       1 ATP         0.1218
     16 O4'         2.4697    1.4219   -0.2462 O.3       1 ATP        -0.4138
     17 C3'         1.9404   -0.7419    0.5596 C.3       1 ATP         0.1338
     18 O3'         2.7418   -0.8086    1.7389 O.3       1 ATP        -0.5756
     19 C2'         0.7477    0.1630    0.7858 C.3       1 ATP         0.0673
     20 O2'         0.1373   -0.0577    2.0407 O.3       1 ATP        -0.5671
     21 C1'         1.3733    1.5427    0.6747 C.3       1 ATP         0.3795
     22 N9          0.4520    2.5240    0.1767 N.pl3     1 ATP        -0.4175
     23 C8          0.2216    2.8192   -1.0985 C.ar      1 ATP         0.2552
     24 N7         -0.6906    3.7763   -1.2384 N.pl3     1 ATP        -0.4731
     25 C5         -1.0575    4.1037    0.0366 C.ar      1 ATP        -0.1295
     26 C6         -2.0291    5.0943    0.5330 C.ar      1 ATP         0.7196
     27 N6         -2.7093    5.8371   -0.2800 N.2       1 ATP        -0.8094
     28 N1         -2.1051    5.1136    1.9204 N.pl3     1 ATP        -0.8312
     29 C2         -1.3354    4.2774    2.7129 C.ar      1 ATP         0.6744
     30 N3         -0.4707    3.3945    2.2944 N.2       1 ATP        -0.5937
     31 C4         -0.3734    3.3525    0.9220 C.ar      1 ATP         0.2810
     32 HOG3        5.8037    3.5767   -2.9275 H         1 ATP         0.4152
     33 HOA2        1.8207   -1.4750   -5.6496 H         1 ATP         0.4571
     34 H5'1        2.5589    0.5217   -2.5976 H         1 ATP         0.0465
     35 H5'2        1.1982   -0.4388   -1.9617 H         1 ATP         0.0465
     36 H4'         3.8044   -0.1397   -0.4040 H         1 ATP         0.1379
     37 H3'         1.6764   -1.7639    0.2728 H         1 ATP         0.1317
     38 HO3'        2.2232   -1.2979    2.3953 H         1 ATP         0.4175
     39 H2'        -0.0011    0.0027    0.0003 H         1 ATP         0.0669
     40 HO2'       -0.6141    0.5574    2.1082 H         1 ATP         0.4064
     41 H1'         1.7826    1.9024    1.6451 H         1 ATP         0.1285
     42 H8          0.7125    2.3429   -1.9292 H         1 ATP         0.2954
     43 HN62       -3.3217    6.4517    0.2629 H         1 ATP         0.4226
     44 H2         -1.5188    4.4223    3.7890 H         1 ATP         0.0826
     45 H45        -2.7470    5.7626    2.3665 H         1 ATP         0.4581
     46 H46        -1.0305    4.1680   -2.1054 H         1 ATP         0.5252
@<TRIPOS>BOND
     1    1    2 2
     2    1    3 1
     3    1    4 1
     4    1    8 1
     5    4   32 1
     6    5    6 2
     7    5    7 1
     8    5    8 1
     9    5   12 1
    10    9   10 2
    11    9   11 1
    12    9   12 1
    13    9   13 1
    14   11   33 1
    15   13   14 1
    16   14   15 1
    17   14   34 1
    18   14   35 1
    19   15   16 1
    20   15   17 1
    21   15   36 1
    22   16   21 1
    23   17   18 1
    24   17   19 1
    25   17   37 1
    26   18   38 1
    27   19   20 1
    28   19   21 1
    29   19   39 1
    30   20   40 1
    31   21   22 1
    32   21   41 1
    33   22   23 ar
    34   22   31 ar
    35   23   24 ar
    36   23   42 1
    37   24   25 ar
    38   24   46 1
    39   25   26 ar
    40   25   31 ar
    41   26   27 2
    42   26   28 ar
    43   27   43 1
    44   28   29 ar
    45   28   45 1
    46   29   30 ar
    47   29   44 1
    48   30   31 ar
@<TRIPOS>SUBSTRUCTURE
     1 ATP         1 GROUP 0 A     ****
@<TRIPOS>MOLECULE
[[[3,4-dihydroxy-5-(6-imino-7,8-dihydro-1~{H}-purin-8-ylium-9-yl)tetrahydrofuran-2-yl]methoxy-hydroxy-phosphoryl]oxy-oxido-phosphoryl] hydrogen phosphate
   46    48     1     0     0
SMALL
USER_CHARGES

@<TRIPOS>ATOM
      1 PG          0.3890   -2.0652   -6.5794 P.3       1 ATP         1.5644
      2 O1G        -0.7909   -3.0038   -6.4587 O.co2     1 ATP        -0.8581
      3 O2G         0.6681   -1.3291   -7.8708 O.co2     1 ATP        -0.8581
      4 O3G         0.3100   -0.9746   -5.3668 O.3       1 ATP        -0.7962
      5 PB          3.2596   -2.2994   -5.8960 P.3       1 ATP         1.6830
      6 O1B         4.0942   -3.4078   -5.2938 O.co2     1 ATP        -0.8633
      7 O2B         3.7022   -1.5851   -7.1536 O.co2     1 ATP        -0.8633
      8 O3B         1.7397   -2.8510   -6.1139 O.3       1 ATP        -0.8097
      9 PA          3.9521   -0.1769   -3.9527 P.3       1 ATP         1.7610
     10 O1A         4.6810    0.7861   -4.8443 O.2       1 ATP        -0.8554
     11 O2A         4.9166   -1.1746   -3.1207 O.3       1 ATP        -0.8102
     12 O3A         2.9635   -1.1884   -4.7377 O.3       1 ATP        -0.7693
     13 O5'         3.0213    0.5153   -2.8245 O.3       1 ATP        -0.5757
     14 C5'         2.2816   -0.2918   -1.9206 C.3       1 ATP         0.1911
     15 C4'         2.7248    0.0226   -0.4980 C.3       1 ATP         0.1218
     16 O4'         2.4697    1.4219   -0.2462 O.3       1 ATP        -0.4138
     17 C3'         1.9404   -0.7419    0.5596 C.3       1 ATP         0.1338
     18 O3'         2.7418   -0.8086    1.7389 O.3       1 ATP        -0.5756
     19 C2'         0.7477    0.1630    0.7858 C.3       1 ATP         0.0673
     20 O2'         0.1373   -0.0577    2.0407 O.3       1 ATP        -0.5671
     21 C1'         1.3733    1.5427    0.6747 C.3       1 ATP         0.3795
     22 N9          0.4520    2.5240    0.1767 N.pl3     1 ATP        -0.4175
     23 C8          0.2216    2.8192   -1.0985 C.ar      1 ATP         0.2552
     24 N7         -0.6906    3.7763   -1.2384 N.pl3     1 ATP        -0.4731
     25 C5         -1.0575    4.1037    0.0366 C.ar      1 ATP        -0.1295
     26 C6         -2.0291    5.0943    0.5330 C.ar      1 ATP         0.7196
     27 N6         -2.7093    5.8371   -0.2800 N.2       1 ATP        -0.8094
     28 N1         -2.1051    5.1136    1.9204 N.pl3     1 ATP        -0.8312
     29 C2         -1.3354    4.2774    2.7129 C.ar      1 ATP         0.6744
     30 N3         -0.4707    3.3945    2.2944 N.2       1 ATP        -0.5937
     31 C4         -0.3734    3.3525    0.9220 C.ar      1 ATP         0.2810
     32 HOG3        1.0113   -0.2912   -5.3073 H         1 ATP         0.4152
     33 HOA2        5.5732   -0.7917   -2.5006 H         1 ATP         0.4571
     34 H5'1        1.2163   -0.0770   -2.0471 H         1 ATP         0.0465
     35 H5'2        2.4655   -1.3443   -2.1563 H         1 ATP         0.0465
     36 H4'         3.8044   -0.1397   -0.4040 H         1 ATP         0.1379
     37 H3'         1.6764   -1.7639    0.2728 H         1 ATP         0.1317
     38 HO3'        2.2232   -1.2979    2.3953 H         1 ATP         0.4175
     39 H2'        -0.0011    0.0027    0.0003 H         1 ATP         0.0669
     40 HO2'       -0.6141    0.5574    2.1082 H         1 ATP         0.4064
     41 H1'         1.7826    1.9024    1.6451 H         1 ATP         0.1285
     42 H8          0.7125    2.3429   -1.9292 H         1 ATP         0.2954
     43 HN62       -3.3217    6.4517    0.2629 H         1 ATP         0.4226
     44 H2         -1.5188    4.4223    3.7890 H         1 ATP         0.0826
     45 H45        -2.7470    5.7626    2.3665 H         1 ATP         0.4581
     46 H46        -1.0305    4.1680   -2.1054 H         1 ATP         0.5252
@<TRIPOS>BOND
     1    1    2 2
     2    1    3 1
     3    1    4 1
     4    1    8 1
     5    4   32 1
     6    5    6 2
     7    5    7 1
     8    5    8 1
     9    5   12 1
    10    9   10 2
    11    9   11 1
    12    9   12 1
    13    9   13 1
    14   11   33 1
    15   13   14 1
    16   14   15 1
    17   14   34 1
    18   14   35 1
    19   15   16 1
    20   15   17 1
    21   15   36 1
    22   16   21 1
    23   17   18 1
    24   17   19 1
    25   17   37 1
    26   18   38 1
    27   19   20 1
    28   19   21 1
    29   19   39 1
    30   20   40 1
    31   21   22 1
    32   21   41 1
    33   22   23 ar
    34   22   31 ar
    35   23   24 ar
    36   23   42 1
    37   24   25 ar
    38   24   46 1
    39   25   26 ar
    40   25   31 ar
    41   26   27 2
    42   26   28 ar
    43   27   43 1
    44   28   29 ar
    45   28   45 1
    46   29   30 ar
    47   29   44 1
    48   30   31 ar
@<TRIPOS>SUBSTRUCTURE
     1 ATP         1 GROUP 0 A     ****
@<TRIPOS>MOLECULE
[[[3,4-dihydroxy-5-(6-imino-7,8-dihydro-1~{H}-purin-8-ylium-9-yl)tetrahydrofuran-2-yl]methoxy-hydroxy-phosphoryl]oxy-oxido-phosphoryl] hydrogen phosphate
   46    48     1     0     0
SMALL
USER_CHARGES

@<TRIPOS>ATOM
      1 PG         -0.2883    2.1905   -7.6087 P.3       1 ATP         1.5644
      2 O1G         0.6510    2.8636   -8.5845 O.co2     1 ATP        -0.8581
      3 O2G        -1.6224    2.8115   -7.2593 O.co2     1 ATP        -0.8581
      4 O3G        -0.5445    0.6575   -8.1092 O.3       1 ATP        -0.7962
      5 PB          1.1513    2.8747   -5.1144 P.3       1 ATP         1.6830
      6 O1B         2.2940    3.6407   -5.7432 O.co2     1 ATP        -0.8633
      7 O2B         0.0182    3.5958   -4.4188 O.co2     1 ATP        -0.8633
      8 O3B         0.5227    1.8659   -6.2319 O.3       1 ATP        -0.8097
      9 PA          2.8900    0.6162   -4.3161 P.3       1 ATP         1.7610
     10 O1A         4.0478    1.0418   -5.1716 O.2       1 ATP        -0.8554
     11 O2A         2.0339   -0.6169   -4.9198 O.3       1 ATP        -0.8102
     12 O3A         1.7740    1.7656   -4.0918 O.3       1 ATP        -0.7693
     13 O5'         3.2903    0.1346   -2.8241 O.3       1 ATP        -0.5757
     14 C5'         2.2816   -0.2918   -1.9206 C.3       1 ATP         0.1911
     15 C4'         2.7248    0.0226   -0.4980 C.3       1 ATP         0.1218
     16 O4'         2.4697    1.4219   -0.2462 O.3       1 ATP        -0.4138
     17 C3'         1.9404   -0.7419    0.5596 C.3       1 ATP         0.1338
     18 O3'         2.7418   -0.8086    1.7389 O.3       1 ATP        -0.5756
     19 C2'         0.7477    0.1630    0.7858 C.3       1 ATP         0.0673
     20 O2'         0.1373   -0.0577    2.0407 O.3       1 ATP        -0.5671
     21 C1'         1.3733    1.5427    0.6747 C.3       1 ATP         0.3795
     22 N9          0.4520    2.5240    0.1767 N.pl3     1 ATP        -0.4175
     23 C8         -0.2004    2.4829   -0.9804 C.ar      1 ATP         0.2552
     24 N7         -0.9830    3.5431   -1.1568 N.pl3     1 ATP        -0.4731
     25 C5         -0.8095    4.3012   -0.0331 C.ar      1 ATP        -0.1295
     26 C6         -1.4065    5.5904    0.3585 C.ar      1 ATP         0.7196
     27 N6         -2.2501    6.2030   -0.4084 N.2       1 ATP        -0.8094
     28 N1         -0.9585    6.0272    1.5994 N.pl3     1 ATP        -0.8312
     29 C2         -0.0508    5.3009    2.3532 C.ar      1 ATP         0.6744
     30 N3          0.4890    4.1592    2.0257 N.2       1 ATP        -0.5937
     31 C4          0.0637    3.7006    0.7995 C.ar      1 ATP         0.2810
     32 HOG3       -1.1376    0.0856   -7.5766 H         1 ATP         0.4152
     33 HOA2        2.4845   -1.4733   -5.0803 H         1 ATP         0.4571
     34 H5'1        1.3514    0.2330   -2.1577 H         1 ATP         0.0465
     35 H5'2        2.1280   -1.3678   -2.0460 H         1 ATP         0.0465
     36 H4'         3.8044   -0.1397   -0.4040 H         1 ATP         0.1379
     37 H3'         1.6764   -1.7639    0.2728 H         1 ATP         0.1317
     38 HO3'        3.5554   -1.2733    1.4914 H         1 ATP         0.4175
     39 H2'        -0.0011    0.0027    0.0003 H         1 ATP         0.0669
     40 HO2'       -0.1563   -0.9855    2.0596 H         1 ATP         0.4064
     41 H1'         1.7826    1.9024    1.6451 H         1 ATP         0.1285
     42 H8         -0.1116    1.6863   -1.6984 H         1 ATP         0.2954
     43 HN62       -2.5420    7.0730    0.0447 H         1 ATP         0.4226
     44 H2          0.1969    5.7893    3.3086 H         1 ATP         0.0826
     45 H45        -1.3097    6.9080    1.9642 H         1 ATP         0.4581
     46 H46        -1.5735    3.7351   -1.9538 H         1 ATP         0.5252
@<TRIPOS>BOND
     1    1    2 2
     2    1    3 1
     3    1    4 1
     4    1    8 1
     5    4   32 1
     6    5    6 2
     7    5    7 1
     8    5    8 1
     9    5   12 1
    10    9   10 2
    11    9   11 1
    12    9   12 1
    13    9   13 1
    14   11   33 1
    15   13   14 1
    16   14   15 1
    17   14   34 1
    18   14   35 1
    19   15   16 1
    20   15   17 1
    21   15   36 1
    22   16   21 1
    23   17   18 1
    24   17   19 1
    25   17   37 1
    26   18   38 1
    27   19   20 1
    28   19   21 1
    29   19   39 1
    30   20   40 1
    31   21   22 1
    32   21   41 1
    33   22   23 ar
    34   22   31 ar
    35   23   24 ar
    36   23   42 1
    37   24   25 ar
    38   24   46 1
    39   25   26 ar
    40   25   31 ar
    41   26   27 2
    42   26   28 ar
    43   27   43 1
    44   28   29 ar
    45   28   45 1
    46   29   30 ar
    47   29   44 1
    48   30   31 ar
@<TRIPOS>SUBSTRUCTURE
     1 ATP         1 GROUP 0 A     ****
@<TRIPOS>MOLECULE
[[[3,4-dihydroxy-5-(6-imino-7,8-dihydro-1~{H}-purin-8-ylium-9-yl)tetrahydrofuran-2-yl]methoxy-hydroxy-phosphoryl]oxy-oxido-phosphoryl] hydrogen phosphate
   46    48     1     0     0
SMALL
USER_CHARGES

@<TRIPOS>ATOM
      1 PG          6.2136   -3.3246   -6.9791 P.3       1 ATP         1.5644
      2 O1G         5.5246   -3.0385   -8.2947 O.co2     1 ATP        -0.8581
      3 O2G         6.5645   -4.7397   -6.5767 O.co2     1 ATP        -0.8581
      4 O3G         7.5634   -2.4101   -6.8911 O.3       1 ATP        -0.7962
      5 PB          4.8620   -1.0838   -5.5955 P.3       1 ATP         1.6830
      6 O1B         6.0740   -0.1978   -5.4123 O.co2     1 ATP        -0.8633
      7 O2B         3.8297   -0.7831   -6.6593 O.co2     1 ATP        -0.8633
      8 O3B         5.3655   -2.6253   -5.7748 O.3       1 ATP        -0.8097
      9 PA          2.8587   -2.1496   -3.6950 P.3       1 ATP         1.7610
     10 O1A         3.0952   -3.6247   -3.8434 O.2       1 ATP        -0.8554
     11 O2A         1.6310   -1.5797   -4.5815 O.3       1 ATP        -0.8102
     12 O3A         4.1060   -1.2287   -4.1564 O.3       1 ATP        -0.7693
     13 O5'         2.5245   -1.6648   -2.1878 O.3       1 ATP        -0.5757
     14 C5'         2.2816   -0.2918   -1.9206 C.3       1 ATP         0.1911
     15 C4'         2.7248    0.0226   -0.4980 C.3       1 ATP         0.1218
     16 O4'         2.4697    1.4219   -0.2462 O.3       1 ATP        -0.4138
     17 C3'         1.9404   -0.7419    0.5596 C.3       1 ATP         0.1338
     18 O3'         2.7418   -0.8086    1.7389 O.3       1 ATP        -0.5756
     19 C2'         0.7477    0.1630    0.7858 C.3       1 ATP         0.0673
     20 O2'         0.1373   -0.0577    2.0407 O.3       1 ATP        -0.5671
     21 C1'         1.3733    1.5427    0.6747 C.3       1 ATP         0.3795
     22 N9          0.4520    2.5240    0.1767 N.pl3     1 ATP        -0.4175
     23 C8          0.2216    2.8192   -1.0985 C.ar      1 ATP         0.2552
     24 N7         -0.6906    3.7763   -1.2384 N.pl3     1 ATP        -0.4731
     25 C5         -1.0575    4.1037    0.0366 C.ar      1 ATP        -0.1295
     26 C6         -2.0291    5.0943    0.5330 C.ar      1 ATP         0.7196
     27 N6         -2.7093    5.8371   -0.2800 N.2       1 ATP        -0.8094
     28 N1         -2.1051    5.1136    1.9204 N.pl3     1 ATP        -0.8312
     29 C2         -1.3354    4.2774    2.7129 C.ar      1 ATP         0.6744
     30 N3         -0.4707    3.3945    2.2944 N.2       1 ATP        -0.5937
     31 C4         -0.3734    3.3525    0.9220 C.ar      1 ATP         0.2810
     32 HOG3        8.1249   -2.4826   -6.0900 H         1 ATP         0.4152
     33 HOA2        0.7307   -1.9389   -4.4311 H         1 ATP         0.4571
     34 H5'1        2.8432    0.3119   -2.6398 H         1 ATP         0.0465
     35 H5'2        1.2128   -0.0927   -2.0428 H         1 ATP         0.0465
     36 H4'         3.8044   -0.1397   -0.4040 H         1 ATP         0.1379
     37 H3'         1.6764   -1.7639    0.2728 H         1 ATP         0.1317
     38 HO3'        2.2232   -1.2979    2.3953 H         1 ATP         0.4175
     39 H2'        -0.0011    0.0027    0.0003 H         1 ATP         0.0669
     40 HO2'       -0.6141    0.5574    2.1082 H         1 ATP         0.4064
     41 H1'         1.7826    1.9024    1.6451 H         1 ATP         0.1285
     42 H8          0.7125    2.3429   -1.9292 H         1 ATP         0.2954
     43 HN62       -3.3217    6.4517    0.2629 H         1 ATP         0.4226
     44 H2         -1.5188    4.4223    3.7890 H         1 ATP         0.0826
     45 H45        -2.7470    5.7626    2.3665 H         1 ATP         0.4581
     46 H46        -1.0305    4.1680   -2.1054 H         1 ATP         0.5252
@<TRIPOS>BOND
     1    1    2 2
     2    1    3 1
     3    1    4 1
     4    1    8 1
     5    4   32 1
     6    5    6 2
     7    5    7 1
     8    5    8 1
     9    5   12 1
    10    9   10 2
    11    9   11 1
    12    9   12 1
    13    9   13 1
    14   11   33 1
    15   13   14 1
    16   14   15 1
    17   14   34 1
    18   14   35 1
    19   15   16 1
    20   15   17 1
    21   15   36 1
    22   16   21 1
    23   17   18 1
    24   17   19 1
    25   17   37 1
    26   18   38 1
    27   19   20 1
    28   19   21 1
    29   19   39 1
    30   20   40 1
    31   21   22 1
    32   21   41 1
    33   22   23 ar
    34   22   31 ar
    35   23   24 ar
    36   23   42 1
    37   24   25 ar
    38   24   46 1
    39   25   26 ar
    40   25   31 ar
    41   26   27 2
    42   26   28 ar
    43   27   43 1
    44   28   29 ar
    45   28   45 1
    46   29   30 ar
    47   29   44 1
    48   30   31 ar
@<TRIPOS>SUBSTRUCTURE
     1 ATP         1 GROUP 0 A     ****
@<TRIPOS>MOLECULE
[[[3,4-dihydroxy-5-(6-imino-7,8-dihydro-1~{H}-purin-8-ylium-9-yl)tetrahydrofuran-2-yl]methoxy-hydroxy-phosphoryl]oxy-oxido-phosphoryl] hydrogen phosphate
   46    48     1     0     0
SMALL
USER_CHARGES

@<TRIPOS>ATOM
      1 PG          5.7215    1.5581   -4.7986 P.3       1 ATP         1.5644
      2 O1G         6.4598    2.1656   -5.9705 O.co2     1 ATP        -0.8581
      3 O2G         5.7140    2.2378   -3.4475 O.co2     1 ATP        -0.8581
      4 O3G         4.1767    1.2786   -5.2477 O.3       1 ATP        -0.7962
      5 PB          5.6461   -1.1567   -3.6212 P.3       1 ATP         1.6830
      6 O1B         6.3354   -2.4570   -3.9704 O.co2     1 ATP        -0.8633
      7 O2B         5.6442   -0.6313   -2.2028 O.co2     1 ATP        -0.8633
      8 O3B         6.2055    0.0122   -4.6123 O.3       1 ATP        -0.8097
      9 PA          2.8587   -2.1496   -3.6950 P.3       1 ATP         1.7610
     10 O1A         3.0952   -3.6247   -3.8434 O.2       1 ATP        -0.8554
     11 O2A         1.6310   -1.5797   -4.5815 O.3       1 ATP        -0.8102
     12 O3A         4.1060   -1.2287   -4.1564 O.3       1 ATP        -0.7693
     13 O5'         2.5245   -1.6648   -2.1878 O.3       1 ATP        -0.5757
     14 C5'         2.2816   -0.2918   -1.9206 C.3       1 ATP         0.1911
     15 C4'         2.7248    0.0226   -0.4980 C.3       1 ATP         0.1218
     16 O4'         2.4697    1.4219   -0.2462 O.3       1 ATP        -0.4138
     17 C3'         1.9404   -0.7419    0.5596 C.3       1 ATP         0.1338
     18 O3'         2.7418   -0.8086    1.7389 O.3       1 ATP        -0.5756
     19 C2'         0.7477    0.1630    0.7858 C.3       1 ATP         0.0673
     20 O2'         0.1373   -0.0577    2.0407 O.3       1 ATP        -0.5671
     21 C1'         1.3733    1.5427    0.6747 C.3       1 ATP         0.3795
     22 N9          0.4520    2.5240    0.1767 N.pl3     1 ATP        -0.4175
     23 C8          0.2216    2.8192   -1.0985 C.ar      1 ATP         0.2552
     24 N7         -0.6906    3.7763   -1.2384 N.pl3     1 ATP        -0.4731
     25 C5         -1.0575    4.1037    0.0366 C.ar      1 ATP        -0.1295
     26 C6         -2.0291    5.0943    0.5330 C.ar      1 ATP         0.7196
     27 N6         -2.7093    5.8371   -0.2800 N.2       1 ATP        -0.8094
     28 N1         -2.1051    5.1136    1.9204 N.pl3     1 ATP        -0.8312
     29 C2         -1.3354    4.2774    2.7129 C.ar      1 ATP         0.6744
     30 N3         -0.4707    3.3945    2.2944 N.2       1 ATP        -0.5937
     31 C4         -0.3734    3.3525    0.9220 C.ar      1 ATP         0.2810
     32 HOG3        3.5643    0.8827   -4.5915 H         1 ATP         0.4152
     33 HOA2        0.7307   -1.9389   -4.4311 H         1 ATP         0.4571
     34 H5'1        2.8432    0.3119   -2.6398 H         1 ATP         0.0465
     35 H5'2        1.2128   -0.0927   -2.0428 H         1 ATP         0.0465
     36 H4'         3.8044   -0.1397   -0.4040 H         1 ATP         0.1379
     37 H3'         1.6764   -1.7639    0.2728 H         1 ATP         0.1317
     38 HO3'        2.2232   -1.2979    2.3953 H         1 ATP         0.4175
     39 H2'        -0.0011    0.0027    0.0003 H         1 ATP         0.0669
     40 HO2'       -0.1563   -0.9855    2.0596 H         1 ATP         0.4064
     41 H1'         1.7826    1.9024    1.6451 H         1 ATP         0.1285
     42 H8          0.7125    2.3429   -1.9292 H         1 ATP         0.2954
     43 HN62       -3.3217    6.4517    0.2629 H         1 ATP         0.4226
     44 H2         -1.5188    4.4223    3.7890 H         1 ATP         0.0826
     45 H45        -2.7470    5.7626    2.3665 H         1 ATP         0.4581
     46 H46        -1.0305    4.1680   -2.1054 H         1 ATP         0.5252
@<TRIPOS>BOND
     1    1    2 2
     2    1    3 1
     3    1    4 1
     4    1    8 1
     5    4   32 1
     6    5    6 2
     7    5    7 1
     8    5    8 1
     9    5   12 1
    10    9   10 2
    11    9   11 1
    12    9   12 1
    13    9   13 1
    14   11   33 1
    15   13   14 1
    16   14   15 1
    17   14   34 1
    18   14   35 1
    19   15   16 1
    20   15   17 1
    21   15   36 1
    22   16   21 1
    23   17   18 1
    24   17   19 1
    25   17   37 1
    26   18   38 1
    27   19   20 1
    28   19   21 1
    29   19   39 1
    30   20   40 1
    31   21   22 1
    32   21   41 1
    33   22   23 ar
    34   22   31 ar
    35   23   24 ar
    36   23   42 1
    37   24   25 ar
    38   24   46 1
    39   25   26 ar
    40   25   31 ar
    41   26   27 2
    42   26   28 ar
    43   27   43 1
    44   28   29 ar
    45   28   45 1
    46   29   30 ar
    47   29   44 1
    48   30   31 ar
@<TRIPOS>SUBSTRUCTURE
     1 ATP         1 GROUP 0 A     ****
@<TRIPOS>MOLECULE
[[[3,4-dihydroxy-5-(6-imino-7,8-dihydro-1~{H}-purin-8-ylium-9-yl)tetrahydrofuran-2-yl]methoxy-hydroxy-phosphoryl]oxy-oxido-phosphoryl] hydrogen phosphate
   46    48     1     0     0
SMALL
USER_CHARGES

@<TRIPOS>ATOM
      1 PG         -5.4536   -4.0988    3.5173 P.3       1 ATP         1.5644
      2 O1G        -4.2842   -3.7975    4.4280 O.co2     1 ATP        -0.8581
      3 O2G        -6.8754   -4.0271    4.0279 O.co2     1 ATP        -0.8581
      4 O3G        -5.3313   -3.1583    2.1881 O.3       1 ATP        -0.7962
      5 PB         -3.9395   -6.1162    1.9683 P.3       1 ATP         1.6830
      6 O1B        -4.1619   -7.5850    1.6840 O.co2     1 ATP        -0.8633
      7 O2B        -3.6255   -5.1446    0.8524 O.co2     1 ATP        -0.8633
      8 O3B        -5.2152   -5.5498    2.8128 O.3       1 ATP        -0.8097
      9 PA         -1.2134   -6.3366    3.1002 P.3       1 ATP         1.7610
     10 O1A        -0.9113   -7.7788    2.8130 O.2       1 ATP        -0.8554
     11 O2A        -0.7009   -5.8243    4.5469 O.3       1 ATP        -0.8102
     12 O3A        -2.7914   -5.9813    3.1204 O.3       1 ATP        -0.7693
     13 O5'        -0.5687   -5.2869    2.0510 O.3       1 ATP        -0.5757
     14 C5'        -0.7840   -3.8935    2.2172 C.3       1 ATP         0.1911
     15 C4'        -0.0724   -3.1466    1.1027 C.3       1 ATP         0.1218
     16 O4'        -0.8674   -3.1929   -0.0945 O.3       1 ATP        -0.4138
     17 C3'         0.1338   -1.6715    1.4027 C.3       1 ATP         0.1338
     18 O3'         1.2893   -1.4445    2.1808 O.3       1 ATP        -0.5756
     19 C2'         0.2158   -1.0724    0.0128 C.3       1 ATP         0.0673
     20 O2'         1.5141   -1.2448   -0.5513 O.3       1 ATP        -0.5671
     21 C1'        -0.7897   -1.9176   -0.7583 C.3       1 ATP         0.3795
     22 N9         -2.1040   -1.3333   -0.7704 N.pl3     1 ATP        -0.4175
     23 C8         -3.0590   -1.5123    0.1363 C.ar      1 ATP         0.2552
     24 N7         -4.1655   -0.8354   -0.1554 N.pl3     1 ATP        -0.4731
     25 C5         -3.8852   -0.1874   -1.3253 C.ar      1 ATP        -0.1295
     26 C6         -4.7113    0.7160   -2.1458 C.ar      1 ATP         0.7196
     27 N6         -5.9213    1.0209   -1.8021 N.2       1 ATP        -0.8094
     28 N1         -4.0411    1.1673   -3.2764 N.pl3     1 ATP        -0.8312
     29 C2         -2.7403    0.7865   -3.5638 C.ar      1 ATP         0.6744
     30 N3         -1.9921   -0.0108   -2.8519 N.2       1 ATP        -0.5937
     31 C4         -2.6302   -0.4747   -1.7239 C.ar      1 ATP         0.2810
     32 HOG3       -6.0216   -3.2371    1.4955 H         1 ATP         0.4152
     33 HOA2       -1.0460   -6.2616    5.3543 H         1 ATP         0.4571
     34 H5'1       -1.8598   -3.6968    2.1850 H         1 ATP         0.0465
     35 H5'2       -0.3933   -3.5903    3.1931 H         1 ATP         0.0465
     36 H4'         0.8874   -3.6466    0.8805 H         1 ATP         0.1379
     37 H3'        -0.7376   -1.2333    1.9867 H         1 ATP         0.1317
     38 HO3'        1.3408   -0.4870    2.3219 H         1 ATP         0.4175
     39 H2'        -0.0384   -0.0310    0.0096 H         1 ATP         0.0669
     40 HO2'        2.1463   -0.7958    0.0370 H         1 ATP         0.4064
     41 H1'        -0.4769   -2.1002   -1.8093 H         1 ATP         0.1285
     42 H8         -2.9569   -2.1323    1.0098 H         1 ATP         0.2954
     43 HN62       -6.3169    1.6552   -2.5012 H         1 ATP         0.4226
     44 H2         -2.3612    1.2343   -4.4957 H         1 ATP         0.0826
     45 H45        -4.5223    1.7976   -3.9117 H         1 ATP         0.4581
     46 H46        -5.0218   -0.8132    0.3804 H         1 ATP         0.5252
@<TRIPOS>BOND
     1    1    2 2
     2    1    3 1
     3    1    4 1
     4    1    8 1
     5    4   32 1
     6    5    6 2
     7    5    7 1
     8    5    8 1
     9    5   12 1
    10    9   10 2
    11    9   11 1
    12    9   12 1
    13    9   13 1
    14   11   33 1
    15   13   14 1
    16   14   15 1
    17   14   34 1
    18   14   35 1
    19   15   16 1
    20   15   17 1
    21   15   36 1
    22   16   21 1
    23   17   18 1
    24   17   19 1
    25   17   37 1
    26   18   38 1
    27   19   20 1
    28   19   21 1
    29   19   39 1
    30   20   40 1
    31   21   22 1
    32   21   41 1
    33   22   23 ar
    34   22   31 ar
    35   23   24 ar
    36   23   42 1
    37   24   25 ar
    38   24   46 1
    39   25   26 ar
    40   25   31 ar
    41   26   27 2
    42   26   28 ar
    43   27   43 1
    44   28   29 ar
    45   28   45 1
    46   29   30 ar
    47   29   44 1
    48   30   31 ar
@<TRIPOS>SUBSTRUCTURE
     1 ATP         1 GROUP 0 A     ****
@<TRIPOS>MOLECULE
[[[3,4-dihydroxy-5-(6-imino-7,8-dihydro-1~{H}-purin-8-ylium-9-yl)tetrahydrofuran-2-yl]methoxy-hydroxy-phosphoryl]oxy-oxido-phosphoryl] hydrogen phosphate
   46    48     1     0     0
SMALL
USER_CHARGES

@<TRIPOS>ATOM
      1 PG          3.5009    1.4122   -6.3993 P.3       1 ATP         1.5644
      2 O1G         4.5585    2.3349   -6.9630 O.co2     1 ATP        -0.8581
      3 O2G         2.9716    1.6021   -4.9953 O.co2     1 ATP        -0.8581
      4 O3G         2.2359    1.3818   -7.4313 O.3       1 ATP        -0.7962
      5 PB          3.2099   -1.5316   -6.2917 P.3       1 ATP         1.6830
      6 O1B         1.8939   -1.5055   -7.0368 O.co2     1 ATP        -0.8633
      7 O2B         4.1811   -2.6782   -6.4638 O.co2     1 ATP        -0.8633
      8 O3B         3.9971   -0.1310   -6.5752 O.3       1 ATP        -0.8097
      9 PA          2.1493   -2.2871   -3.6336 P.3       1 ATP         1.7610
     10 O1A         2.4555   -3.7486   -3.7880 O.2       1 ATP        -0.8554
     11 O2A         0.5901   -1.9079   -3.8415 O.3       1 ATP        -0.8102
     12 O3A         2.9062   -1.3352   -4.7002 O.3       1 ATP        -0.7693
     13 O5'         2.5245   -1.6648   -2.1878 O.3       1 ATP        -0.5757
     14 C5'         2.2816   -0.2918   -1.9206 C.3       1 ATP         0.1911
     15 C4'         2.7248    0.0226   -0.4980 C.3       1 ATP         0.1218
     16 O4'         2.4697    1.4219   -0.2462 O.3       1 ATP        -0.4138
     17 C3'         1.9404   -0.7419    0.5596 C.3       1 ATP         0.1338
     18 O3'         2.7418   -0.8086    1.7389 O.3       1 ATP        -0.5756
     19 C2'         0.7477    0.1630    0.7858 C.3       1 ATP         0.0673
     20 O2'         0.1373   -0.0577    2.0407 O.3       1 ATP        -0.5671
     21 C1'         1.3733    1.5427    0.6747 C.3       1 ATP         0.3795
     22 N9          0.4520    2.5240    0.1767 N.pl3     1 ATP        -0.4175
     23 C8          0.2216    2.8192   -1.0985 C.ar      1 ATP         0.2552
     24 N7         -0.6906    3.7763   -1.2384 N.pl3     1 ATP        -0.4731
     25 C5         -1.0575    4.1037    0.0366 C.ar      1 ATP        -0.1295
     26 C6         -2.0291    5.0943    0.5330 C.ar      1 ATP         0.7196
     27 N6         -2.7093    5.8371   -0.2800 N.2       1 ATP        -0.8094
     28 N1         -2.1051    5.1136    1.9204 N.pl3     1 ATP        -0.8312
     29 C2         -1.3354    4.2774    2.7129 C.ar      1 ATP         0.6744
     30 N3         -0.4707    3.3945    2.2944 N.2       1 ATP        -0.5937
     31 C4         -0.3734    3.3525    0.9220 C.ar      1 ATP         0.2810
     32 HOG3        1.4619    0.8234   -7.2045 H         1 ATP         0.4152
     33 HOA2        0.1642   -2.1077   -4.7022 H         1 ATP         0.4571
     34 H5'1        2.8432    0.3119   -2.6398 H         1 ATP         0.0465
     35 H5'2        1.2128   -0.0927   -2.0428 H         1 ATP         0.0465
     36 H4'         3.8044   -0.1397   -0.4040 H         1 ATP         0.1379
     37 H3'         1.6764   -1.7639    0.2728 H         1 ATP         0.1317
     38 HO3'        2.2232   -1.2979    2.3953 H         1 ATP         0.4175
     39 H2'        -0.0011    0.0027    0.0003 H         1 ATP         0.0669
     40 HO2'       -0.1563   -0.9855    2.0596 H         1 ATP         0.4064
     41 H1'         1.7826    1.9024    1.6451 H         1 ATP         0.1285
     42 H8          0.7125    2.3429   -1.9292 H         1 ATP         0.2954
     43 HN62       -3.3217    6.4517    0.2629 H         1 ATP         0.4226
     44 H2         -1.5188    4.4223    3.7890 H         1 ATP         0.0826
     45 H45        -2.7470    5.7626    2.3665 H         1 ATP         0.4581
     46 H46        -1.0305    4.1680   -2.1054 H         1 ATP         0.5252
@<TRIPOS>BOND
     1    1    2 2
     2    1    3 1
     3    1    4 1
     4    1    8 1
     5    4   32 1
     6    5    6 2
     7    5    7 1
     8    5    8 1
     9    5   12 1
    10    9   10 2
    11    9   11 1
    12    9   12 1
    13    9   13 1
    14   11   33 1
    15   13   14 1
    16   14   15 1
    17   14   34 1
    18   14   35 1
    19   15   16 1
    20   15   17 1
    21   15   36 1
    22   16   21 1
    23   17   18 1
    24   17   19 1
    25   17   37 1
    26   18   38 1
    27   19   20 1
    28   19   21 1
    29   19   39 1
    30   20   40 1
    31   21   22 1
    32   21   41 1
    33   22   23 ar
    34   22   31 ar
    35   23   24 ar
    36   23   42 1
    37   24   25 ar
    38   24   46 1
    39   25   26 ar
    40   25   31 ar
    41   26   27 2
    42   26   28 ar
    43   27   43 1
    44   28   29 ar
    45   28   45 1
    46   29   30 ar
    47   29   44 1
    48   30   31 ar
@<TRIPOS>SUBSTRUCTURE
     1 ATP         1 GROUP 0 A     ****
@<TRIPOS>MOLECULE
[[[3,4-dihydroxy-5-(6-imino-7,8-dihydro-1~{H}-purin-8-ylium-9-yl)tetrahydrofuran-2-yl]methoxy-hydroxy-phosphoryl]oxy-oxido-phosphoryl] hydrogen phosphate
   46    48     1     0     0
SMALL
USER_CHARGES

@<TRIPOS>ATOM
      1 PG         -5.8384   -7.4783    1.6532 P.3       1 ATP         1.5644
      2 O1G        -7.2305   -6.8901    1.7138 O.co2     1 ATP        -0.8581
      3 O2G        -5.0257   -7.6838    2.9121 O.co2     1 ATP        -0.8581
      4 O3G        -5.9088   -8.8946    0.8438 O.3       1 ATP        -0.7962
      5 PB         -4.4251   -5.0846    0.6358 P.3       1 ATP         1.6830
      6 O1B        -3.4973   -4.8490   -0.5352 O.co2     1 ATP        -0.8633
      7 O2B        -5.6082   -4.1768    0.8887 O.co2     1 ATP        -0.8633
      8 O3B        -4.9510   -6.6281    0.5817 O.3       1 ATP        -0.8097
      9 PA         -2.2443   -6.0789    2.3728 P.3       1 ATP         1.7610
     10 O1A        -2.3284   -7.4946    1.8805 O.2       1 ATP        -0.8554
     11 O2A        -2.1507   -5.9380    3.9819 O.3       1 ATP        -0.8102
     12 O3A        -3.5279   -5.1691    1.9965 O.3       1 ATP        -0.7693
     13 O5'        -0.9724   -5.2440    1.8220 O.3       1 ATP        -0.5757
     14 C5'        -0.7840   -3.8935    2.2172 C.3       1 ATP         0.1911
     15 C4'        -0.0724   -3.1466    1.1027 C.3       1 ATP         0.1218
     16 O4'        -0.8674   -3.1929   -0.0945 O.3       1 ATP        -0.4138
     17 C3'         0.1338   -1.6715    1.4027 C.3       1 ATP         0.1338
     18 O3'         1.2893   -1.4445    2.1808 O.3       1 ATP        -0.5756
     19 C2'         0.2158   -1.0724    0.0128 C.3       1 ATP         0.0673
     20 O2'         1.5141   -1.2448   -0.5513 O.3       1 ATP        -0.5671
     21 C1'        -0.7897   -1.9176   -0.7583 C.3       1 ATP         0.3795
     22 N9         -2.1040   -1.3333   -0.7704 N.pl3     1 ATP        -0.4175
     23 C8         -3.0590   -1.5123    0.1363 C.ar      1 ATP         0.2552
     24 N7         -4.1655   -0.8354   -0.1554 N.pl3     1 ATP        -0.4731
     25 C5         -3.8852   -0.1874   -1.3253 C.ar      1 ATP        -0.1295
     26 C6         -4.7113    0.7160   -2.1458 C.ar      1 ATP         0.7196
     27 N6         -5.9213    1.0209   -1.8021 N.2       1 ATP        -0.8094
     28 N1         -4.0411    1.1673   -3.2764 N.pl3     1 ATP        -0.8312
     29 C2         -2.7403    0.7865   -3.5638 C.ar      1 ATP         0.6744
     30 N3         -1.9921   -0.0108   -2.8519 N.2       1 ATP        -0.5937
     31 C4         -2.6302   -0.4747   -1.7239 C.ar      1 ATP         0.2810
     32 HOG3       -5.0789   -9.4027    0.7192 H         1 ATP         0.4152
     33 HOA2       -1.3965   -6.3540    4.4512 H         1 ATP         0.4571
     34 H5'1       -1.7618   -3.4448    2.4164 H         1 ATP         0.0465
     35 H5'2       -0.1874   -3.8744    3.1341 H         1 ATP         0.0465
     36 H4'         0.8874   -3.6466    0.8805 H         1 ATP         0.1379
     37 H3'        -0.7376   -1.2333    1.9867 H         1 ATP         0.1317
     38 HO3'        1.3408   -0.4870    2.3219 H         1 ATP         0.4175
     39 H2'        -0.0384   -0.0310    0.0096 H         1 ATP         0.0669
     40 HO2'        2.1463   -0.7958    0.0370 H         1 ATP         0.4064
     41 H1'        -0.4769   -2.1002   -1.8093 H         1 ATP         0.1285
     42 H8         -2.9569   -2.1323    1.0098 H         1 ATP         0.2954
     43 HN62       -6.3169    1.6552   -2.5012 H         1 ATP         0.4226
     44 H2         -2.3612    1.2343   -4.4957 H         1 ATP         0.0826
     45 H45        -4.5223    1.7976   -3.9117 H         1 ATP         0.4581
     46 H46        -5.0218   -0.8132    0.3804 H         1 ATP         0.5252
@<TRIPOS>BOND
     1    1    2 2
     2    1    3 1
     3    1    4 1
     4    1    8 1
     5    4   32 1
     6    5    6 2
     7    5    7 1
     8    5    8 1
     9    5   12 1
    10    9   10 2
    11    9   11 1
    12    9   12 1
    13    9   13 1
    14   11   33 1
    15   13   14 1
    16   14   15 1
    17   14   34 1
    18   14   35 1
    19   15   16 1
    20   15   17 1
    21   15   36 1
    22   16   21 1
    23   17   18 1
    24   17   19 1
    25   17   37 1
    26   18   38 1
    27   19   20 1
    28   19   21 1
    29   19   39 1
    30   20   40 1
    31   21   22 1
    32   21   41 1
    33   22   23 ar
    34   22   31 ar
    35   23   24 ar
    36   23   42 1
    37   24   25 ar
    38   24   46 1
    39   25   26 ar
    40   25   31 ar
    41   26   27 2
    42   26   28 ar
    43   27   43 1
    44   28   29 ar
    45   28   45 1
    46   29   30 ar
    47   29   44 1
    48   30   31 ar
@<TRIPOS>SUBSTRUCTURE
     1 ATP         1 GROUP 0 A     ****
@<TRIPOS>MOLECULE
[[[3,4-dihydroxy-5-(6-imino-7,8-dihydro-1~{H}-purin-8-ylium-9-yl)tetrahydrofuran-2-yl]methoxy-hydroxy-phosphoryl]oxy-oxido-phosphoryl] hydrogen phosphate
   46    48     1     0     0
SMALL
USER_CHARGES

@<TRIPOS>ATOM
      1 PG          1.1683   -3.9982   -7.1220 P.3       1 ATP         1.5644
      2 O1G         1.7127   -5.3428   -6.6940 O.co2     1 ATP        -0.8581
      3 O2G         1.3159   -3.5178   -8.5485 O.co2     1 ATP        -0.8581
      4 O3G        -0.4098   -3.9227   -6.7094 O.3       1 ATP        -0.7962
      5 PB          3.2596   -2.2994   -5.8960 P.3       1 ATP         1.6830
      6 O1B         4.0942   -3.4078   -5.2938 O.co2     1 ATP        -0.8633
      7 O2B         3.7022   -1.5851   -7.1536 O.co2     1 ATP        -0.8633
      8 O3B         1.7397   -2.8510   -6.1139 O.3       1 ATP        -0.8097
      9 PA          3.9521   -0.1769   -3.9527 P.3       1 ATP         1.7610
     10 O1A         4.6810    0.7861   -4.8443 O.2       1 ATP        -0.8554
     11 O2A         4.9166   -1.1746   -3.1207 O.3       1 ATP        -0.8102
     12 O3A         2.9635   -1.1884   -4.7377 O.3       1 ATP        -0.7693
     13 O5'         3.0213    0.5153   -2.8245 O.3       1 ATP        -0.5757
     14 C5'         2.2816   -0.2918   -1.9206 C.3       1 ATP         0.1911
     15 C4'         2.7248    0.0226   -0.4980 C.3       1 ATP         0.1218
     16 O4'         2.4697    1.4219   -0.2462 O.3       1 ATP        -0.4138
     17 C3'         1.9404   -0.7419    0.5596 C.3       1 ATP         0.1338
     18 O3'         2.7418   -0.8086    1.7389 O.3       1 ATP        -0.5756
     19 C2'         0.7477    0.1630    0.7858 C.3       1 ATP         0.0673
     20 O2'         0.1373   -0.0577    2.0407 O.3       1 ATP        -0.5671
     21 C1'         1.3733    1.5427    0.6747 C.3       1 ATP         0.3795
     22 N9          0.4520    2.5240    0.1767 N.pl3     1 ATP        -0.4175
     23 C8          0.2216    2.8192   -1.0985 C.ar      1 ATP         0.2552
     24 N7         -0.6906    3.7763   -1.2384 N.pl3     1 ATP        -0.4731
     25 C5         -1.0575    4.1037    0.0366 C.ar      1 ATP        -0.1295
     26 C6         -2.0291    5.0943    0.5330 C.ar      1 ATP         0.7196
     27 N6         -2.7093    5.8371   -0.2800 N.2       1 ATP        -0.8094
     28 N1         -2.1051    5.1136    1.9204 N.pl3     1 ATP        -0.8312
     29 C2         -1.3354    4.2774    2.7129 C.ar      1 ATP         0.6744
     30 N3         -0.4707    3.3945    2.2944 N.2       1 ATP        -0.5937
     31 C4         -0.3734    3.3525    0.9220 C.ar      1 ATP         0.2810
     32 HOG3       -0.9091   -3.1055   -6.9219 H         1 ATP         0.4152
     33 HOA2        5.5139   -1.7769   -3.6133 H         1 ATP         0.4571
     34 H5'1        1.2163   -0.0770   -2.0471 H         1 ATP         0.0465
     35 H5'2        2.4655   -1.3443   -2.1563 H         1 ATP         0.0465
     36 H4'         3.8044   -0.1397   -0.4040 H         1 ATP         0.1379
     37 H3'         1.6764   -1.7639    0.2728 H         1 ATP         0.1317
     38 HO3'        3.5554   -1.2733    1.4914 H         1 ATP         0.4175
     39 H2'        -0.0011    0.0027    0.0003 H         1 ATP         0.0669
     40 HO2'        0.8082    0.1199    2.7232 H         1 ATP         0.4064
     41 H1'         1.7826    1.9024    1.6451 H         1 ATP         0.1285
     42 H8          0.7125    2.3429   -1.9292 H         1 ATP         0.2954
     43 HN62       -3.3217    6.4517    0.2629 H         1 ATP         0.4226
     44 H2         -1.5188    4.4223    3.7890 H         1 ATP         0.0826
     45 H45        -2.7470    5.7626    2.3665 H         1 ATP         0.4581
     46 H46        -1.0305    4.1680   -2.1054 H         1 ATP         0.5252
@<TRIPOS>BOND
     1    1    2 2
     2    1    3 1
     3    1    4 1
     4    1    8 1
     5    4   32 1
     6    5    6 2
     7    5    7 1
     8    5    8 1
     9    5   12 1
    10    9   10 2
    11    9   11 1
    12    9   12 1
    13    9   13 1
    14   11   33 1
    15   13   14 1
    16   14   15 1
    17   14   34 1
    18   14   35 1
    19   15   16 1
    20   15   17 1
    21   15   36 1
    22   16   21 1
    23   17   18 1
    24   17   19 1
    25   17   37 1
    26   18   38 1
    27   19   20 1
    28   19   21 1
    29   19   39 1
    30   20   40 1
    31   21   22 1
    32   21   41 1
    33   22   23 ar
    34   22   31 ar
    35   23   24 ar
    36   23   42 1
    37   24   25 ar
    38   24   46 1
    39   25   26 ar
    40   25   31 ar
    41   26   27 2
    42   26   28 ar
    43   27   43 1
    44   28   29 ar
    45   28   45 1
    46   29   30 ar
    47   29   44 1
    48   30   31 ar
@<TRIPOS>SUBSTRUCTURE
     1 ATP         1 GROUP 0 A     ****
@<TRIPOS>MOLECULE
[[[3,4-dihydroxy-5-(6-imino-7,8-dihydro-1~{H}-purin-8-ylium-9-yl)tetrahydrofuran-2-yl]methoxy-hydroxy-phosphoryl]oxy-oxido-phosphoryl] hydrogen phosphate
   46    48     1     0     0
SMALL
USER_CHARGES

@<TRIPOS>ATOM
      1 PG         -6.7721   -5.3558    2.3686 P.3       1 ATP         1.5644
      2 O1G        -7.3894   -6.7170    2.1369 O.co2     1 ATP        -0.8581
      3 O2G        -6.8518   -4.2759    1.3127 O.co2     1 ATP        -0.8581
      4 O3G        -7.3537   -4.7547    3.7709 O.3       1 ATP        -0.7962
      5 PB         -3.9395   -6.1162    1.9683 P.3       1 ATP         1.6830
      6 O1B        -4.1619   -7.5850    1.6840 O.co2     1 ATP        -0.8633
      7 O2B        -3.6255   -5.1446    0.8524 O.co2     1 ATP        -0.8633
      8 O3B        -5.2152   -5.5498    2.8128 O.3       1 ATP        -0.8097
      9 PA         -1.2134   -6.3366    3.1002 P.3       1 ATP         1.7610
     10 O1A        -0.9113   -7.7788    2.8130 O.2       1 ATP        -0.8554
     11 O2A        -0.7009   -5.8243    4.5469 O.3       1 ATP        -0.8102
     12 O3A        -2.7914   -5.9813    3.1204 O.3       1 ATP        -0.7693
     13 O5'        -0.5687   -5.2869    2.0510 O.3       1 ATP        -0.5757
     14 C5'        -0.7840   -3.8935    2.2172 C.3       1 ATP         0.1911
     15 C4'        -0.0724   -3.1466    1.1027 C.3       1 ATP         0.1218
     16 O4'        -0.8674   -3.1929   -0.0945 O.3       1 ATP        -0.4138
     17 C3'         0.1338   -1.6715    1.4027 C.3       1 ATP         0.1338
     18 O3'         1.2893   -1.4445    2.1808 O.3       1 ATP        -0.5756
     19 C2'         0.2158   -1.0724    0.0128 C.3       1 ATP         0.0673
     20 O2'         1.5141   -1.2448   -0.5513 O.3       1 ATP        -0.5671
     21 C1'        -0.7897   -1.9176   -0.7583 C.3       1 ATP         0.3795
     22 N9         -2.1040   -1.3333   -0.7704 N.pl3     1 ATP        -0.4175
     23 C8         -3.0590   -1.5123    0.1363 C.ar      1 ATP         0.2552
     24 N7         -4.1655   -0.8354   -0.1554 N.pl3     1 ATP        -0.4731
     25 C5         -3.8852   -0.1874   -1.3253 C.ar      1 ATP        -0.1295
     26 C6         -4.7113    0.7160   -2.1458 C.ar      1 ATP         0.7196
     27 N6         -5.9213    1.0209   -1.8021 N.2       1 ATP        -0.8094
     28 N1         -4.0411    1.1673   -3.2764 N.pl3     1 ATP        -0.8312
     29 C2         -2.7403    0.7865   -3.5638 C.ar      1 ATP         0.6744
     30 N3         -1.9921   -0.0108   -2.8519 N.2       1 ATP        -0.5937
     31 C4         -2.6302   -0.4747   -1.7239 C.ar      1 ATP         0.2810
     32 HOG3       -7.0456   -3.8703    4.0630 H         1 ATP         0.4152
     33 HOA2        0.2569   -5.8691    4.7537 H         1 ATP         0.4571
     34 H5'1       -1.8598   -3.6968    2.1850 H         1 ATP         0.0465
     35 H5'2       -0.3933   -3.5903    3.1931 H         1 ATP         0.0465
     36 H4'         0.8874   -3.6466    0.8805 H         1 ATP         0.1379
     37 H3'        -0.7376   -1.2333    1.9867 H         1 ATP         0.1317
     38 HO3'        1.3408   -0.4870    2.3219 H         1 ATP         0.4175
     39 H2'        -0.0384   -0.0310    0.0096 H         1 ATP         0.0669
     40 HO2'        2.1463   -0.7958    0.0370 H         1 ATP         0.4064
     41 H1'        -0.4769   -2.1002   -1.8093 H         1 ATP         0.1285
     42 H8         -2.9569   -2.1323    1.0098 H         1 ATP         0.2954
     43 HN62       -6.3169    1.6552   -2.5012 H         1 ATP         0.4226
     44 H2         -2.3612    1.2343   -4.4957 H         1 ATP         0.0826
     45 H45        -4.5223    1.7976   -3.9117 H         1 ATP         0.4581
     46 H46        -5.0218   -0.8132    0.3804 H         1 ATP         0.5252
@<TRIPOS>BOND
     1    1    2 2
     2    1    3 1
     3    1    4 1
     4    1    8 1
     5    4   32 1
     6    5    6 2
     7    5    7 1
     8    5    8 1
     9    5   12 1
    10    9   10 2
    11    9   11 1
    12    9   12 1
    13    9   13 1
    14   11   33 1
    15   13   14 1
    16   14   15 1
    17   14   34 1
    18   14   35 1
    19   15   16 1
    20   15   17 1
    21   15   36 1
    22   16   21 1
    23   17   18 1
    24   17   19 1
    25   17   37 1
    26   18   38 1
    27   19   20 1
    28   19   21 1
    29   19   39 1
    30   20   40 1
    31   21   22 1
    32   21   41 1
    33   22   23 ar
    34   22   31 ar
    35   23   24 ar
    36   23   42 1
    37   24   25 ar
    38   24   46 1
    39   25   26 ar
    40   25   31 ar
    41   26   27 2
    42   26   28 ar
    43   27   43 1
    44   28   29 ar
    45   28   45 1
    46   29   30 ar
    47   29   44 1
    48   30   31 ar
@<TRIPOS>SUBSTRUCTURE
     1 ATP         1 GROUP 0 A     ****
@<TRIPOS>MOLECULE
[[[3,4-dihydroxy-5-(6-imino-7,8-dihydro-1~{H}-purin-8-ylium-9-yl)tetrahydrofuran-2-yl]methoxy-hydroxy-phosphoryl]oxy-oxido-phosphoryl] hydrogen phosphate
   46    48     1     0     0
SMALL
USER_CHARGES

@<TRIPOS>ATOM
      1 PG          2.0058    2.4011   -7.6820 P.3       1 ATP         1.5644
      2 O1G         0.7150    2.2342   -8.4522 O.co2     1 ATP        -0.8581
      3 O2G         3.3196    2.6091   -8.4020 O.co2     1 ATP        -0.8581
      4 O3G         1.8109    3.6072   -6.5987 O.3       1 ATP        -0.7962
      5 PB          1.1335    0.5933   -5.5064 P.3       1 ATP         1.6830
      6 O1B         0.9885    1.6370   -4.4213 O.co2     1 ATP        -0.8633
      7 O2B        -0.0801    0.0147   -6.1993 O.co2     1 ATP        -0.8633
      8 O3B         2.1636    1.1582   -6.6384 O.3       1 ATP        -0.8097
      9 PA          3.5004   -0.6417   -4.2282 P.3       1 ATP         1.7610
     10 O1A         4.5984   -0.0927   -5.0923 O.2       1 ATP        -0.8554
     11 O2A         3.6979   -2.1908   -3.8049 O.3       1 ATP        -0.8102
     12 O3A         2.0409   -0.6327   -4.9257 O.3       1 ATP        -0.7693
     13 O5'         3.2903    0.1346   -2.8241 O.3       1 ATP        -0.5757
     14 C5'         2.2816   -0.2918   -1.9206 C.3       1 ATP         0.1911
     15 C4'         2.7248    0.0226   -0.4980 C.3       1 ATP         0.1218
     16 O4'         2.4697    1.4219   -0.2462 O.3       1 ATP        -0.4138
     17 C3'         1.9404   -0.7419    0.5596 C.3       1 ATP         0.1338
     18 O3'         2.7418   -0.8086    1.7389 O.3       1 ATP        -0.5756
     19 C2'         0.7477    0.1630    0.7858 C.3       1 ATP         0.0673
     20 O2'         0.1373   -0.0577    2.0407 O.3       1 ATP        -0.5671
     21 C1'         1.3733    1.5427    0.6747 C.3       1 ATP         0.3795
     22 N9          0.4520    2.5240    0.1767 N.pl3     1 ATP        -0.4175
     23 C8          0.2216    2.8192   -1.0985 C.ar      1 ATP         0.2552
     24 N7         -0.6906    3.7763   -1.2384 N.pl3     1 ATP        -0.4731
     25 C5         -1.0575    4.1037    0.0366 C.ar      1 ATP        -0.1295
     26 C6         -2.0291    5.0943    0.5330 C.ar      1 ATP         0.7196
     27 N6         -2.7093    5.8371   -0.2800 N.2       1 ATP        -0.8094
     28 N1         -2.1051    5.1136    1.9204 N.pl3     1 ATP        -0.8312
     29 C2         -1.3354    4.2774    2.7129 C.ar      1 ATP         0.6744
     30 N3         -0.4707    3.3945    2.2944 N.2       1 ATP        -0.5937
     31 C4         -0.3734    3.3525    0.9220 C.ar      1 ATP         0.2810
     32 HOG3        2.5663    3.8389   -6.0173 H         1 ATP         0.4152
     33 HOA2        4.4955   -2.4446   -3.2935 H         1 ATP         0.4571
     34 H5'1        1.3514    0.2330   -2.1577 H         1 ATP         0.0465
     35 H5'2        2.1280   -1.3678   -2.0460 H         1 ATP         0.0465
     36 H4'         3.8044   -0.1397   -0.4040 H         1 ATP         0.1379
     37 H3'         1.6764   -1.7639    0.2728 H         1 ATP         0.1317
     38 HO3'        3.5554   -1.2733    1.4914 H         1 ATP         0.4175
     39 H2'        -0.0011    0.0027    0.0003 H         1 ATP         0.0669
     40 HO2'       -0.6141    0.5574    2.1082 H         1 ATP         0.4064
     41 H1'         1.7826    1.9024    1.6451 H         1 ATP         0.1285
     42 H8          0.7125    2.3429   -1.9292 H         1 ATP         0.2954
     43 HN62       -3.3217    6.4517    0.2629 H         1 ATP         0.4226
     44 H2         -1.5188    4.4223    3.7890 H         1 ATP         0.0826
     45 H45        -2.7470    5.7626    2.3665 H         1 ATP         0.4581
     46 H46        -1.0305    4.1680   -2.1054 H         1 ATP         0.5252
@<TRIPOS>BOND
     1    1    2 2
     2    1    3 1
     3    1    4 1
     4    1    8 1
     5    4   32 1
     6    5    6 2
     7    5    7 1
     8    5    8 1
     9    5   12 1
    10    9   10 2
    11    9   11 1
    12    9   12 1
    13    9   13 1
    14   11   33 1
    15   13   14 1
    16   14   15 1
    17   14   34 1
    18   14   35 1
    19   15   16 1
    20   15   17 1
    21   15   36 1
    22   16   21 1
    23   17   18 1
    24   17   19 1
    25   17   37 1
    26   18   38 1
    27   19   20 1
    28   19   21 1
    29   19   39 1
    30   20   40 1
    31   21   22 1
    32   21   41 1
    33   22   23 ar
    34   22   31 ar
    35   23   24 ar
    36   23   42 1
    37   24   25 ar
    38   24   46 1
    39   25   26 ar
    40   25   31 ar
    41   26   27 2
    42   26   28 ar
    43   27   43 1
    44   28   29 ar
    45   28   45 1
    46   29   30 ar
    47   29   44 1
    48   30   31 ar
@<TRIPOS>SUBSTRUCTURE
     1 ATP         1 GROUP 0 A     ****
@<TRIPOS>MOLECULE
[[[3,4-dihydroxy-5-(6-imino-7,8-dihydro-1~{H}-purin-8-ylium-9-yl)tetrahydrofuran-2-yl]methoxy-hydroxy-phosphoryl]oxy-oxido-phosphoryl] hydrogen phosphate
   46    48     1     0     0
SMALL
USER_CHARGES

@<TRIPOS>ATOM
      1 PG          5.5071   -3.1967   -5.4477 P.3       1 ATP         1.5644
      2 O1G         5.9937   -4.5750   -5.8364 O.co2     1 ATP        -0.8581
      3 O2G         5.3697   -2.8018   -3.9942 O.co2     1 ATP        -0.8581
      4 O3G         6.4377   -2.0867   -6.2014 O.3       1 ATP        -0.7962
      5 PB          3.2099   -1.5316   -6.2917 P.3       1 ATP         1.6830
      6 O1B         4.1011   -0.3995   -6.7520 O.co2     1 ATP        -0.8633
      7 O2B         1.9097   -1.8385   -7.0009 O.co2     1 ATP        -0.8633
      8 O3B         4.0996   -2.8969   -6.2143 O.3       1 ATP        -0.8097
      9 PA          2.1493   -2.2871   -3.6336 P.3       1 ATP         1.7610
     10 O1A         2.4555   -3.7486   -3.7880 O.2       1 ATP        -0.8554
     11 O2A         0.5901   -1.9079   -3.8415 O.3       1 ATP        -0.8102
     12 O3A         2.9062   -1.3352   -4.7002 O.3       1 ATP        -0.7693
     13 O5'         2.5245   -1.6648   -2.1878 O.3       1 ATP        -0.5757
     14 C5'         2.2816   -0.2918   -1.9206 C.3       1 ATP         0.1911
     15 C4'         2.7248    0.0226   -0.4980 C.3       1 ATP         0.1218
     16 O4'         2.4697    1.4219   -0.2462 O.3       1 ATP        -0.4138
     17 C3'         1.9404   -0.7419    0.5596 C.3       1 ATP         0.1338
     18 O3'         2.7418   -0.8086    1.7389 O.3       1 ATP        -0.5756
     19 C2'         0.7477    0.1630    0.7858 C.3       1 ATP         0.0673
     20 O2'         0.1373   -0.0577    2.0407 O.3       1 ATP        -0.5671
     21 C1'         1.3733    1.5427    0.6747 C.3       1 ATP         0.3795
     22 N9          0.4520    2.5240    0.1767 N.pl3     1 ATP        -0.4175
     23 C8          0.2216    2.8192   -1.0985 C.ar      1 ATP         0.2552
     24 N7         -0.6906    3.7763   -1.2384 N.pl3     1 ATP        -0.4731
     25 C5         -1.0575    4.1037    0.0366 C.ar      1 ATP        -0.1295
     26 C6         -2.0291    5.0943    0.5330 C.ar      1 ATP         0.7196
     27 N6         -2.7093    5.8371   -0.2800 N.2       1 ATP        -0.8094
     28 N1         -2.1051    5.1136    1.9204 N.pl3     1 ATP        -0.8312
     29 C2         -1.3354    4.2774    2.7129 C.ar      1 ATP         0.6744
     30 N3         -0.4707    3.3945    2.2944 N.2       1 ATP        -0.5937
     31 C4         -0.3734    3.3525    0.9220 C.ar      1 ATP         0.2810
     32 HOG3        6.2463   -1.1366   -6.0496 H         1 ATP         0.4152
     33 HOA2       -0.0792   -2.3122   -3.2493 H         1 ATP         0.4571
     34 H5'1        2.8432    0.3119   -2.6398 H         1 ATP         0.0465
     35 H5'2        1.2128   -0.0927   -2.0428 H         1 ATP         0.0465
     36 H4'         3.8044   -0.1397   -0.4040 H         1 ATP         0.1379
     37 H3'         1.6764   -1.7639    0.2728 H         1 ATP         0.1317
     38 HO3'        2.2232   -1.2979    2.3953 H         1 ATP         0.4175
     39 H2'        -0.0011    0.0027    0.0003 H         1 ATP         0.0669
     40 HO2'       -0.6141    0.5574    2.1082 H         1 ATP         0.4064
     41 H1'         1.7826    1.9024    1.6451 H         1 ATP         0.1285
     42 H8          0.7125    2.3429   -1.9292 H         1 ATP         0.2954
     43 HN62       -3.3217    6.4517    0.2629 H         1 ATP         0.4226
     44 H2         -1.5188    4.4223    3.7890 H         1 ATP         0.0826
     45 H45        -2.7470    5.7626    2.3665 H         1 ATP         0.4581
     46 H46        -1.0305    4.1680   -2.1054 H         1 ATP         0.5252
@<TRIPOS>BOND
     1    1    2 2
     2    1    3 1
     3    1    4 1
     4    1    8 1
     5    4   32 1
     6    5    6 2
     7    5    7 1
     8    5    8 1
     9    5   12 1
    10    9   10 2
    11    9   11 1
    12    9   12 1
    13    9   13 1
    14   11   33 1
    15   13   14 1
    16   14   15 1
    17   14   34 1
    18   14   35 1
    19   15   16 1
    20   15   17 1
    21   15   36 1
    22   16   21 1
    23   17   18 1
    24   17   19 1
    25   17   37 1
    26   18   38 1
    27   19   20 1
    28   19   21 1
    29   19   39 1
    30   20   40 1
    31   21   22 1
    32   21   41 1
    33   22   23 ar
    34   22   31 ar
    35   23   24 ar
    36   23   42 1
    37   24   25 ar
    38   24   46 1
    39   25   26 ar
    40   25   31 ar
    41   26   27 2
    42   26   28 ar
    43   27   43 1
    44   28   29 ar
    45   28   45 1
    46   29   30 ar
    47   29   44 1
    48   30   31 ar
@<TRIPOS>SUBSTRUCTURE
     1 ATP         1 GROUP 0 A     ****
@<TRIPOS>MOLECULE
[[[3,4-dihydroxy-5-(6-imino-7,8-dihydro-1~{H}-purin-8-ylium-9-yl)tetrahydrofuran-2-yl]methoxy-hydroxy-phosphoryl]oxy-oxido-phosphoryl] hydrogen phosphate
   46    48     1     0     0
SMALL
USER_CHARGES

@<TRIPOS>ATOM
      1 PG          4.7440    5.7333   -3.7902 P.3       1 ATP         1.5644
      2 O1G         4.0119    6.9125   -3.1893 O.co2     1 ATP        -0.8581
      3 O2G         5.3278    5.8084   -5.1834 O.co2     1 ATP        -0.8581
      4 O3G         5.9225    5.2739   -2.7576 O.3       1 ATP        -0.7962
      5 PB          3.0424    3.7548   -2.3930 P.3       1 ATP         1.6830
      6 O1B         4.0902    3.2224   -1.4409 O.co2     1 ATP        -0.8633
      7 O2B         1.9704    4.7102   -1.9181 O.co2     1 ATP        -0.8633
      8 O3B         3.7956    4.4113   -3.6827 O.3       1 ATP        -0.8097
      9 PA          2.9499    1.2416   -3.9540 P.3       1 ATP         1.7610
     10 O1A         4.1019    1.6058   -4.8451 O.2       1 ATP        -0.8554
     11 O2A         1.6689    0.6367   -4.7357 O.3       1 ATP        -0.8102
     12 O3A         2.3267    2.4887   -3.1336 O.3       1 ATP        -0.7693
     13 O5'         3.2903    0.1346   -2.8241 O.3       1 ATP        -0.5757
     14 C5'         2.2816   -0.2918   -1.9206 C.3       1 ATP         0.1911
     15 C4'         2.7248    0.0226   -0.4980 C.3       1 ATP         0.1218
     16 O4'         2.4697    1.4219   -0.2462 O.3       1 ATP        -0.4138
     17 C3'         1.9404   -0.7419    0.5596 C.3       1 ATP         0.1338
     18 O3'         2.7418   -0.8086    1.7389 O.3       1 ATP        -0.5756
     19 C2'         0.7477    0.1630    0.7858 C.3       1 ATP         0.0673
     20 O2'         0.1373   -0.0577    2.0407 O.3       1 ATP        -0.5671
     21 C1'         1.3733    1.5427    0.6747 C.3       1 ATP         0.3795
     22 N9          0.4520    2.5240    0.1767 N.pl3     1 ATP        -0.4175
     23 C8         -0.2004    2.4829   -0.9804 C.ar      1 ATP         0.2552
     24 N7         -0.9830    3.5431   -1.1568 N.pl3     1 ATP        -0.4731
     25 C5         -0.8095    4.3012   -0.0331 C.ar      1 ATP        -0.1295
     26 C6         -1.4065    5.5904    0.3585 C.ar      1 ATP         0.7196
     27 N6         -2.2501    6.2030   -0.4084 N.2       1 ATP        -0.8094
     28 N1         -0.9585    6.0272    1.5994 N.pl3     1 ATP        -0.8312
     29 C2         -0.0508    5.3009    2.3532 C.ar      1 ATP         0.6744
     30 N3          0.4890    4.1592    2.0257 N.2       1 ATP        -0.5937
     31 C4          0.0637    3.7006    0.7995 C.ar      1 ATP         0.2810
     32 HOG3        6.4912    4.5144   -3.0067 H         1 ATP         0.4152
     33 HOA2        1.7782   -0.1847   -5.2607 H         1 ATP         0.4571
     34 H5'1        1.3514    0.2330   -2.1577 H         1 ATP         0.0465
     35 H5'2        2.1280   -1.3678   -2.0460 H         1 ATP         0.0465
     36 H4'         3.8044   -0.1397   -0.4040 H         1 ATP         0.1379
     37 H3'         1.6764   -1.7639    0.2728 H         1 ATP         0.1317
     38 HO3'        2.2232   -1.2979    2.3953 H         1 ATP         0.4175
     39 H2'        -0.0011    0.0027    0.0003 H         1 ATP         0.0669
     40 HO2'       -0.6141    0.5574    2.1082 H         1 ATP         0.4064
     41 H1'         1.7826    1.9024    1.6451 H         1 ATP         0.1285
     42 H8         -0.1116    1.6863   -1.6984 H         1 ATP         0.2954
     43 HN62       -2.5420    7.0730    0.0447 H         1 ATP         0.4226
     44 H2          0.1969    5.7893    3.3086 H         1 ATP         0.0826
     45 H45        -1.3097    6.9080    1.9642 H         1 ATP         0.4581
     46 H46        -1.5735    3.7351   -1.9538 H         1 ATP         0.5252
@<TRIPOS>BOND
     1    1    2 2
     2    1    3 1
     3    1    4 1
     4    1    8 1
     5    4   32 1
     6    5    6 2
     7    5    7 1
     8    5    8 1
     9    5   12 1
    10    9   10 2
    11    9   11 1
    12    9   12 1
    13    9   13 1
    14   11   33 1
    15   13   14 1
    16   14   15 1
    17   14   34 1
    18   14   35 1
    19   15   16 1
    20   15   17 1
    21   15   36 1
    22   16   21 1
    23   17   18 1
    24   17   19 1
    25   17   37 1
    26   18   38 1
    27   19   20 1
    28   19   21 1
    29   19   39 1
    30   20   40 1
    31   21   22 1
    32   21   41 1
    33   22   23 ar
    34   22   31 ar
    35   23   24 ar
    36   23   42 1
    37   24   25 ar
    38   24   46 1
    39   25   26 ar
    40   25   31 ar
    41   26   27 2
    42   26   28 ar
    43   27   43 1
    44   28   29 ar
    45   28   45 1
    46   29   30 ar
    47   29   44 1
    48   30   31 ar
@<TRIPOS>SUBSTRUCTURE
     1 ATP         1 GROUP 0 A     ****
@<TRIPOS>MOLECULE
[[[3,4-dihydroxy-5-(6-imino-7,8-dihydro-1~{H}-purin-8-ylium-9-yl)tetrahydrofuran-2-yl]methoxy-hydroxy-phosphoryl]oxy-oxido-phosphoryl] hydrogen phosphate
   46    48     1     0     0
SMALL
USER_CHARGES

@<TRIPOS>ATOM
      1 PG          7.8504   -4.0873   -2.5872 P.3       1 ATP         1.5644
      2 O1G         7.5916   -4.7567   -1.2558 O.co2     1 ATP        -0.8581
      3 O2G         9.1623   -3.3873   -2.8635 O.co2     1 ATP        -0.8581
      4 O3G         7.5820   -5.1749   -3.7752 O.3       1 ATP        -0.7962
      5 PB          6.1786   -1.6806   -2.1686 P.3       1 ATP         1.6830
      6 O1B         5.6837   -2.0165   -0.7794 O.co2     1 ATP        -0.8633
      7 O2B         7.2596   -0.6444   -2.3822 O.co2     1 ATP        -0.8633
      8 O3B         6.6238   -3.0631   -2.9116 O.3       1 ATP        -0.8097
      9 PA          3.5156   -2.0921   -3.3934 P.3       1 ATP         1.7610
     10 O1A         3.6877   -3.5728   -3.5714 O.2       1 ATP        -0.8554
     11 O2A         2.9211   -1.3302   -4.6911 O.3       1 ATP        -0.8102
     12 O3A         4.8921   -1.2960   -3.0962 O.3       1 ATP        -0.7693
     13 O5'         2.5245   -1.6648   -2.1878 O.3       1 ATP        -0.5757
     14 C5'         2.2816   -0.2918   -1.9206 C.3       1 ATP         0.1911
     15 C4'         2.7248    0.0226   -0.4980 C.3       1 ATP         0.1218
     16 O4'         2.4697    1.4219   -0.2462 O.3       1 ATP        -0.4138
     17 C3'         1.9404   -0.7419    0.5596 C.3       1 ATP         0.1338
     18 O3'         2.7418   -0.8086    1.7389 O.3       1 ATP        -0.5756
     19 C2'         0.7477    0.1630    0.7858 C.3       1 ATP         0.0673
     20 O2'         0.1373   -0.0577    2.0407 O.3       1 ATP        -0.5671
     21 C1'         1.3733    1.5427    0.6747 C.3       1 ATP         0.3795
     22 N9          0.4520    2.5240    0.1767 N.pl3     1 ATP        -0.4175
     23 C8          0.2216    2.8192   -1.0985 C.ar      1 ATP         0.2552
     24 N7         -0.6906    3.7763   -1.2384 N.pl3     1 ATP        -0.4731
     25 C5         -1.0575    4.1037    0.0366 C.ar      1 ATP        -0.1295
     26 C6         -2.0291    5.0943    0.5330 C.ar      1 ATP         0.7196
     27 N6         -2.7093    5.8371   -0.2800 N.2       1 ATP        -0.8094
     28 N1         -2.1051    5.1136    1.9204 N.pl3     1 ATP        -0.8312
     29 C2         -1.3354    4.2774    2.7129 C.ar      1 ATP         0.6744
     30 N3         -0.4707    3.3945    2.2944 N.2       1 ATP        -0.5937
     31 C4         -0.3734    3.3525    0.9220 C.ar      1 ATP         0.2810
     32 HOG3        7.7085   -4.8906   -4.7055 H         1 ATP         0.4152
     33 HOA2        3.4207   -1.3697   -5.5343 H         1 ATP         0.4571
     34 H5'1        2.8432    0.3119   -2.6398 H         1 ATP         0.0465
     35 H5'2        1.2128   -0.0927   -2.0428 H         1 ATP         0.0465
     36 H4'         3.8044   -0.1397   -0.4040 H         1 ATP         0.1379
     37 H3'         1.6764   -1.7639    0.2728 H         1 ATP         0.1317
     38 HO3'        2.2232   -1.2979    2.3953 H         1 ATP         0.4175
     39 H2'        -0.0011    0.0027    0.0003 H         1 ATP         0.0669
     40 HO2'       -0.6141    0.5574    2.1082 H         1 ATP         0.4064
     41 H1'         1.7826    1.9024    1.6451 H         1 ATP         0.1285
     42 H8          0.7125    2.3429   -1.9292 H         1 ATP         0.2954
     43 HN62       -3.3217    6.4517    0.2629 H         1 ATP         0.4226
     44 H2         -1.5188    4.4223    3.7890 H         1 ATP         0.0826
     45 H45        -2.7470    5.7626    2.3665 H         1 ATP         0.4581
     46 H46        -1.0305    4.1680   -2.1054 H         1 ATP         0.5252
@<TRIPOS>BOND
     1    1    2 2
     2    1    3 1
     3    1    4 1
     4    1    8 1
     5    4   32 1
     6    5    6 2
     7    5    7 1
     8    5    8 1
     9    5   12 1
    10    9   10 2
    11    9   11 1
    12    9   12 1
    13    9   13 1
    14   11   33 1
    15   13   14 1
    16   14   15 1
    17   14   34 1
    18   14   35 1
    19   15   16 1
    20   15   17 1
    21   15   36 1
    22   16   21 1
    23   17   18 1
    24   17   19 1
    25   17   37 1
    26   18   38 1
    27   19   20 1
    28   19   21 1
    29   19   39 1
    30   20   40 1
    31   21   22 1
    32   21   41 1
    33   22   23 ar
    34   22   31 ar
    35   23   24 ar
    36   23   42 1
    37   24   25 ar
    38   24   46 1
    39   25   26 ar
    40   25   31 ar
    41   26   27 2
    42   26   28 ar
    43   27   43 1
    44   28   29 ar
    45   28   45 1
    46   29   30 ar
    47   29   44 1
    48   30   31 ar
@<TRIPOS>SUBSTRUCTURE
     1 ATP         1 GROUP 0 A     ****
@<TRIPOS>MOLECULE
[[[3,4-dihydroxy-5-(6-imino-7,8-dihydro-1~{H}-purin-8-ylium-9-yl)tetrahydrofuran-2-yl]methoxy-hydroxy-phosphoryl]oxy-oxido-phosphoryl] hydrogen phosphate
   46    48     1     0     0
SMALL
USER_CHARGES

@<TRIPOS>ATOM
      1 PG          3.4203   -3.4532   -7.1575 P.3       1 ATP         1.5644
      2 O1G         1.9765   -3.2173   -6.7740 O.co2     1 ATP        -0.8581
      3 O2G         3.9066   -4.8319   -7.5452 O.co2     1 ATP        -0.8581
      4 O3G         3.8178   -2.4088   -8.3480 O.3       1 ATP        -0.7962
      5 PB          4.4248   -1.3822   -5.2963 P.3       1 ATP         1.6830
      6 O1B         5.3937   -1.4146   -4.1353 O.co2     1 ATP        -0.8633
      7 O2B         4.5510   -0.3439   -6.3888 O.co2     1 ATP        -0.8633
      8 O3B         4.3832   -2.8620   -5.9820 O.3       1 ATP        -0.8097
      9 PA          2.1493   -2.2871   -3.6336 P.3       1 ATP         1.7610
     10 O1A         2.4555   -3.7486   -3.7880 O.2       1 ATP        -0.8554
     11 O2A         0.5901   -1.9079   -3.8415 O.3       1 ATP        -0.8102
     12 O3A         2.9062   -1.3352   -4.7002 O.3       1 ATP        -0.7693
     13 O5'         2.5245   -1.6648   -2.1878 O.3       1 ATP        -0.5757
     14 C5'         2.2816   -0.2918   -1.9206 C.3       1 ATP         0.1911
     15 C4'         2.7248    0.0226   -0.4980 C.3       1 ATP         0.1218
     16 O4'         2.4697    1.4219   -0.2462 O.3       1 ATP        -0.4138
     17 C3'         1.9404   -0.7419    0.5596 C.3       1 ATP         0.1338
     18 O3'         2.7418   -0.8086    1.7389 O.3       1 ATP        -0.5756
     19 C2'         0.7477    0.1630    0.7858 C.3       1 ATP         0.0673
     20 O2'         0.1373   -0.0577    2.0407 O.3       1 ATP        -0.5671
     21 C1'         1.3733    1.5427    0.6747 C.3       1 ATP         0.3795
     22 N9          0.4520    2.5240    0.1767 N.pl3     1 ATP        -0.4175
     23 C8          0.2216    2.8192   -1.0985 C.ar      1 ATP         0.2552
     24 N7         -0.6906    3.7763   -1.2384 N.pl3     1 ATP        -0.4731
     25 C5         -1.0575    4.1037    0.0366 C.ar      1 ATP        -0.1295
     26 C6         -2.0291    5.0943    0.5330 C.ar      1 ATP         0.7196
     27 N6         -2.7093    5.8371   -0.2800 N.2       1 ATP        -0.8094
     28 N1         -2.1051    5.1136    1.9204 N.pl3     1 ATP        -0.8312
     29 C2         -1.3354    4.2774    2.7129 C.ar      1 ATP         0.6744
     30 N3         -0.4707    3.3945    2.2944 N.2       1 ATP        -0.5937
     31 C4         -0.3734    3.3525    0.9220 C.ar      1 ATP         0.2810
     32 HOG3        4.7298   -2.4370   -8.7084 H         1 ATP         0.4152
     33 HOA2        0.1642   -2.1077   -4.7022 H         1 ATP         0.4571
     34 H5'1        2.8432    0.3119   -2.6398 H         1 ATP         0.0465
     35 H5'2        1.2128   -0.0927   -2.0428 H         1 ATP         0.0465
     36 H4'         3.8044   -0.1397   -0.4040 H         1 ATP         0.1379
     37 H3'         1.6764   -1.7639    0.2728 H         1 ATP         0.1317
     38 HO3'        2.2232   -1.2979    2.3953 H         1 ATP         0.4175
     39 H2'        -0.0011    0.0027    0.0003 H         1 ATP         0.0669
     40 HO2'       -0.6141    0.5574    2.1082 H         1 ATP         0.4064
     41 H1'         1.7826    1.9024    1.6451 H         1 ATP         0.1285
     42 H8          0.7125    2.3429   -1.9292 H         1 ATP         0.2954
     43 HN62       -3.3217    6.4517    0.2629 H         1 ATP         0.4226
     44 H2         -1.5188    4.4223    3.7890 H         1 ATP         0.0826
     45 H45        -2.7470    5.7626    2.3665 H         1 ATP         0.4581
     46 H46        -1.0305    4.1680   -2.1054 H         1 ATP         0.5252
@<TRIPOS>BOND
     1    1    2 2
     2    1    3 1
     3    1    4 1
     4    1    8 1
     5    4   32 1
     6    5    6 2
     7    5    7 1
     8    5    8 1
     9    5   12 1
    10    9   10 2
    11    9   11 1
    12    9   12 1
    13    9   13 1
    14   11   33 1
    15   13   14 1
    16   14   15 1
    17   14   34 1
    18   14   35 1
    19   15   16 1
    20   15   17 1
    21   15   36 1
    22   16   21 1
    23   17   18 1
    24   17   19 1
    25   17   37 1
    26   18   38 1
    27   19   20 1
    28   19   21 1
    29   19   39 1
    30   20   40 1
    31   21   22 1
    32   21   41 1
    33   22   23 ar
    34   22   31 ar
    35   23   24 ar
    36   23   42 1
    37   24   25 ar
    38   24   46 1
    39   25   26 ar
    40   25   31 ar
    41   26   27 2
    42   26   28 ar
    43   27   43 1
    44   28   29 ar
    45   28   45 1
    46   29   30 ar
    47   29   44 1
    48   30   31 ar
@<TRIPOS>SUBSTRUCTURE
     1 ATP         1 GROUP 0 A     ****
@<TRIPOS>MOLECULE
[[[3,4-dihydroxy-5-(6-imino-7,8-dihydro-1~{H}-purin-8-ylium-9-yl)tetrahydrofuran-2-yl]methoxy-hydroxy-phosphoryl]oxy-oxido-phosphoryl] hydrogen phosphate
   46    48     1     0     0
SMALL
USER_CHARGES

@<TRIPOS>ATOM
      1 PG         -4.6973   -8.6762    0.6900 P.3       1 ATP         1.5644
      2 O1G        -4.3227   -8.3200   -0.7314 O.co2     1 ATP        -0.8581
      3 O2G        -6.1447   -8.7100    1.1274 O.co2     1 ATP        -0.8581
      4 O3G        -4.0084  -10.1085    1.0643 O.3       1 ATP        -0.7962
      5 PB         -3.9395   -6.1162    1.9683 P.3       1 ATP         1.6830
      6 O1B        -3.4555   -5.4039    0.7248 O.co2     1 ATP        -0.8633
      7 O2B        -5.2837   -5.7906    2.5804 O.co2     1 ATP        -0.8633
      8 O3B        -3.8558   -7.7254    1.7130 O.3       1 ATP        -0.8097
      9 PA         -1.2134   -6.3366    3.1002 P.3       1 ATP         1.7610
     10 O1A        -0.9113   -7.7788    2.8130 O.2       1 ATP        -0.8554
     11 O2A        -0.7009   -5.8243    4.5469 O.3       1 ATP        -0.8102
     12 O3A        -2.7914   -5.9813    3.1204 O.3       1 ATP        -0.7693
     13 O5'        -0.5687   -5.2869    2.0510 O.3       1 ATP        -0.5757
     14 C5'        -0.7840   -3.8935    2.2172 C.3       1 ATP         0.1911
     15 C4'        -0.0724   -3.1466    1.1027 C.3       1 ATP         0.1218
     16 O4'        -0.8674   -3.1929   -0.0945 O.3       1 ATP        -0.4138
     17 C3'         0.1338   -1.6715    1.4027 C.3       1 ATP         0.1338
     18 O3'         1.2893   -1.4445    2.1808 O.3       1 ATP        -0.5756
     19 C2'         0.2158   -1.0724    0.0128 C.3       1 ATP         0.0673
     20 O2'         1.5141   -1.2448   -0.5513 O.3       1 ATP        -0.5671
     21 C1'        -0.7897   -1.9176   -0.7583 C.3       1 ATP         0.3795
     22 N9         -2.1040   -1.3333   -0.7704 N.pl3     1 ATP        -0.4175
     23 C8         -3.0590   -1.5123    0.1363 C.ar      1 ATP         0.2552
     24 N7         -4.1655   -0.8354   -0.1554 N.pl3     1 ATP        -0.4731
     25 C5         -3.8852   -0.1874   -1.3253 C.ar      1 ATP        -0.1295
     26 C6         -4.7113    0.7160   -2.1458 C.ar      1 ATP         0.7196
     27 N6         -5.9213    1.0209   -1.8021 N.2       1 ATP        -0.8094
     28 N1         -4.0411    1.1673   -3.2764 N.pl3     1 ATP        -0.8312
     29 C2         -2.7403    0.7865   -3.5638 C.ar      1 ATP         0.6744
     30 N3         -1.9921   -0.0108   -2.8519 N.2       1 ATP        -0.5937
     31 C4         -2.6302   -0.4747   -1.7239 C.ar      1 ATP         0.2810
     32 HOG3       -4.1588  -10.4788    1.9602 H         1 ATP         0.4152
     33 HOA2        0.2569   -5.8691    4.7537 H         1 ATP         0.4571
     34 H5'1       -1.8598   -3.6968    2.1850 H         1 ATP         0.0465
     35 H5'2       -0.3933   -3.5903    3.1931 H         1 ATP         0.0465
     36 H4'         0.8874   -3.6466    0.8805 H         1 ATP         0.1379
     37 H3'        -0.7376   -1.2333    1.9867 H         1 ATP         0.1317
     38 HO3'        1.3408   -0.4870    2.3219 H         1 ATP         0.4175
     39 H2'        -0.0384   -0.0310    0.0096 H         1 ATP         0.0669
     40 HO2'        2.1463   -0.7958    0.0370 H         1 ATP         0.4064
     41 H1'        -0.4769   -2.1002   -1.8093 H         1 ATP         0.1285
     42 H8         -2.9569   -2.1323    1.0098 H         1 ATP         0.2954
     43 HN62       -6.3169    1.6552   -2.5012 H         1 ATP         0.4226
     44 H2         -2.3612    1.2343   -4.4957 H         1 ATP         0.0826
     45 H45        -4.5223    1.7976   -3.9117 H         1 ATP         0.4581
     46 H46        -5.0218   -0.8132    0.3804 H         1 ATP         0.5252
@<TRIPOS>BOND
     1    1    2 2
     2    1    3 1
     3    1    4 1
     4    1    8 1
     5    4   32 1
     6    5    6 2
     7    5    7 1
     8    5    8 1
     9    5   12 1
    10    9   10 2
    11    9   11 1
    12    9   12 1
    13    9   13 1
    14   11   33 1
    15   13   14 1
    16   14   15 1
    17   14   34 1
    18   14   35 1
    19   15   16 1
    20   15   17 1
    21   15   36 1
    22   16   21 1
    23   17   18 1
    24   17   19 1
    25   17   37 1
    26   18   38 1
    27   19   20 1
    28   19   21 1
    29   19   39 1
    30   20   40 1
    31   21   22 1
    32   21   41 1
    33   22   23 ar
    34   22   31 ar
    35   23   24 ar
    36   23   42 1
    37   24   25 ar
    38   24   46 1
    39   25   26 ar
    40   25   31 ar
    41   26   27 2
    42   26   28 ar
    43   27   43 1
    44   28   29 ar
    45   28   45 1
    46   29   30 ar
    47   29   44 1
    48   30   31 ar
@<TRIPOS>SUBSTRUCTURE
     1 ATP         1 GROUP 0 A     ****
@<TRIPOS>MOLECULE
[[[3,4-dihydroxy-5-(6-imino-7,8-dihydro-1~{H}-purin-8-ylium-9-yl)tetrahydrofuran-2-yl]methoxy-hydroxy-phosphoryl]oxy-oxido-phosphoryl] hydrogen phosphate
   46    48     1     0     0
SMALL
USER_CHARGES

@<TRIPOS>ATOM
      1 PG          0.4615    1.0660   -6.2079 P.3       1 ATP         1.5644
      2 O1G         1.1086    2.3721   -5.8042 O.co2     1 ATP        -0.8581
      3 O2G        -0.5241    0.3717   -5.2948 O.co2     1 ATP        -0.8581
      4 O3G        -0.2365    1.2637   -7.6708 O.3       1 ATP        -0.7962
      5 PB          2.7838   -0.7069   -5.7331 P.3       1 ATP         1.6830
      6 O1B         3.4957   -1.7328   -6.5866 O.co2     1 ATP        -0.8633
      7 O2B         3.5554    0.3641   -4.9946 O.co2     1 ATP        -0.8633
      8 O3B         1.6266    0.0079   -6.6340 O.3       1 ATP        -0.8097
      9 PA          2.1902   -2.4548   -3.4193 P.3       1 ATP         1.7610
     10 O1A         2.9716   -3.6811   -3.7924 O.2       1 ATP        -0.8554
     11 O2A         0.7452   -2.7614   -2.7590 O.3       1 ATP        -0.8102
     12 O3A         1.8285   -1.4938   -4.6692 O.3       1 ATP        -0.7693
     13 O5'         2.9216   -1.4836   -2.3516 O.3       1 ATP        -0.5757
     14 C5'         2.2816   -0.2918   -1.9206 C.3       1 ATP         0.1911
     15 C4'         2.7248    0.0226   -0.4980 C.3       1 ATP         0.1218
     16 O4'         2.4697    1.4219   -0.2462 O.3       1 ATP        -0.4138
     17 C3'         1.9404   -0.7419    0.5596 C.3       1 ATP         0.1338
     18 O3'         2.7418   -0.8086    1.7389 O.3       1 ATP        -0.5756
     19 C2'         0.7477    0.1630    0.7858 C.3       1 ATP         0.0673
     20 O2'         0.1373   -0.0577    2.0407 O.3       1 ATP        -0.5671
     21 C1'         1.3733    1.5427    0.6747 C.3       1 ATP         0.3795
     22 N9          0.4520    2.5240    0.1767 N.pl3     1 ATP        -0.4175
     23 C8         -0.2004    2.4829   -0.9804 C.ar      1 ATP         0.2552
     24 N7         -0.9830    3.5431   -1.1568 N.pl3     1 ATP        -0.4731
     25 C5         -0.8095    4.3012   -0.0331 C.ar      1 ATP        -0.1295
     26 C6         -1.4065    5.5904    0.3585 C.ar      1 ATP         0.7196
     27 N6         -2.2501    6.2030   -0.4084 N.2       1 ATP        -0.8094
     28 N1         -0.9585    6.0272    1.5994 N.pl3     1 ATP        -0.8312
     29 C2         -0.0508    5.3009    2.3532 C.ar      1 ATP         0.6744
     30 N3          0.4890    4.1592    2.0257 N.2       1 ATP        -0.5937
     31 C4          0.0637    3.7006    0.7995 C.ar      1 ATP         0.2810
     32 HOG3       -0.7019    0.4995   -8.0730 H         1 ATP         0.4152
     33 HOA2        0.7043   -3.2806   -1.9277 H         1 ATP         0.4571
     34 H5'1        2.5589    0.5217   -2.5976 H         1 ATP         0.0465
     35 H5'2        1.1982   -0.4388   -1.9617 H         1 ATP         0.0465
     36 H4'         3.8044   -0.1397   -0.4040 H         1 ATP         0.1379
     37 H3'         1.6764   -1.7639    0.2728 H         1 ATP         0.1317
     38 HO3'        2.2232   -1.2979    2.3953 H         1 ATP         0.4175
     39 H2'        -0.0011    0.0027    0.0003 H         1 ATP         0.0669
     40 HO2'       -0.1563   -0.9855    2.0596 H         1 ATP         0.4064
     41 H1'         1.7826    1.9024    1.6451 H         1 ATP         0.1285
     42 H8         -0.1116    1.6863   -1.6984 H         1 ATP         0.2954
     43 HN62       -2.5420    7.0730    0.0447 H         1 ATP         0.4226
     44 H2          0.1969    5.7893    3.3086 H         1 ATP         0.0826
     45 H45        -1.3097    6.9080    1.9642 H         1 ATP         0.4581
     46 H46        -1.5735    3.7351   -1.9538 H         1 ATP         0.5252
@<TRIPOS>BOND
     1    1    2 2
     2    1    3 1
     3    1    4 1
     4    1    8 1
     5    4   32 1
     6    5    6 2
     7    5    7 1
     8    5    8 1
     9    5   12 1
    10    9   10 2
    11    9   11 1
    12    9   12 1
    13    9   13 1
    14   11   33 1
    15   13   14 1
    16   14   15 1
    17   14   34 1
    18   14   35 1
    19   15   16 1
    20   15   17 1
    21   15   36 1
    22   16   21 1
    23   17   18 1
    24   17   19 1
    25   17   37 1
    26   18   38 1
    27   19   20 1
    28   19   21 1
    29   19   39 1
    30   20   40 1
    31   21   22 1
    32   21   41 1
    33   22   23 ar
    34   22   31 ar
    35   23   24 ar
    36   23   42 1
    37   24   25 ar
    38   24   46 1
    39   25   26 ar
    40   25   31 ar
    41   26   27 2
    42   26   28 ar
    43   27   43 1
    44   28   29 ar
    45   28   45 1
    46   29   30 ar
    47   29   44 1
    48   30   31 ar
@<TRIPOS>SUBSTRUCTURE
     1 ATP         1 GROUP 0 A     ****
@<TRIPOS>MOLECULE
[[[3,4-dihydroxy-5-(6-imino-7,8-dihydro-1~{H}-purin-8-ylium-9-yl)tetrahydrofuran-2-yl]methoxy-hydroxy-phosphoryl]oxy-oxido-phosphoryl] hydrogen phosphate
   46    48     1     0     0
SMALL
USER_CHARGES

@<TRIPOS>ATOM
      1 PG          1.7791    0.6722   -8.1927 P.3       1 ATP         1.5644
      2 O1G         2.9124    1.2426   -9.0159 O.co2     1 ATP        -0.8581
      3 O2G         0.5907    1.5254   -7.8089 O.co2     1 ATP        -0.8581
      4 O3G         1.2320   -0.6785   -8.9294 O.3       1 ATP        -0.7962
      5 PB          1.6689   -0.9046   -5.6900 P.3       1 ATP         1.6830
      6 O1B         0.7039   -0.0185   -4.9342 O.co2     1 ATP        -0.8633
      7 O2B         1.2144   -2.2138   -6.2962 O.co2     1 ATP        -0.8633
      8 O3B         2.3953   -0.0149   -6.8486 O.3       1 ATP        -0.8097
      9 PA          3.9521   -0.1769   -3.9527 P.3       1 ATP         1.7610
     10 O1A         4.6810    0.7861   -4.8443 O.2       1 ATP        -0.8554
     11 O2A         4.9166   -1.1746   -3.1207 O.3       1 ATP        -0.8102
     12 O3A         2.9635   -1.1884   -4.7377 O.3       1 ATP        -0.7693
     13 O5'         3.0213    0.5153   -2.8245 O.3       1 ATP        -0.5757
     14 C5'         2.2816   -0.2918   -1.9206 C.3       1 ATP         0.1911
     15 C4'         2.7248    0.0226   -0.4980 C.3       1 ATP         0.1218
     16 O4'         2.4697    1.4219   -0.2462 O.3       1 ATP        -0.4138
     17 C3'         1.9404   -0.7419    0.5596 C.3       1 ATP         0.1338
     18 O3'         2.7418   -0.8086    1.7389 O.3       1 ATP        -0.5756
     19 C2'         0.7477    0.1630    0.7858 C.3       1 ATP         0.0673
     20 O2'         0.1373   -0.0577    2.0407 O.3       1 ATP        -0.5671
     21 C1'         1.3733    1.5427    0.6747 C.3       1 ATP         0.3795
     22 N9          0.4520    2.5240    0.1767 N.pl3     1 ATP        -0.4175
     23 C8         -0.2004    2.4829   -0.9804 C.ar      1 ATP         0.2552
     24 N7         -0.9830    3.5431   -1.1568 N.pl3     1 ATP        -0.4731
     25 C5         -0.8095    4.3012   -0.0331 C.ar      1 ATP        -0.1295
     26 C6         -1.4065    5.5904    0.3585 C.ar      1 ATP         0.7196
     27 N6         -2.2501    6.2030   -0.4084 N.2       1 ATP        -0.8094
     28 N1         -0.9585    6.0272    1.5994 N.pl3     1 ATP        -0.8312
     29 C2         -0.0508    5.3009    2.3532 C.ar      1 ATP         0.6744
     30 N3          0.4890    4.1592    2.0257 N.2       1 ATP        -0.5937
     31 C4          0.0637    3.7006    0.7995 C.ar      1 ATP         0.2810
     32 HOG3        0.4906   -1.1688   -8.5143 H         1 ATP         0.4152
     33 HOA2        5.5732   -0.7917   -2.5006 H         1 ATP         0.4571
     34 H5'1        1.2163   -0.0770   -2.0471 H         1 ATP         0.0465
     35 H5'2        2.4655   -1.3443   -2.1563 H         1 ATP         0.0465
     36 H4'         3.8044   -0.1397   -0.4040 H         1 ATP         0.1379
     37 H3'         1.6764   -1.7639    0.2728 H         1 ATP         0.1317
     38 HO3'        2.2232   -1.2979    2.3953 H         1 ATP         0.4175
     39 H2'        -0.0011    0.0027    0.0003 H         1 ATP         0.0669
     40 HO2'       -0.6141    0.5574    2.1082 H         1 ATP         0.4064
     41 H1'         1.7826    1.9024    1.6451 H         1 ATP         0.1285
     42 H8         -0.1116    1.6863   -1.6984 H         1 ATP         0.2954
     43 HN62       -2.5420    7.0730    0.0447 H         1 ATP         0.4226
     44 H2          0.1969    5.7893    3.3086 H         1 ATP         0.0826
     45 H45        -1.3097    6.9080    1.9642 H         1 ATP         0.4581
     46 H46        -1.5735    3.7351   -1.9538 H         1 ATP         0.5252
@<TRIPOS>BOND
     1    1    2 2
     2    1    3 1
     3    1    4 1
     4    1    8 1
     5    4   32 1
     6    5    6 2
     7    5    7 1
     8    5    8 1
     9    5   12 1
    10    9   10 2
    11    9   11 1
    12    9   12 1
    13    9   13 1
    14   11   33 1
    15   13   14 1
    16   14   15 1
    17   14   34 1
    18   14   35 1
    19   15   16 1
    20   15   17 1
    21   15   36 1
    22   16   21 1
    23   17   18 1
    24   17   19 1
    25   17   37 1
    26   18   38 1
    27   19   20 1
    28   19   21 1
    29   19   39 1
    30   20   40 1
    31   21   22 1
    32   21   41 1
    33   22   23 ar
    34   22   31 ar
    35   23   24 ar
    36   23   42 1
    37   24   25 ar
    38   24   46 1
    39   25   26 ar
    40   25   31 ar
    41   26   27 2
    42   26   28 ar
    43   27   43 1
    44   28   29 ar
    45   28   45 1
    46   29   30 ar
    47   29   44 1
    48   30   31 ar
@<TRIPOS>SUBSTRUCTURE
     1 ATP         1 GROUP 0 A     ****
@<TRIPOS>MOLECULE
[[[3,4-dihydroxy-5-(6-imino-7,8-dihydro-1~{H}-purin-8-ylium-9-yl)tetrahydrofuran-2-yl]methoxy-hydroxy-phosphoryl]oxy-oxido-phosphoryl] hydrogen phosphate
   46    48     1     0     0
SMALL
USER_CHARGES

@<TRIPOS>ATOM
      1 PG         -1.0565   -1.8555   -4.9902 P.3       1 ATP         1.5644
      2 O1G        -2.5106   -1.7138   -5.3815 O.co2     1 ATP        -0.8581
      3 O2G        -0.5686   -1.3999   -3.6330 O.co2     1 ATP        -0.8581
      4 O3G        -0.6105   -3.4112   -5.2068 O.3       1 ATP        -0.7962
      5 PB          1.4920   -1.1615   -6.3264 P.3       1 ATP         1.6830
      6 O1B         1.9927   -2.5880   -6.2815 O.co2     1 ATP        -0.8633
      7 O2B         1.8455   -0.2466   -7.4778 O.co2     1 ATP        -0.8633
      8 O3B        -0.1292   -1.1723   -6.1443 O.3       1 ATP        -0.8097
      9 PA          3.3429   -0.0249   -4.3155 P.3       1 ATP         1.7610
     10 O1A         4.1316    0.9232   -5.1715 O.2       1 ATP        -0.8554
     11 O2A         4.0556   -1.4579   -4.0783 O.3       1 ATP        -0.8102
     12 O3A         1.9004   -0.4266   -4.9275 O.3       1 ATP        -0.7693
     13 O5'         3.0213    0.5153   -2.8245 O.3       1 ATP        -0.5757
     14 C5'         2.2816   -0.2918   -1.9206 C.3       1 ATP         0.1911
     15 C4'         2.7248    0.0226   -0.4980 C.3       1 ATP         0.1218
     16 O4'         2.4697    1.4219   -0.2462 O.3       1 ATP        -0.4138
     17 C3'         1.9404   -0.7419    0.5596 C.3       1 ATP         0.1338
     18 O3'         2.7418   -0.8086    1.7389 O.3       1 ATP        -0.5756
     19 C2'         0.7477    0.1630    0.7858 C.3       1 ATP         0.0673
     20 O2'         0.1373   -0.0577    2.0407 O.3       1 ATP        -0.5671
     21 C1'         1.3733    1.5427    0.6747 C.3       1 ATP         0.3795
     22 N9          0.4520    2.5240    0.1767 N.pl3     1 ATP        -0.4175
     23 C8         -0.2004    2.4829   -0.9804 C.ar      1 ATP         0.2552
     24 N7         -0.9830    3.5431   -1.1568 N.pl3     1 ATP        -0.4731
     25 C5         -0.8095    4.3012   -0.0331 C.ar      1 ATP        -0.1295
     26 C6         -1.4065    5.5904    0.3585 C.ar      1 ATP         0.7196
     27 N6         -2.2501    6.2030   -0.4084 N.2       1 ATP        -0.8094
     28 N1         -0.9585    6.0272    1.5994 N.pl3     1 ATP        -0.8312
     29 C2         -0.0508    5.3009    2.3532 C.ar      1 ATP         0.6744
     30 N3          0.4890    4.1592    2.0257 N.2       1 ATP        -0.5937
     31 C4          0.0637    3.7006    0.7995 C.ar      1 ATP         0.2810
     32 HOG3        0.3129   -3.6658   -4.9950 H         1 ATP         0.4152
     33 HOA2        4.9339   -1.4843   -3.6423 H         1 ATP         0.4571
     34 H5'1        1.2163   -0.0770   -2.0471 H         1 ATP         0.0465
     35 H5'2        2.4655   -1.3443   -2.1563 H         1 ATP         0.0465
     36 H4'         3.8044   -0.1397   -0.4040 H         1 ATP         0.1379
     37 H3'         1.6764   -1.7639    0.2728 H         1 ATP         0.1317
     38 HO3'        2.2232   -1.2979    2.3953 H         1 ATP         0.4175
     39 H2'        -0.0011    0.0027    0.0003 H         1 ATP         0.0669
     40 HO2'       -0.1563   -0.9855    2.0596 H         1 ATP         0.4064
     41 H1'         1.7826    1.9024    1.6451 H         1 ATP         0.1285
     42 H8         -0.1116    1.6863   -1.6984 H         1 ATP         0.2954
     43 HN62       -2.5420    7.0730    0.0447 H         1 ATP         0.4226
     44 H2          0.1969    5.7893    3.3086 H         1 ATP         0.0826
     45 H45        -1.3097    6.9080    1.9642 H         1 ATP         0.4581
     46 H46        -1.5735    3.7351   -1.9538 H         1 ATP         0.5252
@<TRIPOS>BOND
     1    1    2 2
     2    1    3 1
     3    1    4 1
     4    1    8 1
     5    4   32 1
     6    5    6 2
     7    5    7 1
     8    5    8 1
     9    5   12 1
    10    9   10 2
    11    9   11 1
    12    9   12 1
    13    9   13 1
    14   11   33 1
    15   13   14 1
    16   14   15 1
    17   14   34 1
    18   14   35 1
    19   15   16 1
    20   15   17 1
    21   15   36 1
    22   16   21 1
    23   17   18 1
    24   17   19 1
    25   17   37 1
    26   18   38 1
    27   19   20 1
    28   19   21 1
    29   19   39 1
    30   20   40 1
    31   21   22 1
    32   21   41 1
    33   22   23 ar
    34   22   31 ar
    35   23   24 ar
    36   23   42 1
    37   24   25 ar
    38   24   46 1
    39   25   26 ar
    40   25   31 ar
    41   26   27 2
    42   26   28 ar
    43   27   43 1
    44   28   29 ar
    45   28   45 1
    46   29   30 ar
    47   29   44 1
    48   30   31 ar
@<TRIPOS>SUBSTRUCTURE
     1 ATP         1 GROUP 0 A     ****
@<TRIPOS>MOLECULE
[[[3,4-dihydroxy-5-(6-imino-7,8-dihydro-1~{H}-purin-8-ylium-9-yl)tetrahydrofuran-2-yl]methoxy-hydroxy-phosphoryl]oxy-oxido-phosphoryl] hydrogen phosphate
   46    48     1     0     0
SMALL
USER_CHARGES

@<TRIPOS>ATOM
      1 PG          1.1301   -3.9196   -6.8429 P.3       1 ATP         1.5644
      2 O1G         0.6993   -3.3329   -8.1687 O.co2     1 ATP        -0.8581
      3 O2G         0.1545   -4.0441   -5.6939 O.co2     1 ATP        -0.8581
      4 O3G         1.7991   -5.3837   -7.1169 O.3       1 ATP        -0.7962
      5 PB          2.6551   -1.5897   -5.8389 P.3       1 ATP         1.6830
      6 O1B         4.0582   -1.4245   -5.2988 O.co2     1 ATP        -0.8633
      7 O2B         2.1206   -0.6714   -6.9154 O.co2     1 ATP        -0.8633
      8 O3B         2.4624   -3.1350   -6.3252 O.3       1 ATP        -0.8097
      9 PA          1.5776   -2.4676   -3.2256 P.3       1 ATP         1.7610
     10 O1A         1.9399   -3.9114   -3.4201 O.2       1 ATP        -0.8554
     11 O2A         0.0775   -2.2267   -2.6692 O.3       1 ATP        -0.8102
     12 O3A         1.6142   -1.5868   -4.5819 O.3       1 ATP        -0.7693
     13 O5'         2.5245   -1.6648   -2.1878 O.3       1 ATP        -0.5757
     14 C5'         2.2816   -0.2918   -1.9206 C.3       1 ATP         0.1911
     15 C4'         2.7248    0.0226   -0.4980 C.3       1 ATP         0.1218
     16 O4'         2.4697    1.4219   -0.2462 O.3       1 ATP        -0.4138
     17 C3'         1.9404   -0.7419    0.5596 C.3       1 ATP         0.1338
     18 O3'         2.7418   -0.8086    1.7389 O.3       1 ATP        -0.5756
     19 C2'         0.7477    0.1630    0.7858 C.3       1 ATP         0.0673
     20 O2'         0.1373   -0.0577    2.0407 O.3       1 ATP        -0.5671
     21 C1'         1.3733    1.5427    0.6747 C.3       1 ATP         0.3795
     22 N9          0.4520    2.5240    0.1767 N.pl3     1 ATP        -0.4175
     23 C8          0.2216    2.8192   -1.0985 C.ar      1 ATP         0.2552
     24 N7         -0.6906    3.7763   -1.2384 N.pl3     1 ATP        -0.4731
     25 C5         -1.0575    4.1037    0.0366 C.ar      1 ATP        -0.1295
     26 C6         -2.0291    5.0943    0.5330 C.ar      1 ATP         0.7196
     27 N6         -2.7093    5.8371   -0.2800 N.2       1 ATP        -0.8094
     28 N1         -2.1051    5.1136    1.9204 N.pl3     1 ATP        -0.8312
     29 C2         -1.3354    4.2774    2.7129 C.ar      1 ATP         0.6744
     30 N3         -0.4707    3.3945    2.2944 N.2       1 ATP        -0.5937
     31 C4         -0.3734    3.3525    0.9220 C.ar      1 ATP         0.2810
     32 HOG3        2.1312   -5.8961   -6.3491 H         1 ATP         0.4152
     33 HOA2       -0.1740   -2.6106   -1.8022 H         1 ATP         0.4571
     34 H5'1        2.8432    0.3119   -2.6398 H         1 ATP         0.0465
     35 H5'2        1.2128   -0.0927   -2.0428 H         1 ATP         0.0465
     36 H4'         3.8044   -0.1397   -0.4040 H         1 ATP         0.1379
     37 H3'         1.6764   -1.7639    0.2728 H         1 ATP         0.1317
     38 HO3'        3.5554   -1.2733    1.4914 H         1 ATP         0.4175
     39 H2'        -0.0011    0.0027    0.0003 H         1 ATP         0.0669
     40 HO2'       -0.1563   -0.9855    2.0596 H         1 ATP         0.4064
     41 H1'         1.7826    1.9024    1.6451 H         1 ATP         0.1285
     42 H8          0.7125    2.3429   -1.9292 H         1 ATP         0.2954
     43 HN62       -3.3217    6.4517    0.2629 H         1 ATP         0.4226
     44 H2         -1.5188    4.4223    3.7890 H         1 ATP         0.0826
     45 H45        -2.7470    5.7626    2.3665 H         1 ATP         0.4581
     46 H46        -1.0305    4.1680   -2.1054 H         1 ATP         0.5252
@<TRIPOS>BOND
     1    1    2 2
     2    1    3 1
     3    1    4 1
     4    1    8 1
     5    4   32 1
     6    5    6 2
     7    5    7 1
     8    5    8 1
     9    5   12 1
    10    9   10 2
    11    9   11 1
    12    9   12 1
    13    9   13 1
    14   11   33 1
    15   13   14 1
    16   14   15 1
    17   14   34 1
    18   14   35 1
    19   15   16 1
    20   15   17 1
    21   15   36 1
    22   16   21 1
    23   17   18 1
    24   17   19 1
    25   17   37 1
    26   18   38 1
    27   19   20 1
    28   19   21 1
    29   19   39 1
    30   20   40 1
    31   21   22 1
    32   21   41 1
    33   22   23 ar
    34   22   31 ar
    35   23   24 ar
    36   23   42 1
    37   24   25 ar
    38   24   46 1
    39   25   26 ar
    40   25   31 ar
    41   26   27 2
    42   26   28 ar
    43   27   43 1
    44   28   29 ar
    45   28   45 1
    46   29   30 ar
    47   29   44 1
    48   30   31 ar
@<TRIPOS>SUBSTRUCTURE
     1 ATP         1 GROUP 0 A     ****
@<TRIPOS>MOLECULE
[[[3,4-dihydroxy-5-(6-imino-7,8-dihydro-1~{H}-purin-8-ylium-9-yl)tetrahydrofuran-2-yl]methoxy-hydroxy-phosphoryl]oxy-oxido-phosphoryl] hydrogen phosphate
   46    48     1     0     0
SMALL
USER_CHARGES

@<TRIPOS>ATOM
      1 PG          4.5722    2.1958   -7.0765 P.3       1 ATP         1.5644
      2 O1G         5.5103    1.5464   -8.0694 O.co2     1 ATP        -0.8581
      3 O2G         5.0711    3.2423   -6.1052 O.co2     1 ATP        -0.8581
      4 O3G         3.2982    2.8102   -7.8923 O.3       1 ATP        -0.7962
      5 PB          4.3583   -0.0631   -5.1755 P.3       1 ATP         1.6830
      6 O1B         5.2644   -1.0293   -5.9057 O.co2     1 ATP        -0.8633
      7 O2B         4.8323    0.6681   -3.9392 O.co2     1 ATP        -0.8633
      8 O3B         3.7915    1.0300   -6.2458 O.3       1 ATP        -0.8097
      9 PA          2.6378   -2.0641   -3.8351 P.3       1 ATP         1.7610
     10 O1A         3.3753   -3.3287   -4.1674 O.2       1 ATP        -0.8554
     11 O2A         1.0268   -2.1923   -3.9146 O.3       1 ATP        -0.8102
     12 O3A         2.9594   -0.8288   -4.8287 O.3       1 ATP        -0.7693
     13 O5'         2.9216   -1.4836   -2.3516 O.3       1 ATP        -0.5757
     14 C5'         2.2816   -0.2918   -1.9206 C.3       1 ATP         0.1911
     15 C4'         2.7248    0.0226   -0.4980 C.3       1 ATP         0.1218
     16 O4'         2.4697    1.4219   -0.2462 O.3       1 ATP        -0.4138
     17 C3'         1.9404   -0.7419    0.5596 C.3       1 ATP         0.1338
     18 O3'         2.7418   -0.8086    1.7389 O.3       1 ATP        -0.5756
     19 C2'         0.7477    0.1630    0.7858 C.3       1 ATP         0.0673
     20 O2'         0.1373   -0.0577    2.0407 O.3       1 ATP        -0.5671
     21 C1'         1.3733    1.5427    0.6747 C.3       1 ATP         0.3795
     22 N9          0.4520    2.5240    0.1767 N.pl3     1 ATP        -0.4175
     23 C8         -0.2004    2.4829   -0.9804 C.ar      1 ATP         0.2552
     24 N7         -0.9830    3.5431   -1.1568 N.pl3     1 ATP        -0.4731
     25 C5         -0.8095    4.3012   -0.0331 C.ar      1 ATP        -0.1295
     26 C6         -1.4065    5.5904    0.3585 C.ar      1 ATP         0.7196
     27 N6         -2.2501    6.2030   -0.4084 N.2       1 ATP        -0.8094
     28 N1         -0.9585    6.0272    1.5994 N.pl3     1 ATP        -0.8312
     29 C2         -0.0508    5.3009    2.3532 C.ar      1 ATP         0.6744
     30 N3          0.4890    4.1592    2.0257 N.2       1 ATP        -0.5937
     31 C4          0.0637    3.7006    0.7995 C.ar      1 ATP         0.2810
     32 HOG3        2.5951    3.2678   -7.3838 H         1 ATP         0.4152
     33 HOA2        0.5737   -2.8416   -3.3356 H         1 ATP         0.4571
     34 H5'1        2.5589    0.5217   -2.5976 H         1 ATP         0.0465
     35 H5'2        1.1982   -0.4388   -1.9617 H         1 ATP         0.0465
     36 H4'         3.8044   -0.1397   -0.4040 H         1 ATP         0.1379
     37 H3'         1.6764   -1.7639    0.2728 H         1 ATP         0.1317
     38 HO3'        2.2232   -1.2979    2.3953 H         1 ATP         0.4175
     39 H2'        -0.0011    0.0027    0.0003 H         1 ATP         0.0669
     40 HO2'       -0.1563   -0.9855    2.0596 H         1 ATP         0.4064
     41 H1'         1.7826    1.9024    1.6451 H         1 ATP         0.1285
     42 H8         -0.1116    1.6863   -1.6984 H         1 ATP         0.2954
     43 HN62       -2.5420    7.0730    0.0447 H         1 ATP         0.4226
     44 H2          0.1969    5.7893    3.3086 H         1 ATP         0.0826
     45 H45        -1.3097    6.9080    1.9642 H         1 ATP         0.4581
     46 H46        -1.5735    3.7351   -1.9538 H         1 ATP         0.5252
@<TRIPOS>BOND
     1    1    2 2
     2    1    3 1
     3    1    4 1
     4    1    8 1
     5    4   32 1
     6    5    6 2
     7    5    7 1
     8    5    8 1
     9    5   12 1
    10    9   10 2
    11    9   11 1
    12    9   12 1
    13    9   13 1
    14   11   33 1
    15   13   14 1
    16   14   15 1
    17   14   34 1
    18   14   35 1
    19   15   16 1
    20   15   17 1
    21   15   36 1
    22   16   21 1
    23   17   18 1
    24   17   19 1
    25   17   37 1
    26   18   38 1
    27   19   20 1
    28   19   21 1
    29   19   39 1
    30   20   40 1
    31   21   22 1
    32   21   41 1
    33   22   23 ar
    34   22   31 ar
    35   23   24 ar
    36   23   42 1
    37   24   25 ar
    38   24   46 1
    39   25   26 ar
    40   25   31 ar
    41   26   27 2
    42   26   28 ar
    43   27   43 1
    44   28   29 ar
    45   28   45 1
    46   29   30 ar
    47   29   44 1
    48   30   31 ar
@<TRIPOS>SUBSTRUCTURE
     1 ATP         1 GROUP 0 A     ****
@<TRIPOS>MOLECULE
[[[3,4-dihydroxy-5-(6-imino-7,8-dihydro-1~{H}-purin-8-ylium-9-yl)tetrahydrofuran-2-yl]methoxy-hydroxy-phosphoryl]oxy-oxido-phosphoryl] hydrogen phosphate
   46    48     1     0     0
SMALL
USER_CHARGES

@<TRIPOS>ATOM
      1 PG          5.2988   -3.9327   -6.6915 P.3       1 ATP         1.5644
      2 O1G         4.3403   -4.9736   -7.2256 O.co2     1 ATP        -0.8581
      3 O2G         6.5489   -4.3382   -5.9429 O.co2     1 ATP        -0.8581
      4 O3G         5.7262   -2.9434   -7.9182 O.3       1 ATP        -0.7962
      5 PB          3.1387   -1.9817   -6.1532 P.3       1 ATP         1.6830
      6 O1B         3.5019   -0.9765   -7.2234 O.co2     1 ATP        -0.8633
      7 O2B         1.9680   -2.9226   -6.3318 O.co2     1 ATP        -0.8633
      8 O3B         4.4655   -2.8591   -5.7905 O.3       1 ATP        -0.8097
      9 PA          3.9521   -0.1769   -3.9527 P.3       1 ATP         1.7610
     10 O1A         4.6810    0.7861   -4.8443 O.2       1 ATP        -0.8554
     11 O2A         4.9166   -1.1746   -3.1207 O.3       1 ATP        -0.8102
     12 O3A         2.9635   -1.1884   -4.7377 O.3       1 ATP        -0.7693
     13 O5'         3.0213    0.5153   -2.8245 O.3       1 ATP        -0.5757
     14 C5'         2.2816   -0.2918   -1.9206 C.3       1 ATP         0.1911
     15 C4'         2.7248    0.0226   -0.4980 C.3       1 ATP         0.1218
     16 O4'         2.4697    1.4219   -0.2462 O.3       1 ATP        -0.4138
     17 C3'         1.9404   -0.7419    0.5596 C.3       1 ATP         0.1338
     18 O3'         2.7418   -0.8086    1.7389 O.3       1 ATP        -0.5756
     19 C2'         0.7477    0.1630    0.7858 C.3       1 ATP         0.0673
     20 O2'         0.1373   -0.0577    2.0407 O.3       1 ATP        -0.5671
     21 C1'         1.3733    1.5427    0.6747 C.3       1 ATP         0.3795
     22 N9          0.4520    2.5240    0.1767 N.pl3     1 ATP        -0.4175
     23 C8          0.2216    2.8192   -1.0985 C.ar      1 ATP         0.2552
     24 N7         -0.6906    3.7763   -1.2384 N.pl3     1 ATP        -0.4731
     25 C5         -1.0575    4.1037    0.0366 C.ar      1 ATP        -0.1295
     26 C6         -2.0291    5.0943    0.5330 C.ar      1 ATP         0.7196
     27 N6         -2.7093    5.8371   -0.2800 N.2       1 ATP        -0.8094
     28 N1         -2.1051    5.1136    1.9204 N.pl3     1 ATP        -0.8312
     29 C2         -1.3354    4.2774    2.7129 C.ar      1 ATP         0.6744
     30 N3         -0.4707    3.3945    2.2944 N.2       1 ATP        -0.5937
     31 C4         -0.3734    3.3525    0.9220 C.ar      1 ATP         0.2810
     32 HOG3        6.3494   -2.2095   -7.7304 H         1 ATP         0.4152
     33 HOA2        5.5732   -0.7917   -2.5006 H         1 ATP         0.4571
     34 H5'1        1.2163   -0.0770   -2.0471 H         1 ATP         0.0465
     35 H5'2        2.4655   -1.3443   -2.1563 H         1 ATP         0.0465
     36 H4'         3.8044   -0.1397   -0.4040 H         1 ATP         0.1379
     37 H3'         1.6764   -1.7639    0.2728 H         1 ATP         0.1317
     38 HO3'        2.2232   -1.2979    2.3953 H         1 ATP         0.4175
     39 H2'        -0.0011    0.0027    0.0003 H         1 ATP         0.0669
     40 HO2'       -0.6141    0.5574    2.1082 H         1 ATP         0.4064
     41 H1'         1.7826    1.9024    1.6451 H         1 ATP         0.1285
     42 H8          0.7125    2.3429   -1.9292 H         1 ATP         0.2954
     43 HN62       -3.3217    6.4517    0.2629 H         1 ATP         0.4226
     44 H2         -1.5188    4.4223    3.7890 H         1 ATP         0.0826
     45 H45        -2.7470    5.7626    2.3665 H         1 ATP         0.4581
     46 H46        -1.0305    4.1680   -2.1054 H         1 ATP         0.5252
@<TRIPOS>BOND
     1    1    2 2
     2    1    3 1
     3    1    4 1
     4    1    8 1
     5    4   32 1
     6    5    6 2
     7    5    7 1
     8    5    8 1
     9    5   12 1
    10    9   10 2
    11    9   11 1
    12    9   12 1
    13    9   13 1
    14   11   33 1
    15   13   14 1
    16   14   15 1
    17   14   34 1
    18   14   35 1
    19   15   16 1
    20   15   17 1
    21   15   36 1
    22   16   21 1
    23   17   18 1
    24   17   19 1
    25   17   37 1
    26   18   38 1
    27   19   20 1
    28   19   21 1
    29   19   39 1
    30   20   40 1
    31   21   22 1
    32   21   41 1
    33   22   23 ar
    34   22   31 ar
    35   23   24 ar
    36   23   42 1
    37   24   25 ar
    38   24   46 1
    39   25   26 ar
    40   25   31 ar
    41   26   27 2
    42   26   28 ar
    43   27   43 1
    44   28   29 ar
    45   28   45 1
    46   29   30 ar
    47   29   44 1
    48   30   31 ar
@<TRIPOS>SUBSTRUCTURE
     1 ATP         1 GROUP 0 A     ****
@<TRIPOS>MOLECULE
[[[3,4-dihydroxy-5-(6-imino-7,8-dihydro-1~{H}-purin-8-ylium-9-yl)tetrahydrofuran-2-yl]methoxy-hydroxy-phosphoryl]oxy-oxido-phosphoryl] hydrogen phosphate
   46    48     1     0     0
SMALL
USER_CHARGES

@<TRIPOS>ATOM
      1 PG          5.5997   -3.2379   -6.2826 P.3       1 ATP         1.5644
      2 O1G         6.5568   -2.4885   -7.1825 O.co2     1 ATP        -0.8581
      3 O2G         4.1068   -3.1844   -6.5189 O.co2     1 ATP        -0.8581
      4 O3G         6.0604   -4.8034   -6.2251 O.3       1 ATP        -0.7962
      5 PB          5.7145   -1.4155   -3.9528 P.3       1 ATP         1.6830
      6 O1B         5.9887   -1.6313   -2.4811 O.co2     1 ATP        -0.8633
      7 O2B         6.4320   -0.3340   -4.7296 O.co2     1 ATP        -0.8633
      8 O3B         5.9064   -2.8357   -4.7325 O.3       1 ATP        -0.8097
      9 PA          2.8587   -2.1496   -3.6950 P.3       1 ATP         1.7610
     10 O1A         3.0952   -3.6247   -3.8434 O.2       1 ATP        -0.8554
     11 O2A         1.6310   -1.5797   -4.5815 O.3       1 ATP        -0.8102
     12 O3A         4.1060   -1.2287   -4.1564 O.3       1 ATP        -0.7693
     13 O5'         2.5245   -1.6648   -2.1878 O.3       1 ATP        -0.5757
     14 C5'         2.2816   -0.2918   -1.9206 C.3       1 ATP         0.1911
     15 C4'         2.7248    0.0226   -0.4980 C.3       1 ATP         0.1218
     16 O4'         2.4697    1.4219   -0.2462 O.3       1 ATP        -0.4138
     17 C3'         1.9404   -0.7419    0.5596 C.3       1 ATP         0.1338
     18 O3'         2.7418   -0.8086    1.7389 O.3       1 ATP        -0.5756
     19 C2'         0.7477    0.1630    0.7858 C.3       1 ATP         0.0673
     20 O2'         0.1373   -0.0577    2.0407 O.3       1 ATP        -0.5671
     21 C1'         1.3733    1.5427    0.6747 C.3       1 ATP         0.3795
     22 N9          0.4520    2.5240    0.1767 N.pl3     1 ATP        -0.4175
     23 C8          0.2216    2.8192   -1.0985 C.ar      1 ATP         0.2552
     24 N7         -0.6906    3.7763   -1.2384 N.pl3     1 ATP        -0.4731
     25 C5         -1.0575    4.1037    0.0366 C.ar      1 ATP        -0.1295
     26 C6         -2.0291    5.0943    0.5330 C.ar      1 ATP         0.7196
     27 N6         -2.7093    5.8371   -0.2800 N.2       1 ATP        -0.8094
     28 N1         -2.1051    5.1136    1.9204 N.pl3     1 ATP        -0.8312
     29 C2         -1.3354    4.2774    2.7129 C.ar      1 ATP         0.6744
     30 N3         -0.4707    3.3945    2.2944 N.2       1 ATP        -0.5937
     31 C4         -0.3734    3.3525    0.9220 C.ar      1 ATP         0.2810
     32 HOG3        5.5347   -5.4247   -5.6774 H         1 ATP         0.4152
     33 HOA2        1.6660   -1.6756   -5.5571 H         1 ATP         0.4571
     34 H5'1        2.8432    0.3119   -2.6398 H         1 ATP         0.0465
     35 H5'2        1.2128   -0.0927   -2.0428 H         1 ATP         0.0465
     36 H4'         3.8044   -0.1397   -0.4040 H         1 ATP         0.1379
     37 H3'         1.6764   -1.7639    0.2728 H         1 ATP         0.1317
     38 HO3'        2.2232   -1.2979    2.3953 H         1 ATP         0.4175
     39 H2'        -0.0011    0.0027    0.0003 H         1 ATP         0.0669
     40 HO2'       -0.6141    0.5574    2.1082 H         1 ATP         0.4064
     41 H1'         1.7826    1.9024    1.6451 H         1 ATP         0.1285
     42 H8          0.7125    2.3429   -1.9292 H         1 ATP         0.2954
     43 HN62       -3.3217    6.4517    0.2629 H         1 ATP         0.4226
     44 H2         -1.5188    4.4223    3.7890 H         1 ATP         0.0826
     45 H45        -2.7470    5.7626    2.3665 H         1 ATP         0.4581
     46 H46        -1.0305    4.1680   -2.1054 H         1 ATP         0.5252
@<TRIPOS>BOND
     1    1    2 2
     2    1    3 1
     3    1    4 1
     4    1    8 1
     5    4   32 1
     6    5    6 2
     7    5    7 1
     8    5    8 1
     9    5   12 1
    10    9   10 2
    11    9   11 1
    12    9   12 1
    13    9   13 1
    14   11   33 1
    15   13   14 1
    16   14   15 1
    17   14   34 1
    18   14   35 1
    19   15   16 1
    20   15   17 1
    21   15   36 1
    22   16   21 1
    23   17   18 1
    24   17   19 1
    25   17   37 1
    26   18   38 1
    27   19   20 1
    28   19   21 1
    29   19   39 1
    30   20   40 1
    31   21   22 1
    32   21   41 1
    33   22   23 ar
    34   22   31 ar
    35   23   24 ar
    36   23   42 1
    37   24   25 ar
    38   24   46 1
    39   25   26 ar
    40   25   31 ar
    41   26   27 2
    42   26   28 ar
    43   27   43 1
    44   28   29 ar
    45   28   45 1
    46   29   30 ar
    47   29   44 1
    48   30   31 ar
@<TRIPOS>SUBSTRUCTURE
     1 ATP         1 GROUP 0 A     ****
@<TRIPOS>MOLECULE
[[[3,4-dihydroxy-5-(6-imino-7,8-dihydro-1~{H}-purin-8-ylium-9-yl)tetrahydrofuran-2-yl]methoxy-hydroxy-phosphoryl]oxy-oxido-phosphoryl] hydrogen phosphate
   46    48     1     0     0
SMALL
USER_CHARGES

@<TRIPOS>ATOM
      1 PG          1.3012    2.1719   -6.8452 P.3       1 ATP         1.5644
      2 O1G         1.8524    3.1099   -7.8958 O.co2     1 ATP        -0.8581
      3 O2G         1.4815    2.4623   -5.3719 O.co2     1 ATP        -0.8581
      4 O3G        -0.2887    1.9421   -7.1382 O.3       1 ATP        -0.7962
      5 PB          1.4350   -0.7595   -6.4560 P.3       1 ATP         1.6830
      6 O1B        -0.0700   -0.9081   -6.4764 O.co2     1 ATP        -0.8633
      7 O2B         2.3332   -1.8413   -7.0134 O.co2     1 ATP        -0.8633
      8 O3B         1.8280    0.6605   -7.1565 O.3       1 ATP        -0.8097
      9 PA          3.3429   -0.0249   -4.3155 P.3       1 ATP         1.7610
     10 O1A         4.1316    0.9232   -5.1715 O.2       1 ATP        -0.8554
     11 O2A         4.0556   -1.4579   -4.0783 O.3       1 ATP        -0.8102
     12 O3A         1.9004   -0.4266   -4.9275 O.3       1 ATP        -0.7693
     13 O5'         3.0213    0.5153   -2.8245 O.3       1 ATP        -0.5757
     14 C5'         2.2816   -0.2918   -1.9206 C.3       1 ATP         0.1911
     15 C4'         2.7248    0.0226   -0.4980 C.3       1 ATP         0.1218
     16 O4'         2.4697    1.4219   -0.2462 O.3       1 ATP        -0.4138
     17 C3'         1.9404   -0.7419    0.5596 C.3       1 ATP         0.1338
     18 O3'         2.7418   -0.8086    1.7389 O.3       1 ATP        -0.5756
     19 C2'         0.7477    0.1630    0.7858 C.3       1 ATP         0.0673
     20 O2'         0.1373   -0.0577    2.0407 O.3       1 ATP        -0.5671
     21 C1'         1.3733    1.5427    0.6747 C.3       1 ATP         0.3795
     22 N9          0.4520    2.5240    0.1767 N.pl3     1 ATP        -0.4175
     23 C8          0.2216    2.8192   -1.0985 C.ar      1 ATP         0.2552
     24 N7         -0.6906    3.7763   -1.2384 N.pl3     1 ATP        -0.4731
     25 C5         -1.0575    4.1037    0.0366 C.ar      1 ATP        -0.1295
     26 C6         -2.0291    5.0943    0.5330 C.ar      1 ATP         0.7196
     27 N6         -2.7093    5.8371   -0.2800 N.2       1 ATP        -0.8094
     28 N1         -2.1051    5.1136    1.9204 N.pl3     1 ATP        -0.8312
     29 C2         -1.3354    4.2774    2.7129 C.ar      1 ATP         0.6744
     30 N3         -0.4707    3.3945    2.2944 N.2       1 ATP        -0.5937
     31 C4         -0.3734    3.3525    0.9220 C.ar      1 ATP         0.2810
     32 HOG3       -0.7935    1.3528   -6.5380 H         1 ATP         0.4152
     33 HOA2        4.2608   -2.0199   -4.8557 H         1 ATP         0.4571
     34 H5'1        1.2163   -0.0770   -2.0471 H         1 ATP         0.0465
     35 H5'2        2.4655   -1.3443   -2.1563 H         1 ATP         0.0465
     36 H4'         3.8044   -0.1397   -0.4040 H         1 ATP         0.1379
     37 H3'         1.6764   -1.7639    0.2728 H         1 ATP         0.1317
     38 HO3'        3.5554   -1.2733    1.4914 H         1 ATP         0.4175
     39 H2'        -0.0011    0.0027    0.0003 H         1 ATP         0.0669
     40 HO2'       -0.6141    0.5574    2.1082 H         1 ATP         0.4064
     41 H1'         1.7826    1.9024    1.6451 H         1 ATP         0.1285
     42 H8          0.7125    2.3429   -1.9292 H         1 ATP         0.2954
     43 HN62       -3.3217    6.4517    0.2629 H         1 ATP         0.4226
     44 H2         -1.5188    4.4223    3.7890 H         1 ATP         0.0826
     45 H45        -2.7470    5.7626    2.3665 H         1 ATP         0.4581
     46 H46        -1.0305    4.1680   -2.1054 H         1 ATP         0.5252
@<TRIPOS>BOND
     1    1    2 2
     2    1    3 1
     3    1    4 1
     4    1    8 1
     5    4   32 1
     6    5    6 2
     7    5    7 1
     8    5    8 1
     9    5   12 1
    10    9   10 2
    11    9   11 1
    12    9   12 1
    13    9   13 1
    14   11   33 1
    15   13   14 1
    16   14   15 1
    17   14   34 1
    18   14   35 1
    19   15   16 1
    20   15   17 1
    21   15   36 1
    22   16   21 1
    23   17   18 1
    24   17   19 1
    25   17   37 1
    26   18   38 1
    27   19   20 1
    28   19   21 1
    29   19   39 1
    30   20   40 1
    31   21   22 1
    32   21   41 1
    33   22   23 ar
    34   22   31 ar
    35   23   24 ar
    36   23   42 1
    37   24   25 ar
    38   24   46 1
    39   25   26 ar
    40   25   31 ar
    41   26   27 2
    42   26   28 ar
    43   27   43 1
    44   28   29 ar
    45   28   45 1
    46   29   30 ar
    47   29   44 1
    48   30   31 ar
@<TRIPOS>SUBSTRUCTURE
     1 ATP         1 GROUP 0 A     ****
@<TRIPOS>MOLECULE
[[[3,4-dihydroxy-5-(6-imino-7,8-dihydro-1~{H}-purin-8-ylium-9-yl)tetrahydrofuran-2-yl]methoxy-hydroxy-phosphoryl]oxy-oxido-phosphoryl] hydrogen phosphate
   46    48     1     0     0
SMALL
USER_CHARGES

@<TRIPOS>ATOM
      1 PG          4.2319   -2.9900   -8.1786 P.3       1 ATP         1.5644
      2 O1G         5.2548   -2.0766   -8.8166 O.co2     1 ATP        -0.8581
      3 O2G         3.0220   -3.4634   -8.9528 O.co2     1 ATP        -0.8581
      4 O3G         5.0065   -4.2954   -7.5767 O.3       1 ATP        -0.7962
      5 PB          2.7725   -2.9343   -5.6039 P.3       1 ATP         1.6830
      6 O1B         1.3737   -3.0818   -6.1603 O.co2     1 ATP        -0.8633
      7 O2B         3.4775   -4.1002   -4.9471 O.co2     1 ATP        -0.8633
      8 O3B         3.7370   -2.3294   -6.7724 O.3       1 ATP        -0.8097
      9 PA          4.0072   -0.9371   -3.8018 P.3       1 ATP         1.7610
     10 O1A         5.0554   -0.3590   -4.7078 O.2       1 ATP        -0.8554
     11 O2A         4.5510   -2.0894   -2.8046 O.3       1 ATP        -0.8102
     12 O3A         2.7889   -1.6652   -4.5779 O.3       1 ATP        -0.7693
     13 O5'         3.2903    0.1346   -2.8241 O.3       1 ATP        -0.5757
     14 C5'         2.2816   -0.2918   -1.9206 C.3       1 ATP         0.1911
     15 C4'         2.7248    0.0226   -0.4980 C.3       1 ATP         0.1218
     16 O4'         2.4697    1.4219   -0.2462 O.3       1 ATP        -0.4138
     17 C3'         1.9404   -0.7419    0.5596 C.3       1 ATP         0.1338
     18 O3'         2.7418   -0.8086    1.7389 O.3       1 ATP        -0.5756
     19 C2'         0.7477    0.1630    0.7858 C.3       1 ATP         0.0673
     20 O2'         0.1373   -0.0577    2.0407 O.3       1 ATP        -0.5671
     21 C1'         1.3733    1.5427    0.6747 C.3       1 ATP         0.3795
     22 N9          0.4520    2.5240    0.1767 N.pl3     1 ATP        -0.4175
     23 C8          0.2216    2.8192   -1.0985 C.ar      1 ATP         0.2552
     24 N7         -0.6906    3.7763   -1.2384 N.pl3     1 ATP        -0.4731
     25 C5         -1.0575    4.1037    0.0366 C.ar      1 ATP        -0.1295
     26 C6         -2.0291    5.0943    0.5330 C.ar      1 ATP         0.7196
     27 N6         -2.7093    5.8371   -0.2800 N.2       1 ATP        -0.8094
     28 N1         -2.1051    5.1136    1.9204 N.pl3     1 ATP        -0.8312
     29 C2         -1.3354    4.2774    2.7129 C.ar      1 ATP         0.6744
     30 N3         -0.4707    3.3945    2.2944 N.2       1 ATP        -0.5937
     31 C4         -0.3734    3.3525    0.9220 C.ar      1 ATP         0.2810
     32 HOG3        4.4754   -4.9870   -7.1274 H         1 ATP         0.4152
     33 HOA2        5.2614   -1.8670   -2.1658 H         1 ATP         0.4571
     34 H5'1        1.3514    0.2330   -2.1577 H         1 ATP         0.0465
     35 H5'2        2.1280   -1.3678   -2.0460 H         1 ATP         0.0465
     36 H4'         3.8044   -0.1397   -0.4040 H         1 ATP         0.1379
     37 H3'         1.6764   -1.7639    0.2728 H         1 ATP         0.1317
     38 HO3'        2.2232   -1.2979    2.3953 H         1 ATP         0.4175
     39 H2'        -0.0011    0.0027    0.0003 H         1 ATP         0.0669
     40 HO2'       -0.1563   -0.9855    2.0596 H         1 ATP         0.4064
     41 H1'         1.7826    1.9024    1.6451 H         1 ATP         0.1285
     42 H8          0.7125    2.3429   -1.9292 H         1 ATP         0.2954
     43 HN62       -3.3217    6.4517    0.2629 H         1 ATP         0.4226
     44 H2         -1.5188    4.4223    3.7890 H         1 ATP         0.0826
     45 H45        -2.7470    5.7626    2.3665 H         1 ATP         0.4581
     46 H46        -1.0305    4.1680   -2.1054 H         1 ATP         0.5252
@<TRIPOS>BOND
     1    1    2 2
     2    1    3 1
     3    1    4 1
     4    1    8 1
     5    4   32 1
     6    5    6 2
     7    5    7 1
     8    5    8 1
     9    5   12 1
    10    9   10 2
    11    9   11 1
    12    9   12 1
    13    9   13 1
    14   11   33 1
    15   13   14 1
    16   14   15 1
    17   14   34 1
    18   14   35 1
    19   15   16 1
    20   15   17 1
    21   15   36 1
    22   16   21 1
    23   17   18 1
    24   17   19 1
    25   17   37 1
    26   18   38 1
    27   19   20 1
    28   19   21 1
    29   19   39 1
    30   20   40 1
    31   21   22 1
    32   21   41 1
    33   22   23 ar
    34   22   31 ar
    35   23   24 ar
    36   23   42 1
    37   24   25 ar
    38   24   46 1
    39   25   26 ar
    40   25   31 ar
    41   26   27 2
    42   26   28 ar
    43   27   43 1
    44   28   29 ar
    45   28   45 1
    46   29   30 ar
    47   29   44 1
    48   30   31 ar
@<TRIPOS>SUBSTRUCTURE
     1 ATP         1 GROUP 0 A     ****
@<TRIPOS>MOLECULE
[[[3,4-dihydroxy-5-(6-imino-7,8-dihydro-1~{H}-purin-8-ylium-9-yl)tetrahydrofuran-2-yl]methoxy-hydroxy-phosphoryl]oxy-oxido-phosphoryl] hydrogen phosphate
   46    48     1     0     0
SMALL
USER_CHARGES

@<TRIPOS>ATOM
      1 PG          0.8952   -4.1208   -7.7226 P.3       1 ATP         1.5644
      2 O1G        -0.6104   -4.2140   -7.8319 O.co2     1 ATP        -0.8581
      3 O2G         1.7541   -5.3657   -7.7329 O.co2     1 ATP        -0.8581
      4 O3G         1.4374   -3.1065   -8.8816 O.3       1 ATP        -0.7962
      5 PB          0.7855   -1.7301   -5.9806 P.3       1 ATP         1.6830
      6 O1B         1.3421   -0.7316   -6.9710 O.co2     1 ATP        -0.8633
      7 O2B        -0.6935   -1.7764   -5.6673 O.co2     1 ATP        -0.8633
      8 O3B         1.2762   -3.2241   -6.4151 O.3       1 ATP        -0.8097
      9 PA          1.5776   -2.4676   -3.2256 P.3       1 ATP         1.7610
     10 O1A         1.9399   -3.9114   -3.4201 O.2       1 ATP        -0.8554
     11 O2A         0.0775   -2.2267   -2.6692 O.3       1 ATP        -0.8102
     12 O3A         1.6142   -1.5868   -4.5819 O.3       1 ATP        -0.7693
     13 O5'         2.5245   -1.6648   -2.1878 O.3       1 ATP        -0.5757
     14 C5'         2.2816   -0.2918   -1.9206 C.3       1 ATP         0.1911
     15 C4'         2.7248    0.0226   -0.4980 C.3       1 ATP         0.1218
     16 O4'         2.4697    1.4219   -0.2462 O.3       1 ATP        -0.4138
     17 C3'         1.9404   -0.7419    0.5596 C.3       1 ATP         0.1338
     18 O3'         2.7418   -0.8086    1.7389 O.3       1 ATP        -0.5756
     19 C2'         0.7477    0.1630    0.7858 C.3       1 ATP         0.0673
     20 O2'         0.1373   -0.0577    2.0407 O.3       1 ATP        -0.5671
     21 C1'         1.3733    1.5427    0.6747 C.3       1 ATP         0.3795
     22 N9          0.4520    2.5240    0.1767 N.pl3     1 ATP        -0.4175
     23 C8         -0.2004    2.4829   -0.9804 C.ar      1 ATP         0.2552
     24 N7         -0.9830    3.5431   -1.1568 N.pl3     1 ATP        -0.4731
     25 C5         -0.8095    4.3012   -0.0331 C.ar      1 ATP        -0.1295
     26 C6         -1.4065    5.5904    0.3585 C.ar      1 ATP         0.7196
     27 N6         -2.2501    6.2030   -0.4084 N.2       1 ATP        -0.8094
     28 N1         -0.9585    6.0272    1.5994 N.pl3     1 ATP        -0.8312
     29 C2         -0.0508    5.3009    2.3532 C.ar      1 ATP         0.6744
     30 N3          0.4890    4.1592    2.0257 N.2       1 ATP        -0.5937
     31 C4          0.0637    3.7006    0.7995 C.ar      1 ATP         0.2810
     32 HOG3        2.4022   -2.9400   -8.9420 H         1 ATP         0.4152
     33 HOA2       -0.1740   -2.6106   -1.8022 H         1 ATP         0.4571
     34 H5'1        2.8432    0.3119   -2.6398 H         1 ATP         0.0465
     35 H5'2        1.2128   -0.0927   -2.0428 H         1 ATP         0.0465
     36 H4'         3.8044   -0.1397   -0.4040 H         1 ATP         0.1379
     37 H3'         1.6764   -1.7639    0.2728 H         1 ATP         0.1317
     38 HO3'        2.2232   -1.2979    2.3953 H         1 ATP         0.4175
     39 H2'        -0.0011    0.0027    0.0003 H         1 ATP         0.0669
     40 HO2'       -0.1563   -0.9855    2.0596 H         1 ATP         0.4064
     41 H1'         1.7826    1.9024    1.6451 H         1 ATP         0.1285
     42 H8         -0.1116    1.6863   -1.6984 H         1 ATP         0.2954
     43 HN62       -2.5420    7.0730    0.0447 H         1 ATP         0.4226
     44 H2          0.1969    5.7893    3.3086 H         1 ATP         0.0826
     45 H45        -1.3097    6.9080    1.9642 H         1 ATP         0.4581
     46 H46        -1.5735    3.7351   -1.9538 H         1 ATP         0.5252
@<TRIPOS>BOND
     1    1    2 2
     2    1    3 1
     3    1    4 1
     4    1    8 1
     5    4   32 1
     6    5    6 2
     7    5    7 1
     8    5    8 1
     9    5   12 1
    10    9   10 2
    11    9   11 1
    12    9   12 1
    13    9   13 1
    14   11   33 1
    15   13   14 1
    16   14   15 1
    17   14   34 1
    18   14   35 1
    19   15   16 1
    20   15   17 1
    21   15   36 1
    22   16   21 1
    23   17   18 1
    24   17   19 1
    25   17   37 1
    26   18   38 1
    27   19   20 1
    28   19   21 1
    29   19   39 1
    30   20   40 1
    31   21   22 1
    32   21   41 1
    33   22   23 ar
    34   22   31 ar
    35   23   24 ar
    36   23   42 1
    37   24   25 ar
    38   24   46 1
    39   25   26 ar
    40   25   31 ar
    41   26   27 2
    42   26   28 ar
    43   27   43 1
    44   28   29 ar
    45   28   45 1
    46   29   30 ar
    47   29   44 1
    48   30   31 ar
@<TRIPOS>SUBSTRUCTURE
     1 ATP         1 GROUP 0 A     ****
@<TRIPOS>MOLECULE
[[[3,4-dihydroxy-5-(6-imino-7,8-dihydro-1~{H}-purin-8-ylium-9-yl)tetrahydrofuran-2-yl]methoxy-hydroxy-phosphoryl]oxy-oxido-phosphoryl] hydrogen phosphate
   46    48     1     0     0
SMALL
USER_CHARGES

@<TRIPOS>ATOM
      1 PG          3.7214   -5.6448   -4.8864 P.3       1 ATP         1.5644
      2 O1G         4.1418   -6.2913   -3.5853 O.co2     1 ATP        -0.8581
      3 O2G         4.5769   -5.7675   -6.1276 O.co2     1 ATP        -0.8581
      4 O3G         2.2086   -6.1422   -5.2474 O.3       1 ATP        -0.7962
      5 PB          2.7725   -2.9343   -5.6039 P.3       1 ATP         1.6830
      6 O1B         3.7590   -2.6621   -6.7176 O.co2     1 ATP        -0.8633
      7 O2B         1.3355   -3.2971   -5.9062 O.co2     1 ATP        -0.8633
      8 O3B         3.4025   -4.0689   -4.6153 O.3       1 ATP        -0.8097
      9 PA          4.0072   -0.9371   -3.8018 P.3       1 ATP         1.7610
     10 O1A         5.0554   -0.3590   -4.7078 O.2       1 ATP        -0.8554
     11 O2A         4.5510   -2.0894   -2.8046 O.3       1 ATP        -0.8102
     12 O3A         2.7889   -1.6652   -4.5779 O.3       1 ATP        -0.7693
     13 O5'         3.2903    0.1346   -2.8241 O.3       1 ATP        -0.5757
     14 C5'         2.2816   -0.2918   -1.9206 C.3       1 ATP         0.1911
     15 C4'         2.7248    0.0226   -0.4980 C.3       1 ATP         0.1218
     16 O4'         2.4697    1.4219   -0.2462 O.3       1 ATP        -0.4138
     17 C3'         1.9404   -0.7419    0.5596 C.3       1 ATP         0.1338
     18 O3'         2.7418   -0.8086    1.7389 O.3       1 ATP        -0.5756
     19 C2'         0.7477    0.1630    0.7858 C.3       1 ATP         0.0673
     20 O2'         0.1373   -0.0577    2.0407 O.3       1 ATP        -0.5671
     21 C1'         1.3733    1.5427    0.6747 C.3       1 ATP         0.3795
     22 N9          0.4520    2.5240    0.1767 N.pl3     1 ATP        -0.4175
     23 C8          0.2216    2.8192   -1.0985 C.ar      1 ATP         0.2552
     24 N7         -0.6906    3.7763   -1.2384 N.pl3     1 ATP        -0.4731
     25 C5         -1.0575    4.1037    0.0366 C.ar      1 ATP        -0.1295
     26 C6         -2.0291    5.0943    0.5330 C.ar      1 ATP         0.7196
     27 N6         -2.7093    5.8371   -0.2800 N.2       1 ATP        -0.8094
     28 N1         -2.1051    5.1136    1.9204 N.pl3     1 ATP        -0.8312
     29 C2         -1.3354    4.2774    2.7129 C.ar      1 ATP         0.6744
     30 N3         -0.4707    3.3945    2.2944 N.2       1 ATP        -0.5937
     31 C4         -0.3734    3.3525    0.9220 C.ar      1 ATP         0.2810
     32 HOG3        1.7910   -5.8074   -6.0695 H         1 ATP         0.4152
     33 HOA2        4.9474   -2.9003   -3.1885 H         1 ATP         0.4571
     34 H5'1        1.3514    0.2330   -2.1577 H         1 ATP         0.0465
     35 H5'2        2.1280   -1.3678   -2.0460 H         1 ATP         0.0465
     36 H4'         3.8044   -0.1397   -0.4040 H         1 ATP         0.1379
     37 H3'         1.6764   -1.7639    0.2728 H         1 ATP         0.1317
     38 HO3'        2.2232   -1.2979    2.3953 H         1 ATP         0.4175
     39 H2'        -0.0011    0.0027    0.0003 H         1 ATP         0.0669
     40 HO2'       -0.6141    0.5574    2.1082 H         1 ATP         0.4064
     41 H1'         1.7826    1.9024    1.6451 H         1 ATP         0.1285
     42 H8          0.7125    2.3429   -1.9292 H         1 ATP         0.2954
     43 HN62       -3.3217    6.4517    0.2629 H         1 ATP         0.4226
     44 H2         -1.5188    4.4223    3.7890 H         1 ATP         0.0826
     45 H45        -2.7470    5.7626    2.3665 H         1 ATP         0.4581
     46 H46        -1.0305    4.1680   -2.1054 H         1 ATP         0.5252
@<TRIPOS>BOND
     1    1    2 2
     2    1    3 1
     3    1    4 1
     4    1    8 1
     5    4   32 1
     6    5    6 2
     7    5    7 1
     8    5    8 1
     9    5   12 1
    10    9   10 2
    11    9   11 1
    12    9   12 1
    13    9   13 1
    14   11   33 1
    15   13   14 1
    16   14   15 1
    17   14   34 1
    18   14   35 1
    19   15   16 1
    20   15   17 1
    21   15   36 1
    22   16   21 1
    23   17   18 1
    24   17   19 1
    25   17   37 1
    26   18   38 1
    27   19   20 1
    28   19   21 1
    29   19   39 1
    30   20   40 1
    31   21   22 1
    32   21   41 1
    33   22   23 ar
    34   22   31 ar
    35   23   24 ar
    36   23   42 1
    37   24   25 ar
    38   24   46 1
    39   25   26 ar
    40   25   31 ar
    41   26   27 2
    42   26   28 ar
    43   27   43 1
    44   28   29 ar
    45   28   45 1
    46   29   30 ar
    47   29   44 1
    48   30   31 ar
@<TRIPOS>SUBSTRUCTURE
     1 ATP         1 GROUP 0 A     ****
@<TRIPOS>MOLECULE
[[[3,4-dihydroxy-5-(6-imino-7,8-dihydro-1~{H}-purin-8-ylium-9-yl)tetrahydrofuran-2-yl]methoxy-hydroxy-phosphoryl]oxy-oxido-phosphoryl] hydrogen phosphate
   46    48     1     0     0
SMALL
USER_CHARGES

@<TRIPOS>ATOM
      1 PG          7.2481   -3.7271   -4.9857 P.3       1 ATP         1.5644
      2 O1G         6.9082   -4.8727   -5.9128 O.co2     1 ATP        -0.8581
      3 O2G         7.9310   -3.9763   -3.6595 O.co2     1 ATP        -0.8581
      4 O3G         8.1195   -2.6264   -5.8196 O.3       1 ATP        -0.7962
      5 PB          5.7145   -1.4155   -3.9528 P.3       1 ATP         1.6830
      6 O1B         5.9887   -1.6313   -2.4811 O.co2     1 ATP        -0.8633
      7 O2B         6.4320   -0.3340   -4.7296 O.co2     1 ATP        -0.8633
      8 O3B         5.9064   -2.8357   -4.7325 O.3       1 ATP        -0.8097
      9 PA          2.8587   -2.1496   -3.6950 P.3       1 ATP         1.7610
     10 O1A         3.0952   -3.6247   -3.8434 O.2       1 ATP        -0.8554
     11 O2A         1.6310   -1.5797   -4.5815 O.3       1 ATP        -0.8102
     12 O3A         4.1060   -1.2287   -4.1564 O.3       1 ATP        -0.7693
     13 O5'         2.5245   -1.6648   -2.1878 O.3       1 ATP        -0.5757
     14 C5'         2.2816   -0.2918   -1.9206 C.3       1 ATP         0.1911
     15 C4'         2.7248    0.0226   -0.4980 C.3       1 ATP         0.1218
     16 O4'         2.4697    1.4219   -0.2462 O.3       1 ATP        -0.4138
     17 C3'         1.9404   -0.7419    0.5596 C.3       1 ATP         0.1338
     18 O3'         2.7418   -0.8086    1.7389 O.3       1 ATP        -0.5756
     19 C2'         0.7477    0.1630    0.7858 C.3       1 ATP         0.0673
     20 O2'         0.1373   -0.0577    2.0407 O.3       1 ATP        -0.5671
     21 C1'         1.3733    1.5427    0.6747 C.3       1 ATP         0.3795
     22 N9          0.4520    2.5240    0.1767 N.pl3     1 ATP        -0.4175
     23 C8          0.2216    2.8192   -1.0985 C.ar      1 ATP         0.2552
     24 N7         -0.6906    3.7763   -1.2384 N.pl3     1 ATP        -0.4731
     25 C5         -1.0575    4.1037    0.0366 C.ar      1 ATP        -0.1295
     26 C6         -2.0291    5.0943    0.5330 C.ar      1 ATP         0.7196
     27 N6         -2.7093    5.8371   -0.2800 N.2       1 ATP        -0.8094
     28 N1         -2.1051    5.1136    1.9204 N.pl3     1 ATP        -0.8312
     29 C2         -1.3354    4.2774    2.7129 C.ar      1 ATP         0.6744
     30 N3         -0.4707    3.3945    2.2944 N.2       1 ATP        -0.5937
     31 C4         -0.3734    3.3525    0.9220 C.ar      1 ATP         0.2810
     32 HOG3        8.4189   -1.8173   -5.3526 H         1 ATP         0.4152
     33 HOA2        0.7307   -1.9389   -4.4311 H         1 ATP         0.4571
     34 H5'1        2.8432    0.3119   -2.6398 H         1 ATP         0.0465
     35 H5'2        1.2128   -0.0927   -2.0428 H         1 ATP         0.0465
     36 H4'         3.8044   -0.1397   -0.4040 H         1 ATP         0.1379
     37 H3'         1.6764   -1.7639    0.2728 H         1 ATP         0.1317
     38 HO3'        3.5554   -1.2733    1.4914 H         1 ATP         0.4175
     39 H2'        -0.0011    0.0027    0.0003 H         1 ATP         0.0669
     40 HO2'       -0.1563   -0.9855    2.0596 H         1 ATP         0.4064
     41 H1'         1.7826    1.9024    1.6451 H         1 ATP         0.1285
     42 H8          0.7125    2.3429   -1.9292 H         1 ATP         0.2954
     43 HN62       -3.3217    6.4517    0.2629 H         1 ATP         0.4226
     44 H2         -1.5188    4.4223    3.7890 H         1 ATP         0.0826
     45 H45        -2.7470    5.7626    2.3665 H         1 ATP         0.4581
     46 H46        -1.0305    4.1680   -2.1054 H         1 ATP         0.5252
@<TRIPOS>BOND
     1    1    2 2
     2    1    3 1
     3    1    4 1
     4    1    8 1
     5    4   32 1
     6    5    6 2
     7    5    7 1
     8    5    8 1
     9    5   12 1
    10    9   10 2
    11    9   11 1
    12    9   12 1
    13    9   13 1
    14   11   33 1
    15   13   14 1
    16   14   15 1
    17   14   34 1
    18   14   35 1
    19   15   16 1
    20   15   17 1
    21   15   36 1
    22   16   21 1
    23   17   18 1
    24   17   19 1
    25   17   37 1
    26   18   38 1
    27   19   20 1
    28   19   21 1
    29   19   39 1
    30   20   40 1
    31   21   22 1
    32   21   41 1
    33   22   23 ar
    34   22   31 ar
    35   23   24 ar
    36   23   42 1
    37   24   25 ar
    38   24   46 1
    39   25   26 ar
    40   25   31 ar
    41   26   27 2
    42   26   28 ar
    43   27   43 1
    44   28   29 ar
    45   28   45 1
    46   29   30 ar
    47   29   44 1
    48   30   31 ar
@<TRIPOS>SUBSTRUCTURE
     1 ATP         1 GROUP 0 A     ****
@<TRIPOS>MOLECULE
[[[3,4-dihydroxy-5-(6-imino-7,8-dihydro-1~{H}-purin-8-ylium-9-yl)tetrahydrofuran-2-yl]methoxy-hydroxy-phosphoryl]oxy-oxido-phosphoryl] hydrogen phosphate
   46    48     1     0     0
SMALL
USER_CHARGES

@<TRIPOS>ATOM
      1 PG          2.0058    2.4011   -7.6820 P.3       1 ATP         1.5644
      2 O1G         1.9791    3.6965   -6.9018 O.co2     1 ATP        -0.8581
      3 O2G         0.9176    2.0714   -8.6792 O.co2     1 ATP        -0.8581
      4 O3G         3.4514    2.2768   -8.4311 O.3       1 ATP        -0.7962
      5 PB          1.1335    0.5933   -5.5064 P.3       1 ATP         1.6830
      6 O1B         0.9885    1.6370   -4.4213 O.co2     1 ATP        -0.8633
      7 O2B        -0.0801    0.0147   -6.1993 O.co2     1 ATP        -0.8633
      8 O3B         2.1636    1.1582   -6.6384 O.3       1 ATP        -0.8097
      9 PA          3.5004   -0.6417   -4.2282 P.3       1 ATP         1.7610
     10 O1A         4.5984   -0.0927   -5.0923 O.2       1 ATP        -0.8554
     11 O2A         3.6979   -2.1908   -3.8049 O.3       1 ATP        -0.8102
     12 O3A         2.0409   -0.6327   -4.9257 O.3       1 ATP        -0.7693
     13 O5'         3.2903    0.1346   -2.8241 O.3       1 ATP        -0.5757
     14 C5'         2.2816   -0.2918   -1.9206 C.3       1 ATP         0.1911
     15 C4'         2.7248    0.0226   -0.4980 C.3       1 ATP         0.1218
     16 O4'         2.4697    1.4219   -0.2462 O.3       1 ATP        -0.4138
     17 C3'         1.9404   -0.7419    0.5596 C.3       1 ATP         0.1338
     18 O3'         2.7418   -0.8086    1.7389 O.3       1 ATP        -0.5756
     19 C2'         0.7477    0.1630    0.7858 C.3       1 ATP         0.0673
     20 O2'         0.1373   -0.0577    2.0407 O.3       1 ATP        -0.5671
     21 C1'         1.3733    1.5427    0.6747 C.3       1 ATP         0.3795
     22 N9          0.4520    2.5240    0.1767 N.pl3     1 ATP        -0.4175
     23 C8          0.5691    3.2215   -0.9485 C.ar      1 ATP         0.2552
     24 N7         -0.4499    4.0551   -1.1342 N.pl3     1 ATP        -0.4731
     25 C5         -1.2618    3.8674   -0.0512 C.ar      1 ATP        -0.1295
     26 C6         -2.5420    4.5007    0.3120 C.ar      1 ATP         0.7196
     27 N6         -3.0874    5.3993   -0.4432 N.2       1 ATP        -0.8094
     28 N1         -3.0494    4.0205    1.5133 N.pl3     1 ATP        -0.8312
     29 C2         -2.3933    3.0527    2.2567 C.ar      1 ATP         0.6744
     30 N3         -1.2611    2.4796    1.9536 N.2       1 ATP        -0.5937
     31 C4         -0.7334    2.9358    0.7669 C.ar      1 ATP         0.2810
     32 HOG3        3.6249    1.4839   -8.9821 H         1 ATP         0.4152
     33 HOA2        3.7523   -2.8715   -4.5091 H         1 ATP         0.4571
     34 H5'1        1.3514    0.2330   -2.1577 H         1 ATP         0.0465
     35 H5'2        2.1280   -1.3678   -2.0460 H         1 ATP         0.0465
     36 H4'         3.8044   -0.1397   -0.4040 H         1 ATP         0.1379
     37 H3'         1.6764   -1.7639    0.2728 H         1 ATP         0.1317
     38 HO3'        2.2232   -1.2979    2.3953 H         1 ATP         0.4175
     39 H2'        -0.0011    0.0027    0.0003 H         1 ATP         0.0669
     40 HO2'       -0.1563   -0.9855    2.0596 H         1 ATP         0.4064
     41 H1'         1.7826    1.9024    1.6451 H         1 ATP         0.1285
     42 H8          1.3912    3.1285   -1.6365 H         1 ATP         0.2954
     43 HN62       -3.9637    5.7084   -0.0142 H         1 ATP         0.4226
     44 H2         -2.9317    2.7866    3.1796 H         1 ATP         0.0826
     45 H45        -3.9307    4.3923    1.8559 H         1 ATP         0.4581
     46 H46        -0.5835    4.6857   -1.9122 H         1 ATP         0.5252
@<TRIPOS>BOND
     1    1    2 2
     2    1    3 1
     3    1    4 1
     4    1    8 1
     5    4   32 1
     6    5    6 2
     7    5    7 1
     8    5    8 1
     9    5   12 1
    10    9   10 2
    11    9   11 1
    12    9   12 1
    13    9   13 1
    14   11   33 1
    15   13   14 1
    16   14   15 1
    17   14   34 1
    18   14   35 1
    19   15   16 1
    20   15   17 1
    21   15   36 1
    22   16   21 1
    23   17   18 1
    24   17   19 1
    25   17   37 1
    26   18   38 1
    27   19   20 1
    28   19   21 1
    29   19   39 1
    30   20   40 1
    31   21   22 1
    32   21   41 1
    33   22   23 ar
    34   22   31 ar
    35   23   24 ar
    36   23   42 1
    37   24   25 ar
    38   24   46 1
    39   25   26 ar
    40   25   31 ar
    41   26   27 2
    42   26   28 ar
    43   27   43 1
    44   28   29 ar
    45   28   45 1
    46   29   30 ar
    47   29   44 1
    48   30   31 ar
@<TRIPOS>SUBSTRUCTURE
     1 ATP         1 GROUP 0 A     ****
@<TRIPOS>MOLECULE
[[[3,4-dihydroxy-5-(6-imino-7,8-dihydro-1~{H}-purin-8-ylium-9-yl)tetrahydrofuran-2-yl]methoxy-hydroxy-phosphoryl]oxy-oxido-phosphoryl] hydrogen phosphate
   46    48     1     0     0
SMALL
USER_CHARGES

@<TRIPOS>ATOM
      1 PG          0.9447    0.9638   -6.5694 P.3       1 ATP         1.5644
      2 O1G         1.4574    0.5773   -7.9388 O.co2     1 ATP        -0.8581
      3 O2G         1.8987    1.3657   -5.4668 O.co2     1 ATP        -0.8581
      4 O3G        -0.1699    2.1438   -6.7471 O.3       1 ATP        -0.7962
      5 PB          0.3026   -1.7545   -5.5891 P.3       1 ATP         1.6830
      6 O1B        -0.9396   -2.3719   -4.9862 O.co2     1 ATP        -0.8633
      7 O2B         1.0339   -2.4280   -6.7290 O.co2     1 ATP        -0.8633
      8 O3B        -0.0354   -0.2173   -6.0187 O.3       1 ATP        -0.8097
      9 PA          2.1902   -2.4548   -3.4193 P.3       1 ATP         1.7610
     10 O1A         3.1075   -3.3959   -4.1450 O.2       1 ATP        -0.8554
     11 O2A         1.0262   -3.1857   -2.5656 O.3       1 ATP        -0.8102
     12 O3A         1.3656   -1.4550   -4.3874 O.3       1 ATP        -0.7693
     13 O5'         2.9216   -1.4836   -2.3516 O.3       1 ATP        -0.5757
     14 C5'         2.2816   -0.2918   -1.9206 C.3       1 ATP         0.1911
     15 C4'         2.7248    0.0226   -0.4980 C.3       1 ATP         0.1218
     16 O4'         2.4697    1.4219   -0.2462 O.3       1 ATP        -0.4138
     17 C3'         1.9404   -0.7419    0.5596 C.3       1 ATP         0.1338
     18 O3'         2.7418   -0.8086    1.7389 O.3       1 ATP        -0.5756
     19 C2'         0.7477    0.1630    0.7858 C.3       1 ATP         0.0673
     20 O2'         0.1373   -0.0577    2.0407 O.3       1 ATP        -0.5671
     21 C1'         1.3733    1.5427    0.6747 C.3       1 ATP         0.3795
     22 N9          0.4520    2.5240    0.1767 N.pl3     1 ATP        -0.4175
     23 C8          0.2216    2.8192   -1.0985 C.ar      1 ATP         0.2552
     24 N7         -0.6906    3.7763   -1.2384 N.pl3     1 ATP        -0.4731
     25 C5         -1.0575    4.1037    0.0366 C.ar      1 ATP        -0.1295
     26 C6         -2.0291    5.0943    0.5330 C.ar      1 ATP         0.7196
     27 N6         -2.7093    5.8371   -0.2800 N.2       1 ATP        -0.8094
     28 N1         -2.1051    5.1136    1.9204 N.pl3     1 ATP        -0.8312
     29 C2         -1.3354    4.2774    2.7129 C.ar      1 ATP         0.6744
     30 N3         -0.4707    3.3945    2.2944 N.2       1 ATP        -0.5937
     31 C4         -0.3734    3.3525    0.9220 C.ar      1 ATP         0.2810
     32 HOG3       -0.5997    2.5048   -5.9426 H         1 ATP         0.4152
     33 HOA2        0.3854   -3.7621   -3.0340 H         1 ATP         0.4571
     34 H5'1        2.5589    0.5217   -2.5976 H         1 ATP         0.0465
     35 H5'2        1.1982   -0.4388   -1.9617 H         1 ATP         0.0465
     36 H4'         3.8044   -0.1397   -0.4040 H         1 ATP         0.1379
     37 H3'         1.6764   -1.7639    0.2728 H         1 ATP         0.1317
     38 HO3'        2.2232   -1.2979    2.3953 H         1 ATP         0.4175
     39 H2'        -0.0011    0.0027    0.0003 H         1 ATP         0.0669
     40 HO2'       -0.1563   -0.9855    2.0596 H         1 ATP         0.4064
     41 H1'         1.7826    1.9024    1.6451 H         1 ATP         0.1285
     42 H8          0.7125    2.3429   -1.9292 H         1 ATP         0.2954
     43 HN62       -3.3217    6.4517    0.2629 H         1 ATP         0.4226
     44 H2         -1.5188    4.4223    3.7890 H         1 ATP         0.0826
     45 H45        -2.7470    5.7626    2.3665 H         1 ATP         0.4581
     46 H46        -1.0305    4.1680   -2.1054 H         1 ATP         0.5252
@<TRIPOS>BOND
     1    1    2 2
     2    1    3 1
     3    1    4 1
     4    1    8 1
     5    4   32 1
     6    5    6 2
     7    5    7 1
     8    5    8 1
     9    5   12 1
    10    9   10 2
    11    9   11 1
    12    9   12 1
    13    9   13 1
    14   11   33 1
    15   13   14 1
    16   14   15 1
    17   14   34 1
    18   14   35 1
    19   15   16 1
    20   15   17 1
    21   15   36 1
    22   16   21 1
    23   17   18 1
    24   17   19 1
    25   17   37 1
    26   18   38 1
    27   19   20 1
    28   19   21 1
    29   19   39 1
    30   20   40 1
    31   21   22 1
    32   21   41 1
    33   22   23 ar
    34   22   31 ar
    35   23   24 ar
    36   23   42 1
    37   24   25 ar
    38   24   46 1
    39   25   26 ar
    40   25   31 ar
    41   26   27 2
    42   26   28 ar
    43   27   43 1
    44   28   29 ar
    45   28   45 1
    46   29   30 ar
    47   29   44 1
    48   30   31 ar
@<TRIPOS>SUBSTRUCTURE
     1 ATP         1 GROUP 0 A     ****
@<TRIPOS>MOLECULE
[[[3,4-dihydroxy-5-(6-imino-7,8-dihydro-1~{H}-purin-8-ylium-9-yl)tetrahydrofuran-2-yl]methoxy-hydroxy-phosphoryl]oxy-oxido-phosphoryl] hydrogen phosphate
   46    48     1     0     0
SMALL
USER_CHARGES

@<TRIPOS>ATOM
      1 PG          0.3890   -2.0652   -6.5794 P.3       1 ATP         1.5644
      2 O1G         0.5509   -1.6195   -8.0156 O.co2     1 ATP        -0.8581
      3 O2G        -0.0053   -1.0821   -5.4999 O.co2     1 ATP        -0.8581
      4 O3G        -0.6515   -3.3230   -6.5411 O.3       1 ATP        -0.7962
      5 PB          3.2596   -2.2994   -5.8960 P.3       1 ATP         1.6830
      6 O1B         4.0942   -3.4078   -5.2938 O.co2     1 ATP        -0.8633
      7 O2B         3.7022   -1.5851   -7.1536 O.co2     1 ATP        -0.8633
      8 O3B         1.7397   -2.8510   -6.1139 O.3       1 ATP        -0.8097
      9 PA          3.9521   -0.1769   -3.9527 P.3       1 ATP         1.7610
     10 O1A         4.6810    0.7861   -4.8443 O.2       1 ATP        -0.8554
     11 O2A         4.9166   -1.1746   -3.1207 O.3       1 ATP        -0.8102
     12 O3A         2.9635   -1.1884   -4.7377 O.3       1 ATP        -0.7693
     13 O5'         3.0213    0.5153   -2.8245 O.3       1 ATP        -0.5757
     14 C5'         2.2816   -0.2918   -1.9206 C.3       1 ATP         0.1911
     15 C4'         2.7248    0.0226   -0.4980 C.3       1 ATP         0.1218
     16 O4'         2.4697    1.4219   -0.2462 O.3       1 ATP        -0.4138
     17 C3'         1.9404   -0.7419    0.5596 C.3       1 ATP         0.1338
     18 O3'         2.7418   -0.8086    1.7389 O.3       1 ATP        -0.5756
     19 C2'         0.7477    0.1630    0.7858 C.3       1 ATP         0.0673
     20 O2'         0.1373   -0.0577    2.0407 O.3       1 ATP        -0.5671
     21 C1'         1.3733    1.5427    0.6747 C.3       1 ATP         0.3795
     22 N9          0.4520    2.5240    0.1767 N.pl3     1 ATP        -0.4175
     23 C8         -0.2004    2.4829   -0.9804 C.ar      1 ATP         0.2552
     24 N7         -0.9830    3.5431   -1.1568 N.pl3     1 ATP        -0.4731
     25 C5         -0.8095    4.3012   -0.0331 C.ar      1 ATP        -0.1295
     26 C6         -1.4065    5.5904    0.3585 C.ar      1 ATP         0.7196
     27 N6         -2.2501    6.2030   -0.4084 N.2       1 ATP        -0.8094
     28 N1         -0.9585    6.0272    1.5994 N.pl3     1 ATP        -0.8312
     29 C2         -0.0508    5.3009    2.3532 C.ar      1 ATP         0.6744
     30 N3          0.4890    4.1592    2.0257 N.2       1 ATP        -0.5937
     31 C4          0.0637    3.7006    0.7995 C.ar      1 ATP         0.2810
     32 HOG3       -0.8622   -3.7281   -5.6728 H         1 ATP         0.4152
     33 HOA2        5.5732   -0.7917   -2.5006 H         1 ATP         0.4571
     34 H5'1        1.2163   -0.0770   -2.0471 H         1 ATP         0.0465
     35 H5'2        2.4655   -1.3443   -2.1563 H         1 ATP         0.0465
     36 H4'         3.8044   -0.1397   -0.4040 H         1 ATP         0.1379
     37 H3'         1.6764   -1.7639    0.2728 H         1 ATP         0.1317
     38 HO3'        3.5554   -1.2733    1.4914 H         1 ATP         0.4175
     39 H2'        -0.0011    0.0027    0.0003 H         1 ATP         0.0669
     40 HO2'       -0.1563   -0.9855    2.0596 H         1 ATP         0.4064
     41 H1'         1.7826    1.9024    1.6451 H         1 ATP         0.1285
     42 H8         -0.1116    1.6863   -1.6984 H         1 ATP         0.2954
     43 HN62       -2.5420    7.0730    0.0447 H         1 ATP         0.4226
     44 H2          0.1969    5.7893    3.3086 H         1 ATP         0.0826
     45 H45        -1.3097    6.9080    1.9642 H         1 ATP         0.4581
     46 H46        -1.5735    3.7351   -1.9538 H         1 ATP         0.5252
@<TRIPOS>BOND
     1    1    2 2
     2    1    3 1
     3    1    4 1
     4    1    8 1
     5    4   32 1
     6    5    6 2
     7    5    7 1
     8    5    8 1
     9    5   12 1
    10    9   10 2
    11    9   11 1
    12    9   12 1
    13    9   13 1
    14   11   33 1
    15   13   14 1
    16   14   15 1
    17   14   34 1
    18   14   35 1
    19   15   16 1
    20   15   17 1
    21   15   36 1
    22   16   21 1
    23   17   18 1
    24   17   19 1
    25   17   37 1
    26   18   38 1
    27   19   20 1
    28   19   21 1
    29   19   39 1
    30   20   40 1
    31   21   22 1
    32   21   41 1
    33   22   23 ar
    34   22   31 ar
    35   23   24 ar
    36   23   42 1
    37   24   25 ar
    38   24   46 1
    39   25   26 ar
    40   25   31 ar
    41   26   27 2
    42   26   28 ar
    43   27   43 1
    44   28   29 ar
    45   28   45 1
    46   29   30 ar
    47   29   44 1
    48   30   31 ar
@<TRIPOS>SUBSTRUCTURE
     1 ATP         1 GROUP 0 A     ****
@<TRIPOS>MOLECULE
[[[3,4-dihydroxy-5-(6-imino-7,8-dihydro-1~{H}-purin-8-ylium-9-yl)tetrahydrofuran-2-yl]methoxy-hydroxy-phosphoryl]oxy-oxido-phosphoryl] hydrogen phosphate
   46    48     1     0     0
SMALL
USER_CHARGES

@<TRIPOS>ATOM
      1 PG          6.7258   -1.4051   -6.3400 P.3       1 ATP         1.5644
      2 O1G         6.8956   -0.3563   -7.4165 O.co2     1 ATP        -0.8581
      3 O2G         7.0821   -2.8517   -6.6007 O.co2     1 ATP        -0.8581
      4 O3G         7.5192   -0.9081   -5.0022 O.3       1 ATP        -0.7962
      5 PB          4.3583   -0.0631   -5.1755 P.3       1 ATP         1.6830
      6 O1B         4.9951    0.3815   -3.8776 O.co2     1 ATP        -0.8633
      7 O2B         4.1101    0.9188   -6.2990 O.co2     1 ATP        -0.8633
      8 O3B         5.2026   -1.3294   -5.7633 O.3       1 ATP        -0.8097
      9 PA          2.6378   -2.0641   -3.8351 P.3       1 ATP         1.7610
     10 O1A         3.3753   -3.3287   -4.1674 O.2       1 ATP        -0.8554
     11 O2A         1.0268   -2.1923   -3.9146 O.3       1 ATP        -0.8102
     12 O3A         2.9594   -0.8288   -4.8287 O.3       1 ATP        -0.7693
     13 O5'         2.9216   -1.4836   -2.3516 O.3       1 ATP        -0.5757
     14 C5'         2.2816   -0.2918   -1.9206 C.3       1 ATP         0.1911
     15 C4'         2.7248    0.0226   -0.4980 C.3       1 ATP         0.1218
     16 O4'         2.4697    1.4219   -0.2462 O.3       1 ATP        -0.4138
     17 C3'         1.9404   -0.7419    0.5596 C.3       1 ATP         0.1338
     18 O3'         2.7418   -0.8086    1.7389 O.3       1 ATP        -0.5756
     19 C2'         0.7477    0.1630    0.7858 C.3       1 ATP         0.0673
     20 O2'         0.1373   -0.0577    2.0407 O.3       1 ATP        -0.5671
     21 C1'         1.3733    1.5427    0.6747 C.3       1 ATP         0.3795
     22 N9          0.4520    2.5240    0.1767 N.pl3     1 ATP        -0.4175
     23 C8         -0.2004    2.4829   -0.9804 C.ar      1 ATP         0.2552
     24 N7         -0.9830    3.5431   -1.1568 N.pl3     1 ATP        -0.4731
     25 C5         -0.8095    4.3012   -0.0331 C.ar      1 ATP        -0.1295
     26 C6         -1.4065    5.5904    0.3585 C.ar      1 ATP         0.7196
     27 N6         -2.2501    6.2030   -0.4084 N.2       1 ATP        -0.8094
     28 N1         -0.9585    6.0272    1.5994 N.pl3     1 ATP        -0.8312
     29 C2         -0.0508    5.3009    2.3532 C.ar      1 ATP         0.6744
     30 N3          0.4890    4.1592    2.0257 N.2       1 ATP        -0.5937
     31 C4          0.0637    3.7006    0.7995 C.ar      1 ATP         0.2810
     32 HOG3        7.5034   -1.4850   -4.2089 H         1 ATP         0.4152
     33 HOA2        0.5737   -2.8416   -3.3356 H         1 ATP         0.4571
     34 H5'1        2.5589    0.5217   -2.5976 H         1 ATP         0.0465
     35 H5'2        1.1982   -0.4388   -1.9617 H         1 ATP         0.0465
     36 H4'         3.8044   -0.1397   -0.4040 H         1 ATP         0.1379
     37 H3'         1.6764   -1.7639    0.2728 H         1 ATP         0.1317
     38 HO3'        2.2232   -1.2979    2.3953 H         1 ATP         0.4175
     39 H2'        -0.0011    0.0027    0.0003 H         1 ATP         0.0669
     40 HO2'       -0.6141    0.5574    2.1082 H         1 ATP         0.4064
     41 H1'         1.7826    1.9024    1.6451 H         1 ATP         0.1285
     42 H8         -0.1116    1.6863   -1.6984 H         1 ATP         0.2954
     43 HN62       -2.5420    7.0730    0.0447 H         1 ATP         0.4226
     44 H2          0.1969    5.7893    3.3086 H         1 ATP         0.0826
     45 H45        -1.3097    6.9080    1.9642 H         1 ATP         0.4581
     46 H46        -1.5735    3.7351   -1.9538 H         1 ATP         0.5252
@<TRIPOS>BOND
     1    1    2 2
     2    1    3 1
     3    1    4 1
     4    1    8 1
     5    4   32 1
     6    5    6 2
     7    5    7 1
     8    5    8 1
     9    5   12 1
    10    9   10 2
    11    9   11 1
    12    9   12 1
    13    9   13 1
    14   11   33 1
    15   13   14 1
    16   14   15 1
    17   14   34 1
    18   14   35 1
    19   15   16 1
    20   15   17 1
    21   15   36 1
    22   16   21 1
    23   17   18 1
    24   17   19 1
    25   17   37 1
    26   18   38 1
    27   19   20 1
    28   19   21 1
    29   19   39 1
    30   20   40 1
    31   21   22 1
    32   21   41 1
    33   22   23 ar
    34   22   31 ar
    35   23   24 ar
    36   23   42 1
    37   24   25 ar
    38   24   46 1
    39   25   26 ar
    40   25   31 ar
    41   26   27 2
    42   26   28 ar
    43   27   43 1
    44   28   29 ar
    45   28   45 1
    46   29   30 ar
    47   29   44 1
    48   30   31 ar
@<TRIPOS>SUBSTRUCTURE
     1 ATP         1 GROUP 0 A     ****
@<TRIPOS>MOLECULE
[[[3,4-dihydroxy-5-(6-imino-7,8-dihydro-1~{H}-purin-8-ylium-9-yl)tetrahydrofuran-2-yl]methoxy-hydroxy-phosphoryl]oxy-oxido-phosphoryl] hydrogen phosphate
   46    48     1     0     0
SMALL
USER_CHARGES

@<TRIPOS>ATOM
      1 PG          2.4418    4.3470   -6.2769 P.3       1 ATP         1.5644
      2 O1G         3.4515    4.3635   -7.4029 O.co2     1 ATP        -0.8581
      3 O2G         2.5996    5.2548   -5.0776 O.co2     1 ATP        -0.8581
      4 O3G         0.9548    4.5778   -6.9106 O.3       1 ATP        -0.7962
      5 PB          1.1954    2.1836   -4.6868 P.3       1 ATP         1.6830
      6 O1B         1.5191    2.7287   -3.3136 O.co2     1 ATP        -0.8633
      7 O2B        -0.2004    2.2908   -5.2595 O.co2     1 ATP        -0.8633
      8 O3B         2.2516    2.8124   -5.7595 O.3       1 ATP        -0.8097
      9 PA          3.0915   -0.0732   -4.4165 P.3       1 ATP         1.7610
     10 O1A         4.2296    0.4201   -5.2621 O.2       1 ATP        -0.8554
     11 O2A         2.7765   -1.6519   -4.5791 O.3       1 ATP        -0.8102
     12 O3A         1.6695    0.6231   -4.7478 O.3       1 ATP        -0.7693
     13 O5'         3.2903    0.1346   -2.8241 O.3       1 ATP        -0.5757
     14 C5'         2.2816   -0.2918   -1.9206 C.3       1 ATP         0.1911
     15 C4'         2.7248    0.0226   -0.4980 C.3       1 ATP         0.1218
     16 O4'         2.4697    1.4219   -0.2462 O.3       1 ATP        -0.4138
     17 C3'         1.9404   -0.7419    0.5596 C.3       1 ATP         0.1338
     18 O3'         2.7418   -0.8086    1.7389 O.3       1 ATP        -0.5756
     19 C2'         0.7477    0.1630    0.7858 C.3       1 ATP         0.0673
     20 O2'         0.1373   -0.0577    2.0407 O.3       1 ATP        -0.5671
     21 C1'         1.3733    1.5427    0.6747 C.3       1 ATP         0.3795
     22 N9          0.4520    2.5240    0.1767 N.pl3     1 ATP        -0.4175
     23 C8         -0.2004    2.4829   -0.9804 C.ar      1 ATP         0.2552
     24 N7         -0.9830    3.5431   -1.1568 N.pl3     1 ATP        -0.4731
     25 C5         -0.8095    4.3012   -0.0331 C.ar      1 ATP        -0.1295
     26 C6         -1.4065    5.5904    0.3585 C.ar      1 ATP         0.7196
     27 N6         -2.2501    6.2030   -0.4084 N.2       1 ATP        -0.8094
     28 N1         -0.9585    6.0272    1.5994 N.pl3     1 ATP        -0.8312
     29 C2         -0.0508    5.3009    2.3532 C.ar      1 ATP         0.6744
     30 N3          0.4890    4.1592    2.0257 N.2       1 ATP        -0.5937
     31 C4          0.0637    3.7006    0.7995 C.ar      1 ATP         0.2810
     32 HOG3        0.1854    4.5929   -6.3022 H         1 ATP         0.4152
     33 HOA2        3.4791   -2.3005   -4.3603 H         1 ATP         0.4571
     34 H5'1        1.3514    0.2330   -2.1577 H         1 ATP         0.0465
     35 H5'2        2.1280   -1.3678   -2.0460 H         1 ATP         0.0465
     36 H4'         3.8044   -0.1397   -0.4040 H         1 ATP         0.1379
     37 H3'         1.6764   -1.7639    0.2728 H         1 ATP         0.1317
     38 HO3'        3.5554   -1.2733    1.4914 H         1 ATP         0.4175
     39 H2'        -0.0011    0.0027    0.0003 H         1 ATP         0.0669
     40 HO2'       -0.6141    0.5574    2.1082 H         1 ATP         0.4064
     41 H1'         1.7826    1.9024    1.6451 H         1 ATP         0.1285
     42 H8         -0.1116    1.6863   -1.6984 H         1 ATP         0.2954
     43 HN62       -2.5420    7.0730    0.0447 H         1 ATP         0.4226
     44 H2          0.1969    5.7893    3.3086 H         1 ATP         0.0826
     45 H45        -1.3097    6.9080    1.9642 H         1 ATP         0.4581
     46 H46        -1.5735    3.7351   -1.9538 H         1 ATP         0.5252
@<TRIPOS>BOND
     1    1    2 2
     2    1    3 1
     3    1    4 1
     4    1    8 1
     5    4   32 1
     6    5    6 2
     7    5    7 1
     8    5    8 1
     9    5   12 1
    10    9   10 2
    11    9   11 1
    12    9   12 1
    13    9   13 1
    14   11   33 1
    15   13   14 1
    16   14   15 1
    17   14   34 1
    18   14   35 1
    19   15   16 1
    20   15   17 1
    21   15   36 1
    22   16   21 1
    23   17   18 1
    24   17   19 1
    25   17   37 1
    26   18   38 1
    27   19   20 1
    28   19   21 1
    29   19   39 1
    30   20   40 1
    31   21   22 1
    32   21   41 1
    33   22   23 ar
    34   22   31 ar
    35   23   24 ar
    36   23   42 1
    37   24   25 ar
    38   24   46 1
    39   25   26 ar
    40   25   31 ar
    41   26   27 2
    42   26   28 ar
    43   27   43 1
    44   28   29 ar
    45   28   45 1
    46   29   30 ar
    47   29   44 1
    48   30   31 ar
@<TRIPOS>SUBSTRUCTURE
     1 ATP         1 GROUP 0 A     ****
@<TRIPOS>MOLECULE
[[[3,4-dihydroxy-5-(6-imino-7,8-dihydro-1~{H}-purin-8-ylium-9-yl)tetrahydrofuran-2-yl]methoxy-hydroxy-phosphoryl]oxy-oxido-phosphoryl] hydrogen phosphate
   46    48     1     0     0
SMALL
USER_CHARGES

@<TRIPOS>ATOM
      1 PG          4.3571   -1.2248   -7.7118 P.3       1 ATP         1.5644
      2 O1G         5.2232   -1.6979   -6.5657 O.co2     1 ATP        -0.8581
      3 O2G         4.9388   -0.3965   -8.8356 O.co2     1 ATP        -0.8581
      4 O3G         3.6009   -2.5193   -8.3588 O.3       1 ATP        -0.7962
      5 PB          1.9581   -0.9465   -6.0003 P.3       1 ATP         1.6830
      6 O1B         1.0489    0.2168   -5.6720 O.co2     1 ATP        -0.8633
      7 O2B         1.3922   -2.2804   -6.4342 O.co2     1 ATP        -0.8633
      8 O3B         3.0523   -0.4566   -7.1067 O.3       1 ATP        -0.8097
      9 PA          3.9521   -0.1769   -3.9527 P.3       1 ATP         1.7610
     10 O1A         4.6810    0.7861   -4.8443 O.2       1 ATP        -0.8554
     11 O2A         4.9166   -1.1746   -3.1207 O.3       1 ATP        -0.8102
     12 O3A         2.9635   -1.1884   -4.7377 O.3       1 ATP        -0.7693
     13 O5'         3.0213    0.5153   -2.8245 O.3       1 ATP        -0.5757
     14 C5'         2.2816   -0.2918   -1.9206 C.3       1 ATP         0.1911
     15 C4'         2.7248    0.0226   -0.4980 C.3       1 ATP         0.1218
     16 O4'         2.4697    1.4219   -0.2462 O.3       1 ATP        -0.4138
     17 C3'         1.9404   -0.7419    0.5596 C.3       1 ATP         0.1338
     18 O3'         2.7418   -0.8086    1.7389 O.3       1 ATP        -0.5756
     19 C2'         0.7477    0.1630    0.7858 C.3       1 ATP         0.0673
     20 O2'         0.1373   -0.0577    2.0407 O.3       1 ATP        -0.5671
     21 C1'         1.3733    1.5427    0.6747 C.3       1 ATP         0.3795
     22 N9          0.4520    2.5240    0.1767 N.pl3     1 ATP        -0.4175
     23 C8          0.2216    2.8192   -1.0985 C.ar      1 ATP         0.2552
     24 N7         -0.6906    3.7763   -1.2384 N.pl3     1 ATP        -0.4731
     25 C5         -1.0575    4.1037    0.0366 C.ar      1 ATP        -0.1295
     26 C6         -2.0291    5.0943    0.5330 C.ar      1 ATP         0.7196
     27 N6         -2.7093    5.8371   -0.2800 N.2       1 ATP        -0.8094
     28 N1         -2.1051    5.1136    1.9204 N.pl3     1 ATP        -0.8312
     29 C2         -1.3354    4.2774    2.7129 C.ar      1 ATP         0.6744
     30 N3         -0.4707    3.3945    2.2944 N.2       1 ATP        -0.5937
     31 C4         -0.3734    3.3525    0.9220 C.ar      1 ATP         0.2810
     32 HOG3        2.9974   -2.3756   -9.1188 H         1 ATP         0.4152
     33 HOA2        5.5732   -0.7917   -2.5006 H         1 ATP         0.4571
     34 H5'1        1.2163   -0.0770   -2.0471 H         1 ATP         0.0465
     35 H5'2        2.4655   -1.3443   -2.1563 H         1 ATP         0.0465
     36 H4'         3.8044   -0.1397   -0.4040 H         1 ATP         0.1379
     37 H3'         1.6764   -1.7639    0.2728 H         1 ATP         0.1317
     38 HO3'        2.2232   -1.2979    2.3953 H         1 ATP         0.4175
     39 H2'        -0.0011    0.0027    0.0003 H         1 ATP         0.0669
     40 HO2'       -0.6141    0.5574    2.1082 H         1 ATP         0.4064
     41 H1'         1.7826    1.9024    1.6451 H         1 ATP         0.1285
     42 H8          0.7125    2.3429   -1.9292 H         1 ATP         0.2954
     43 HN62       -3.3217    6.4517    0.2629 H         1 ATP         0.4226
     44 H2         -1.5188    4.4223    3.7890 H         1 ATP         0.0826
     45 H45        -2.7470    5.7626    2.3665 H         1 ATP         0.4581
     46 H46        -1.0305    4.1680   -2.1054 H         1 ATP         0.5252
@<TRIPOS>BOND
     1    1    2 2
     2    1    3 1
     3    1    4 1
     4    1    8 1
     5    4   32 1
     6    5    6 2
     7    5    7 1
     8    5    8 1
     9    5   12 1
    10    9   10 2
    11    9   11 1
    12    9   12 1
    13    9   13 1
    14   11   33 1
    15   13   14 1
    16   14   15 1
    17   14   34 1
    18   14   35 1
    19   15   16 1
    20   15   17 1
    21   15   36 1
    22   16   21 1
    23   17   18 1
    24   17   19 1
    25   17   37 1
    26   18   38 1
    27   19   20 1
    28   19   21 1
    29   19   39 1
    30   20   40 1
    31   21   22 1
    32   21   41 1
    33   22   23 ar
    34   22   31 ar
    35   23   24 ar
    36   23   42 1
    37   24   25 ar
    38   24   46 1
    39   25   26 ar
    40   25   31 ar
    41   26   27 2
    42   26   28 ar
    43   27   43 1
    44   28   29 ar
    45   28   45 1
    46   29   30 ar
    47   29   44 1
    48   30   31 ar
@<TRIPOS>SUBSTRUCTURE
     1 ATP         1 GROUP 0 A     ****
@<TRIPOS>MOLECULE
[[[3,4-dihydroxy-5-(6-imino-7,8-dihydro-1~{H}-purin-8-ylium-9-yl)tetrahydrofuran-2-yl]methoxy-hydroxy-phosphoryl]oxy-oxido-phosphoryl] hydrogen phosphate
   46    48     1     0     0
SMALL
USER_CHARGES

@<TRIPOS>ATOM
      1 PG          6.0125    1.3384   -3.1602 P.3       1 ATP         1.5644
      2 O1G         5.9708    1.4174   -1.6503 O.co2     1 ATP        -0.8581
      3 O2G         6.1305    2.5898   -4.0013 O.co2     1 ATP        -0.8581
      4 O3G         7.2030    0.3080   -3.5927 O.3       1 ATP        -0.7962
      5 PB          4.3583   -0.0631   -5.1755 P.3       1 ATP         1.6830
      6 O1B         4.0460    1.1321   -6.0484 O.co2     1 ATP        -0.8633
      7 O2B         5.3839   -1.0912   -5.5986 O.co2     1 ATP        -0.8633
      8 O3B         4.7352    0.4682   -3.6798 O.3       1 ATP        -0.8097
      9 PA          2.6378   -2.0641   -3.8351 P.3       1 ATP         1.7610
     10 O1A         3.3753   -3.3287   -4.1674 O.2       1 ATP        -0.8554
     11 O2A         1.0268   -2.1923   -3.9146 O.3       1 ATP        -0.8102
     12 O3A         2.9594   -0.8288   -4.8287 O.3       1 ATP        -0.7693
     13 O5'         2.9216   -1.4836   -2.3516 O.3       1 ATP        -0.5757
     14 C5'         2.2816   -0.2918   -1.9206 C.3       1 ATP         0.1911
     15 C4'         2.7248    0.0226   -0.4980 C.3       1 ATP         0.1218
     16 O4'         2.4697    1.4219   -0.2462 O.3       1 ATP        -0.4138
     17 C3'         1.9404   -0.7419    0.5596 C.3       1 ATP         0.1338
     18 O3'         2.7418   -0.8086    1.7389 O.3       1 ATP        -0.5756
     19 C2'         0.7477    0.1630    0.7858 C.3       1 ATP         0.0673
     20 O2'         0.1373   -0.0577    2.0407 O.3       1 ATP        -0.5671
     21 C1'         1.3733    1.5427    0.6747 C.3       1 ATP         0.3795
     22 N9          0.4520    2.5240    0.1767 N.pl3     1 ATP        -0.4175
     23 C8         -0.2004    2.4829   -0.9804 C.ar      1 ATP         0.2552
     24 N7         -0.9830    3.5431   -1.1568 N.pl3     1 ATP        -0.4731
     25 C5         -0.8095    4.3012   -0.0331 C.ar      1 ATP        -0.1295
     26 C6         -1.4065    5.5904    0.3585 C.ar      1 ATP         0.7196
     27 N6         -2.2501    6.2030   -0.4084 N.2       1 ATP        -0.8094
     28 N1         -0.9585    6.0272    1.5994 N.pl3     1 ATP        -0.8312
     29 C2         -0.0508    5.3009    2.3532 C.ar      1 ATP         0.6744
     30 N3          0.4890    4.1592    2.0257 N.2       1 ATP        -0.5937
     31 C4          0.0637    3.7006    0.7995 C.ar      1 ATP         0.2810
     32 HOG3        7.3577    0.1482   -4.5482 H         1 ATP         0.4152
     33 HOA2        0.5737   -2.8416   -3.3356 H         1 ATP         0.4571
     34 H5'1        2.5589    0.5217   -2.5976 H         1 ATP         0.0465
     35 H5'2        1.1982   -0.4388   -1.9617 H         1 ATP         0.0465
     36 H4'         3.8044   -0.1397   -0.4040 H         1 ATP         0.1379
     37 H3'         1.6764   -1.7639    0.2728 H         1 ATP         0.1317
     38 HO3'        2.2232   -1.2979    2.3953 H         1 ATP         0.4175
     39 H2'        -0.0011    0.0027    0.0003 H         1 ATP         0.0669
     40 HO2'       -0.6141    0.5574    2.1082 H         1 ATP         0.4064
     41 H1'         1.7826    1.9024    1.6451 H         1 ATP         0.1285
     42 H8         -0.1116    1.6863   -1.6984 H         1 ATP         0.2954
     43 HN62       -2.5420    7.0730    0.0447 H         1 ATP         0.4226
     44 H2          0.1969    5.7893    3.3086 H         1 ATP         0.0826
     45 H45        -1.3097    6.9080    1.9642 H         1 ATP         0.4581
     46 H46        -1.5735    3.7351   -1.9538 H         1 ATP         0.5252
@<TRIPOS>BOND
     1    1    2 2
     2    1    3 1
     3    1    4 1
     4    1    8 1
     5    4   32 1
     6    5    6 2
     7    5    7 1
     8    5    8 1
     9    5   12 1
    10    9   10 2
    11    9   11 1
    12    9   12 1
    13    9   13 1
    14   11   33 1
    15   13   14 1
    16   14   15 1
    17   14   34 1
    18   14   35 1
    19   15   16 1
    20   15   17 1
    21   15   36 1
    22   16   21 1
    23   17   18 1
    24   17   19 1
    25   17   37 1
    26   18   38 1
    27   19   20 1
    28   19   21 1
    29   19   39 1
    30   20   40 1
    31   21   22 1
    32   21   41 1
    33   22   23 ar
    34   22   31 ar
    35   23   24 ar
    36   23   42 1
    37   24   25 ar
    38   24   46 1
    39   25   26 ar
    40   25   31 ar
    41   26   27 2
    42   26   28 ar
    43   27   43 1
    44   28   29 ar
    45   28   45 1
    46   29   30 ar
    47   29   44 1
    48   30   31 ar
@<TRIPOS>SUBSTRUCTURE
     1 ATP         1 GROUP 0 A     ****
@<TRIPOS>MOLECULE
[[[3,4-dihydroxy-5-(6-imino-7,8-dihydro-1~{H}-purin-8-ylium-9-yl)tetrahydrofuran-2-yl]methoxy-hydroxy-phosphoryl]oxy-oxido-phosphoryl] hydrogen phosphate
   46    48     1     0     0
SMALL
USER_CHARGES

@<TRIPOS>ATOM
      1 PG         -1.7577    2.0107   -4.0470 P.3       1 ATP         1.5644
      2 O1G        -1.8221    3.4154   -4.6039 O.co2     1 ATP        -0.8581
      3 O2G        -1.0284    1.7194   -2.7544 O.co2     1 ATP        -0.8581
      4 O3G        -3.2793    1.4305   -3.9266 O.3       1 ATP        -0.7962
      5 PB          0.2626    0.9203   -5.9155 P.3       1 ATP         1.6830
      6 O1B         0.2976   -0.3022   -6.8055 O.co2     1 ATP        -0.8633
      7 O2B         0.6237    2.2871   -6.4532 O.co2     1 ATP        -0.8633
      8 O3B        -1.2042    1.0068   -5.2065 O.3       1 ATP        -0.8097
      9 PA          2.7605    0.3953   -4.4169 P.3       1 ATP         1.7610
     10 O1A         3.6064    1.3021   -5.2629 O.2       1 ATP        -0.8554
     11 O2A         2.9475   -1.1798   -4.7368 O.3       1 ATP        -0.8102
     12 O3A         1.1682    0.6209   -4.5912 O.3       1 ATP        -0.7693
     13 O5'         3.0213    0.5153   -2.8245 O.3       1 ATP        -0.5757
     14 C5'         2.2816   -0.2918   -1.9206 C.3       1 ATP         0.1911
     15 C4'         2.7248    0.0226   -0.4980 C.3       1 ATP         0.1218
     16 O4'         2.4697    1.4219   -0.2462 O.3       1 ATP        -0.4138
     17 C3'         1.9404   -0.7419    0.5596 C.3       1 ATP         0.1338
     18 O3'         2.7418   -0.8086    1.7389 O.3       1 ATP        -0.5756
     19 C2'         0.7477    0.1630    0.7858 C.3       1 ATP         0.0673
     20 O2'         0.1373   -0.0577    2.0407 O.3       1 ATP        -0.5671
     21 C1'         1.3733    1.5427    0.6747 C.3       1 ATP         0.3795
     22 N9          0.4520    2.5240    0.1767 N.pl3     1 ATP        -0.4175
     23 C8          0.5691    3.2215   -0.9485 C.ar      1 ATP         0.2552
     24 N7         -0.4499    4.0551   -1.1342 N.pl3     1 ATP        -0.4731
     25 C5         -1.2618    3.8674   -0.0512 C.ar      1 ATP        -0.1295
     26 C6         -2.5420    4.5007    0.3120 C.ar      1 ATP         0.7196
     27 N6         -3.0874    5.3993   -0.4432 N.2       1 ATP        -0.8094
     28 N1         -3.0494    4.0205    1.5133 N.pl3     1 ATP        -0.8312
     29 C2         -2.3933    3.0527    2.2567 C.ar      1 ATP         0.6744
     30 N3         -1.2611    2.4796    1.9536 N.2       1 ATP        -0.5937
     31 C4         -0.7334    2.9358    0.7669 C.ar      1 ATP         0.2810
     32 HOG3       -3.4062    0.5222   -3.5785 H         1 ATP         0.4152
     33 HOA2        2.7451   -1.5077   -5.6388 H         1 ATP         0.4571
     34 H5'1        1.2163   -0.0770   -2.0471 H         1 ATP         0.0465
     35 H5'2        2.4655   -1.3443   -2.1563 H         1 ATP         0.0465
     36 H4'         3.8044   -0.1397   -0.4040 H         1 ATP         0.1379
     37 H3'         1.6764   -1.7639    0.2728 H         1 ATP         0.1317
     38 HO3'        2.2232   -1.2979    2.3953 H         1 ATP         0.4175
     39 H2'        -0.0011    0.0027    0.0003 H         1 ATP         0.0669
     40 HO2'       -0.6141    0.5574    2.1082 H         1 ATP         0.4064
     41 H1'         1.7826    1.9024    1.6451 H         1 ATP         0.1285
     42 H8          1.3912    3.1285   -1.6365 H         1 ATP         0.2954
     43 HN62       -3.9637    5.7084   -0.0142 H         1 ATP         0.4226
     44 H2         -2.9317    2.7866    3.1796 H         1 ATP         0.0826
     45 H45        -3.9307    4.3923    1.8559 H         1 ATP         0.4581
     46 H46        -0.5835    4.6857   -1.9122 H         1 ATP         0.5252
@<TRIPOS>BOND
     1    1    2 2
     2    1    3 1
     3    1    4 1
     4    1    8 1
     5    4   32 1
     6    5    6 2
     7    5    7 1
     8    5    8 1
     9    5   12 1
    10    9   10 2
    11    9   11 1
    12    9   12 1
    13    9   13 1
    14   11   33 1
    15   13   14 1
    16   14   15 1
    17   14   34 1
    18   14   35 1
    19   15   16 1
    20   15   17 1
    21   15   36 1
    22   16   21 1
    23   17   18 1
    24   17   19 1
    25   17   37 1
    26   18   38 1
    27   19   20 1
    28   19   21 1
    29   19   39 1
    30   20   40 1
    31   21   22 1
    32   21   41 1
    33   22   23 ar
    34   22   31 ar
    35   23   24 ar
    36   23   42 1
    37   24   25 ar
    38   24   46 1
    39   25   26 ar
    40   25   31 ar
    41   26   27 2
    42   26   28 ar
    43   27   43 1
    44   28   29 ar
    45   28   45 1
    46   29   30 ar
    47   29   44 1
    48   30   31 ar
@<TRIPOS>SUBSTRUCTURE
     1 ATP         1 GROUP 0 A     ****
@<TRIPOS>MOLECULE
[[[3,4-dihydroxy-5-(6-imino-7,8-dihydro-1~{H}-purin-8-ylium-9-yl)tetrahydrofuran-2-yl]methoxy-hydroxy-phosphoryl]oxy-oxido-phosphoryl] hydrogen phosphate
   46    48     1     0     0
SMALL
USER_CHARGES

@<TRIPOS>ATOM
      1 PG          3.7351   -3.3272   -6.3879 P.3       1 ATP         1.5644
      2 O1G         4.2421   -3.1151   -4.9788 O.co2     1 ATP        -0.8581
      3 O2G         4.2835   -2.5176   -7.5417 O.co2     1 ATP        -0.8581
      4 O3G         3.8715   -4.9124   -6.7548 O.3       1 ATP        -0.7962
      5 PB          1.1385   -1.9346   -6.1039 P.3       1 ATP         1.6830
      6 O1B         1.5616   -0.7988   -7.0088 O.co2     1 ATP        -0.8633
      7 O2B        -0.2968   -2.4103   -6.0683 O.co2     1 ATP        -0.8633
      8 O3B         2.1084   -3.2155   -6.3871 O.3       1 ATP        -0.8097
      9 PA          1.5776   -2.4676   -3.2256 P.3       1 ATP         1.7610
     10 O1A         1.9399   -3.9114   -3.4201 O.2       1 ATP        -0.8554
     11 O2A         0.0775   -2.2267   -2.6692 O.3       1 ATP        -0.8102
     12 O3A         1.6142   -1.5868   -4.5819 O.3       1 ATP        -0.7693
     13 O5'         2.5245   -1.6648   -2.1878 O.3       1 ATP        -0.5757
     14 C5'         2.2816   -0.2918   -1.9206 C.3       1 ATP         0.1911
     15 C4'         2.7248    0.0226   -0.4980 C.3       1 ATP         0.1218
     16 O4'         2.4697    1.4219   -0.2462 O.3       1 ATP        -0.4138
     17 C3'         1.9404   -0.7419    0.5596 C.3       1 ATP         0.1338
     18 O3'         2.7418   -0.8086    1.7389 O.3       1 ATP        -0.5756
     19 C2'         0.7477    0.1630    0.7858 C.3       1 ATP         0.0673
     20 O2'         0.1373   -0.0577    2.0407 O.3       1 ATP        -0.5671
     21 C1'         1.3733    1.5427    0.6747 C.3       1 ATP         0.3795
     22 N9          0.4520    2.5240    0.1767 N.pl3     1 ATP        -0.4175
     23 C8          0.2216    2.8192   -1.0985 C.ar      1 ATP         0.2552
     24 N7         -0.6906    3.7763   -1.2384 N.pl3     1 ATP        -0.4731
     25 C5         -1.0575    4.1037    0.0366 C.ar      1 ATP        -0.1295
     26 C6         -2.0291    5.0943    0.5330 C.ar      1 ATP         0.7196
     27 N6         -2.7093    5.8371   -0.2800 N.2       1 ATP        -0.8094
     28 N1         -2.1051    5.1136    1.9204 N.pl3     1 ATP        -0.8312
     29 C2         -1.3354    4.2774    2.7129 C.ar      1 ATP         0.6744
     30 N3         -0.4707    3.3945    2.2944 N.2       1 ATP        -0.5937
     31 C4         -0.3734    3.3525    0.9220 C.ar      1 ATP         0.2810
     32 HOG3        3.5813   -5.2126   -7.6426 H         1 ATP         0.4152
     33 HOA2       -0.6823   -2.5501   -3.1987 H         1 ATP         0.4571
     34 H5'1        2.8432    0.3119   -2.6398 H         1 ATP         0.0465
     35 H5'2        1.2128   -0.0927   -2.0428 H         1 ATP         0.0465
     36 H4'         3.8044   -0.1397   -0.4040 H         1 ATP         0.1379
     37 H3'         1.6764   -1.7639    0.2728 H         1 ATP         0.1317
     38 HO3'        3.5554   -1.2733    1.4914 H         1 ATP         0.4175
     39 H2'        -0.0011    0.0027    0.0003 H         1 ATP         0.0669
     40 HO2'       -0.6141    0.5574    2.1082 H         1 ATP         0.4064
     41 H1'         1.7826    1.9024    1.6451 H         1 ATP         0.1285
     42 H8          0.7125    2.3429   -1.9292 H         1 ATP         0.2954
     43 HN62       -3.3217    6.4517    0.2629 H         1 ATP         0.4226
     44 H2         -1.5188    4.4223    3.7890 H         1 ATP         0.0826
     45 H45        -2.7470    5.7626    2.3665 H         1 ATP         0.4581
     46 H46        -1.0305    4.1680   -2.1054 H         1 ATP         0.5252
@<TRIPOS>BOND
     1    1    2 2
     2    1    3 1
     3    1    4 1
     4    1    8 1
     5    4   32 1
     6    5    6 2
     7    5    7 1
     8    5    8 1
     9    5   12 1
    10    9   10 2
    11    9   11 1
    12    9   12 1
    13    9   13 1
    14   11   33 1
    15   13   14 1
    16   14   15 1
    17   14   34 1
    18   14   35 1
    19   15   16 1
    20   15   17 1
    21   15   36 1
    22   16   21 1
    23   17   18 1
    24   17   19 1
    25   17   37 1
    26   18   38 1
    27   19   20 1
    28   19   21 1
    29   19   39 1
    30   20   40 1
    31   21   22 1
    32   21   41 1
    33   22   23 ar
    34   22   31 ar
    35   23   24 ar
    36   23   42 1
    37   24   25 ar
    38   24   46 1
    39   25   26 ar
    40   25   31 ar
    41   26   27 2
    42   26   28 ar
    43   27   43 1
    44   28   29 ar
    45   28   45 1
    46   29   30 ar
    47   29   44 1
    48   30   31 ar
@<TRIPOS>SUBSTRUCTURE
     1 ATP         1 GROUP 0 A     ****
@<TRIPOS>MOLECULE
[[[3,4-dihydroxy-5-(6-imino-7,8-dihydro-1~{H}-purin-8-ylium-9-yl)tetrahydrofuran-2-yl]methoxy-hydroxy-phosphoryl]oxy-oxido-phosphoryl] hydrogen phosphate
   46    48     1     0     0
SMALL
USER_CHARGES

@<TRIPOS>ATOM
      1 PG         -0.9764   -2.0044   -5.0813 P.3       1 ATP         1.5644
      2 O1G         0.1744   -2.7772   -4.4763 O.co2     1 ATP        -0.8581
      3 O2G        -1.9870   -2.6876   -5.9754 O.co2     1 ATP        -0.8581
      4 O3G        -1.7776   -1.2423   -3.8800 O.3       1 ATP        -0.7962
      5 PB          0.6053    0.4864   -5.3182 P.3       1 ATP         1.6830
      6 O1B         0.9780    1.3697   -6.4881 O.co2     1 ATP        -0.8633
      7 O2B         0.0240    1.0738   -4.0514 O.co2     1 ATP        -0.8633
      8 O3B        -0.3866   -0.6940   -5.8517 O.3       1 ATP        -0.8097
      9 PA          3.3429   -0.0249   -4.3155 P.3       1 ATP         1.7610
     10 O1A         4.1316    0.9232   -5.1715 O.2       1 ATP        -0.8554
     11 O2A         4.0556   -1.4579   -4.0783 O.3       1 ATP        -0.8102
     12 O3A         1.9004   -0.4266   -4.9275 O.3       1 ATP        -0.7693
     13 O5'         3.0213    0.5153   -2.8245 O.3       1 ATP        -0.5757
     14 C5'         2.2816   -0.2918   -1.9206 C.3       1 ATP         0.1911
     15 C4'         2.7248    0.0226   -0.4980 C.3       1 ATP         0.1218
     16 O4'         2.4697    1.4219   -0.2462 O.3       1 ATP        -0.4138
     17 C3'         1.9404   -0.7419    0.5596 C.3       1 ATP         0.1338
     18 O3'         2.7418   -0.8086    1.7389 O.3       1 ATP        -0.5756
     19 C2'         0.7477    0.1630    0.7858 C.3       1 ATP         0.0673
     20 O2'         0.1373   -0.0577    2.0407 O.3       1 ATP        -0.5671
     21 C1'         1.3733    1.5427    0.6747 C.3       1 ATP         0.3795
     22 N9          0.4520    2.5240    0.1767 N.pl3     1 ATP        -0.4175
     23 C8          0.5691    3.2215   -0.9485 C.ar      1 ATP         0.2552
     24 N7         -0.4499    4.0551   -1.1342 N.pl3     1 ATP        -0.4731
     25 C5         -1.2618    3.8674   -0.0512 C.ar      1 ATP        -0.1295
     26 C6         -2.5420    4.5007    0.3120 C.ar      1 ATP         0.7196
     27 N6         -3.0874    5.3993   -0.4432 N.2       1 ATP        -0.8094
     28 N1         -3.0494    4.0205    1.5133 N.pl3     1 ATP        -0.8312
     29 C2         -2.3933    3.0527    2.2567 C.ar      1 ATP         0.6744
     30 N3         -1.2611    2.4796    1.9536 N.2       1 ATP        -0.5937
     31 C4         -0.7334    2.9358    0.7669 C.ar      1 ATP         0.2810
     32 HOG3       -2.5572   -0.6944   -4.1132 H         1 ATP         0.4152
     33 HOA2        4.2608   -2.0199   -4.8557 H         1 ATP         0.4571
     34 H5'1        1.2163   -0.0770   -2.0471 H         1 ATP         0.0465
     35 H5'2        2.4655   -1.3443   -2.1563 H         1 ATP         0.0465
     36 H4'         3.8044   -0.1397   -0.4040 H         1 ATP         0.1379
     37 H3'         1.6764   -1.7639    0.2728 H         1 ATP         0.1317
     38 HO3'        2.2232   -1.2979    2.3953 H         1 ATP         0.4175
     39 H2'        -0.0011    0.0027    0.0003 H         1 ATP         0.0669
     40 HO2'       -0.1563   -0.9855    2.0596 H         1 ATP         0.4064
     41 H1'         1.7826    1.9024    1.6451 H         1 ATP         0.1285
     42 H8          1.3912    3.1285   -1.6365 H         1 ATP         0.2954
     43 HN62       -3.9637    5.7084   -0.0142 H         1 ATP         0.4226
     44 H2         -2.9317    2.7866    3.1796 H         1 ATP         0.0826
     45 H45        -3.9307    4.3923    1.8559 H         1 ATP         0.4581
     46 H46        -0.5835    4.6857   -1.9122 H         1 ATP         0.5252
@<TRIPOS>BOND
     1    1    2 2
     2    1    3 1
     3    1    4 1
     4    1    8 1
     5    4   32 1
     6    5    6 2
     7    5    7 1
     8    5    8 1
     9    5   12 1
    10    9   10 2
    11    9   11 1
    12    9   12 1
    13    9   13 1
    14   11   33 1
    15   13   14 1
    16   14   15 1
    17   14   34 1
    18   14   35 1
    19   15   16 1
    20   15   17 1
    21   15   36 1
    22   16   21 1
    23   17   18 1
    24   17   19 1
    25   17   37 1
    26   18   38 1
    27   19   20 1
    28   19   21 1
    29   19   39 1
    30   20   40 1
    31   21   22 1
    32   21   41 1
    33   22   23 ar
    34   22   31 ar
    35   23   24 ar
    36   23   42 1
    37   24   25 ar
    38   24   46 1
    39   25   26 ar
    40   25   31 ar
    41   26   27 2
    42   26   28 ar
    43   27   43 1
    44   28   29 ar
    45   28   45 1
    46   29   30 ar
    47   29   44 1
    48   30   31 ar
@<TRIPOS>SUBSTRUCTURE
     1 ATP         1 GROUP 0 A     ****
@<TRIPOS>MOLECULE
[[[3,4-dihydroxy-5-(6-imino-7,8-dihydro-1~{H}-purin-8-ylium-9-yl)tetrahydrofuran-2-yl]methoxy-hydroxy-phosphoryl]oxy-oxido-phosphoryl] hydrogen phosphate
   46    48     1     0     0
SMALL
USER_CHARGES

@<TRIPOS>ATOM
      1 PG          6.7854    1.2924   -2.3861 P.3       1 ATP         1.5644
      2 O1G         7.9834    1.7963   -1.6125 O.co2     1 ATP        -0.8581
      3 O2G         5.4051    1.2907   -1.7678 O.co2     1 ATP        -0.8581
      4 O3G         6.7153    2.0888   -3.8099 O.3       1 ATP        -0.7962
      5 PB          6.2623   -1.1522   -3.9711 P.3       1 ATP         1.6830
      6 O1B         5.9495   -0.3653   -5.2243 O.co2     1 ATP        -0.8633
      7 O2B         6.9353   -2.5047   -4.0469 O.co2     1 ATP        -0.8633
      8 O3B         7.1133   -0.1995   -2.9563 O.3       1 ATP        -0.8097
      9 PA          3.5156   -2.0921   -3.3934 P.3       1 ATP         1.7610
     10 O1A         3.6877   -3.5728   -3.5714 O.2       1 ATP        -0.8554
     11 O2A         2.9211   -1.3302   -4.6911 O.3       1 ATP        -0.8102
     12 O3A         4.8921   -1.2960   -3.0962 O.3       1 ATP        -0.7693
     13 O5'         2.5245   -1.6648   -2.1878 O.3       1 ATP        -0.5757
     14 C5'         2.2816   -0.2918   -1.9206 C.3       1 ATP         0.1911
     15 C4'         2.7248    0.0226   -0.4980 C.3       1 ATP         0.1218
     16 O4'         2.4697    1.4219   -0.2462 O.3       1 ATP        -0.4138
     17 C3'         1.9404   -0.7419    0.5596 C.3       1 ATP         0.1338
     18 O3'         2.7418   -0.8086    1.7389 O.3       1 ATP        -0.5756
     19 C2'         0.7477    0.1630    0.7858 C.3       1 ATP         0.0673
     20 O2'         0.1373   -0.0577    2.0407 O.3       1 ATP        -0.5671
     21 C1'         1.3733    1.5427    0.6747 C.3       1 ATP         0.3795
     22 N9          0.4520    2.5240    0.1767 N.pl3     1 ATP        -0.4175
     23 C8          0.2216    2.8192   -1.0985 C.ar      1 ATP         0.2552
     24 N7         -0.6906    3.7763   -1.2384 N.pl3     1 ATP        -0.4731
     25 C5         -1.0575    4.1037    0.0366 C.ar      1 ATP        -0.1295
     26 C6         -2.0291    5.0943    0.5330 C.ar      1 ATP         0.7196
     27 N6         -2.7093    5.8371   -0.2800 N.2       1 ATP        -0.8094
     28 N1         -2.1051    5.1136    1.9204 N.pl3     1 ATP        -0.8312
     29 C2         -1.3354    4.2774    2.7129 C.ar      1 ATP         0.6744
     30 N3         -0.4707    3.3945    2.2944 N.2       1 ATP        -0.5937
     31 C4         -0.3734    3.3525    0.9220 C.ar      1 ATP         0.2810
     32 HOG3        5.9869    1.8723   -4.4304 H         1 ATP         0.4152
     33 HOA2        3.4207   -1.3697   -5.5343 H         1 ATP         0.4571
     34 H5'1        2.8432    0.3119   -2.6398 H         1 ATP         0.0465
     35 H5'2        1.2128   -0.0927   -2.0428 H         1 ATP         0.0465
     36 H4'         3.8044   -0.1397   -0.4040 H         1 ATP         0.1379
     37 H3'         1.6764   -1.7639    0.2728 H         1 ATP         0.1317
     38 HO3'        2.2232   -1.2979    2.3953 H         1 ATP         0.4175
     39 H2'        -0.0011    0.0027    0.0003 H         1 ATP         0.0669
     40 HO2'       -0.6141    0.5574    2.1082 H         1 ATP         0.4064
     41 H1'         1.7826    1.9024    1.6451 H         1 ATP         0.1285
     42 H8          0.7125    2.3429   -1.9292 H         1 ATP         0.2954
     43 HN62       -3.3217    6.4517    0.2629 H         1 ATP         0.4226
     44 H2         -1.5188    4.4223    3.7890 H         1 ATP         0.0826
     45 H45        -2.7470    5.7626    2.3665 H         1 ATP         0.4581
     46 H46        -1.0305    4.1680   -2.1054 H         1 ATP         0.5252
@<TRIPOS>BOND
     1    1    2 2
     2    1    3 1
     3    1    4 1
     4    1    8 1
     5    4   32 1
     6    5    6 2
     7    5    7 1
     8    5    8 1
     9    5   12 1
    10    9   10 2
    11    9   11 1
    12    9   12 1
    13    9   13 1
    14   11   33 1
    15   13   14 1
    16   14   15 1
    17   14   34 1
    18   14   35 1
    19   15   16 1
    20   15   17 1
    21   15   36 1
    22   16   21 1
    23   17   18 1
    24   17   19 1
    25   17   37 1
    26   18   38 1
    27   19   20 1
    28   19   21 1
    29   19   39 1
    30   20   40 1
    31   21   22 1
    32   21   41 1
    33   22   23 ar
    34   22   31 ar
    35   23   24 ar
    36   23   42 1
    37   24   25 ar
    38   24   46 1
    39   25   26 ar
    40   25   31 ar
    41   26   27 2
    42   26   28 ar
    43   27   43 1
    44   28   29 ar
    45   28   45 1
    46   29   30 ar
    47   29   44 1
    48   30   31 ar
@<TRIPOS>SUBSTRUCTURE
     1 ATP         1 GROUP 0 A     ****
@<TRIPOS>MOLECULE
[[[3,4-dihydroxy-5-(6-imino-7,8-dihydro-1~{H}-purin-8-ylium-9-yl)tetrahydrofuran-2-yl]methoxy-hydroxy-phosphoryl]oxy-oxido-phosphoryl] hydrogen phosphate
   46    48     1     0     0
SMALL
USER_CHARGES

@<TRIPOS>ATOM
      1 PG          0.1731   -1.8829   -6.5524 P.3       1 ATP         1.5644
      2 O1G         0.3227   -0.5869   -5.7872 O.co2     1 ATP        -0.8581
      3 O2G        -1.1882   -2.5057   -6.7684 O.co2     1 ATP        -0.8581
      4 O3G         0.9034   -1.7156   -8.0032 O.3       1 ATP        -0.7962
      5 PB          2.7725   -2.9343   -5.6039 P.3       1 ATP         1.6830
      6 O1B         3.1702   -4.1754   -4.8363 O.co2     1 ATP        -0.8633
      7 O2B         3.4896   -2.5408   -6.8762 O.co2     1 ATP        -0.8633
      8 O3B         1.1701   -2.9982   -5.9039 O.3       1 ATP        -0.8097
      9 PA          4.0072   -0.9371   -3.8018 P.3       1 ATP         1.7610
     10 O1A         5.0554   -0.3590   -4.7078 O.2       1 ATP        -0.8554
     11 O2A         4.5510   -2.0894   -2.8046 O.3       1 ATP        -0.8102
     12 O3A         2.7889   -1.6652   -4.5779 O.3       1 ATP        -0.7693
     13 O5'         3.2903    0.1346   -2.8241 O.3       1 ATP        -0.5757
     14 C5'         2.2816   -0.2918   -1.9206 C.3       1 ATP         0.1911
     15 C4'         2.7248    0.0226   -0.4980 C.3       1 ATP         0.1218
     16 O4'         2.4697    1.4219   -0.2462 O.3       1 ATP        -0.4138
     17 C3'         1.9404   -0.7419    0.5596 C.3       1 ATP         0.1338
     18 O3'         2.7418   -0.8086    1.7389 O.3       1 ATP        -0.5756
     19 C2'         0.7477    0.1630    0.7858 C.3       1 ATP         0.0673
     20 O2'         0.1373   -0.0577    2.0407 O.3       1 ATP        -0.5671
     21 C1'         1.3733    1.5427    0.6747 C.3       1 ATP         0.3795
     22 N9          0.4520    2.5240    0.1767 N.pl3     1 ATP        -0.4175
     23 C8          0.2216    2.8192   -1.0985 C.ar      1 ATP         0.2552
     24 N7         -0.6906    3.7763   -1.2384 N.pl3     1 ATP        -0.4731
     25 C5         -1.0575    4.1037    0.0366 C.ar      1 ATP        -0.1295
     26 C6         -2.0291    5.0943    0.5330 C.ar      1 ATP         0.7196
     27 N6         -2.7093    5.8371   -0.2800 N.2       1 ATP        -0.8094
     28 N1         -2.1051    5.1136    1.9204 N.pl3     1 ATP        -0.8312
     29 C2         -1.3354    4.2774    2.7129 C.ar      1 ATP         0.6744
     30 N3         -0.4707    3.3945    2.2944 N.2       1 ATP        -0.5937
     31 C4         -0.3734    3.3525    0.9220 C.ar      1 ATP         0.2810
     32 HOG3        0.8929   -2.4771   -8.6216 H         1 ATP         0.4152
     33 HOA2        4.9474   -2.9003   -3.1885 H         1 ATP         0.4571
     34 H5'1        1.3514    0.2330   -2.1577 H         1 ATP         0.0465
     35 H5'2        2.1280   -1.3678   -2.0460 H         1 ATP         0.0465
     36 H4'         3.8044   -0.1397   -0.4040 H         1 ATP         0.1379
     37 H3'         1.6764   -1.7639    0.2728 H         1 ATP         0.1317
     38 HO3'        2.2232   -1.2979    2.3953 H         1 ATP         0.4175
     39 H2'        -0.0011    0.0027    0.0003 H         1 ATP         0.0669
     40 HO2'       -0.1563   -0.9855    2.0596 H         1 ATP         0.4064
     41 H1'         1.7826    1.9024    1.6451 H         1 ATP         0.1285
     42 H8          0.7125    2.3429   -1.9292 H         1 ATP         0.2954
     43 HN62       -3.3217    6.4517    0.2629 H         1 ATP         0.4226
     44 H2         -1.5188    4.4223    3.7890 H         1 ATP         0.0826
     45 H45        -2.7470    5.7626    2.3665 H         1 ATP         0.4581
     46 H46        -1.0305    4.1680   -2.1054 H         1 ATP         0.5252
@<TRIPOS>BOND
     1    1    2 2
     2    1    3 1
     3    1    4 1
     4    1    8 1
     5    4   32 1
     6    5    6 2
     7    5    7 1
     8    5    8 1
     9    5   12 1
    10    9   10 2
    11    9   11 1
    12    9   12 1
    13    9   13 1
    14   11   33 1
    15   13   14 1
    16   14   15 1
    17   14   34 1
    18   14   35 1
    19   15   16 1
    20   15   17 1
    21   15   36 1
    22   16   21 1
    23   17   18 1
    24   17   19 1
    25   17   37 1
    26   18   38 1
    27   19   20 1
    28   19   21 1
    29   19   39 1
    30   20   40 1
    31   21   22 1
    32   21   41 1
    33   22   23 ar
    34   22   31 ar
    35   23   24 ar
    36   23   42 1
    37   24   25 ar
    38   24   46 1
    39   25   26 ar
    40   25   31 ar
    41   26   27 2
    42   26   28 ar
    43   27   43 1
    44   28   29 ar
    45   28   45 1
    46   29   30 ar
    47   29   44 1
    48   30   31 ar
@<TRIPOS>SUBSTRUCTURE
     1 ATP         1 GROUP 0 A     ****
@<TRIPOS>MOLECULE
[[[3,4-dihydroxy-5-(6-imino-7,8-dihydro-1~{H}-purin-8-ylium-9-yl)tetrahydrofuran-2-yl]methoxy-hydroxy-phosphoryl]oxy-oxido-phosphoryl] hydrogen phosphate
   46    48     1     0     0
SMALL
USER_CHARGES

@<TRIPOS>ATOM
      1 PG          6.5994   -3.3308   -3.7655 P.3       1 ATP         1.5644
      2 O1G         5.6745   -3.3307   -2.5688 O.co2     1 ATP        -0.8581
      3 O2G         7.9316   -2.6162   -3.7187 O.co2     1 ATP        -0.8581
      4 O3G         6.8557   -4.8773   -4.2225 O.3       1 ATP        -0.7962
      5 PB          5.1325   -1.3614   -5.4183 P.3       1 ATP         1.6830
      6 O1B         6.2138   -0.3146   -5.2676 O.co2     1 ATP        -0.8633
      7 O2B         4.3253   -1.4711   -6.6927 O.co2     1 ATP        -0.8633
      8 O3B         5.7706   -2.8231   -5.0746 O.3       1 ATP        -0.8097
      9 PA          2.8587   -2.1496   -3.6950 P.3       1 ATP         1.7610
     10 O1A         3.0952   -3.6247   -3.8434 O.2       1 ATP        -0.8554
     11 O2A         1.6310   -1.5797   -4.5815 O.3       1 ATP        -0.8102
     12 O3A         4.1060   -1.2287   -4.1564 O.3       1 ATP        -0.7693
     13 O5'         2.5245   -1.6648   -2.1878 O.3       1 ATP        -0.5757
     14 C5'         2.2816   -0.2918   -1.9206 C.3       1 ATP         0.1911
     15 C4'         2.7248    0.0226   -0.4980 C.3       1 ATP         0.1218
     16 O4'         2.4697    1.4219   -0.2462 O.3       1 ATP        -0.4138
     17 C3'         1.9404   -0.7419    0.5596 C.3       1 ATP         0.1338
     18 O3'         2.7418   -0.8086    1.7389 O.3       1 ATP        -0.5756
     19 C2'         0.7477    0.1630    0.7858 C.3       1 ATP         0.0673
     20 O2'         0.1373   -0.0577    2.0407 O.3       1 ATP        -0.5671
     21 C1'         1.3733    1.5427    0.6747 C.3       1 ATP         0.3795
     22 N9          0.4520    2.5240    0.1767 N.pl3     1 ATP        -0.4175
     23 C8          0.2216    2.8192   -1.0985 C.ar      1 ATP         0.2552
     24 N7         -0.6906    3.7763   -1.2384 N.pl3     1 ATP        -0.4731
     25 C5         -1.0575    4.1037    0.0366 C.ar      1 ATP        -0.1295
     26 C6         -2.0291    5.0943    0.5330 C.ar      1 ATP         0.7196
     27 N6         -2.7093    5.8371   -0.2800 N.2       1 ATP        -0.8094
     28 N1         -2.1051    5.1136    1.9204 N.pl3     1 ATP        -0.8312
     29 C2         -1.3354    4.2774    2.7129 C.ar      1 ATP         0.6744
     30 N3         -0.4707    3.3945    2.2944 N.2       1 ATP        -0.5937
     31 C4         -0.3734    3.3525    0.9220 C.ar      1 ATP         0.2810
     32 HOG3        7.4400   -5.0457   -4.9923 H         1 ATP         0.4152
     33 HOA2        0.7307   -1.9389   -4.4311 H         1 ATP         0.4571
     34 H5'1        2.8432    0.3119   -2.6398 H         1 ATP         0.0465
     35 H5'2        1.2128   -0.0927   -2.0428 H         1 ATP         0.0465
     36 H4'         3.8044   -0.1397   -0.4040 H         1 ATP         0.1379
     37 H3'         1.6764   -1.7639    0.2728 H         1 ATP         0.1317
     38 HO3'        2.2232   -1.2979    2.3953 H         1 ATP         0.4175
     39 H2'        -0.0011    0.0027    0.0003 H         1 ATP         0.0669
     40 HO2'       -0.1563   -0.9855    2.0596 H         1 ATP         0.4064
     41 H1'         1.7826    1.9024    1.6451 H         1 ATP         0.1285
     42 H8          0.7125    2.3429   -1.9292 H         1 ATP         0.2954
     43 HN62       -3.3217    6.4517    0.2629 H         1 ATP         0.4226
     44 H2         -1.5188    4.4223    3.7890 H         1 ATP         0.0826
     45 H45        -2.7470    5.7626    2.3665 H         1 ATP         0.4581
     46 H46        -1.0305    4.1680   -2.1054 H         1 ATP         0.5252
@<TRIPOS>BOND
     1    1    2 2
     2    1    3 1
     3    1    4 1
     4    1    8 1
     5    4   32 1
     6    5    6 2
     7    5    7 1
     8    5    8 1
     9    5   12 1
    10    9   10 2
    11    9   11 1
    12    9   12 1
    13    9   13 1
    14   11   33 1
    15   13   14 1
    16   14   15 1
    17   14   34 1
    18   14   35 1
    19   15   16 1
    20   15   17 1
    21   15   36 1
    22   16   21 1
    23   17   18 1
    24   17   19 1
    25   17   37 1
    26   18   38 1
    27   19   20 1
    28   19   21 1
    29   19   39 1
    30   20   40 1
    31   21   22 1
    32   21   41 1
    33   22   23 ar
    34   22   31 ar
    35   23   24 ar
    36   23   42 1
    37   24   25 ar
    38   24   46 1
    39   25   26 ar
    40   25   31 ar
    41   26   27 2
    42   26   28 ar
    43   27   43 1
    44   28   29 ar
    45   28   45 1
    46   29   30 ar
    47   29   44 1
    48   30   31 ar
@<TRIPOS>SUBSTRUCTURE
     1 ATP         1 GROUP 0 A     ****
@<TRIPOS>MOLECULE
[[[3,4-dihydroxy-5-(6-imino-7,8-dihydro-1~{H}-purin-8-ylium-9-yl)tetrahydrofuran-2-yl]methoxy-hydroxy-phosphoryl]oxy-oxido-phosphoryl] hydrogen phosphate
   46    48     1     0     0
SMALL
USER_CHARGES

@<TRIPOS>ATOM
      1 PG         -2.2380   -8.5046    2.6180 P.3       1 ATP         1.5644
      2 O1G        -1.7688   -8.5313    1.1804 O.co2     1 ATP        -0.8581
      3 O2G        -3.2476   -7.4810    3.0875 O.co2     1 ATP        -0.8581
      4 O3G        -2.7847   -9.9918    3.0126 O.3       1 ATP        -0.7962
      5 PB          0.1770   -7.2818    3.8156 P.3       1 ATP         1.6830
      6 O1B         1.0750   -7.6753    4.9673 O.co2     1 ATP        -0.8633
      7 O2B         0.7548   -6.9052    2.4695 O.co2     1 ATP        -0.8633
      8 O3B        -0.9362   -8.4545    3.5985 O.3       1 ATP        -0.8097
      9 PA         -0.4992   -4.5557    4.7496 P.3       1 ATP         1.7610
     10 O1A         0.4335   -4.4255    5.9187 O.2       1 ATP        -0.8554
     11 O2A        -1.9724   -3.9355    5.0008 O.3       1 ATP        -0.8102
     12 O3A        -0.8105   -6.0830    4.3171 O.3       1 ATP        -0.7693
     13 O5'         0.0118   -3.8395    3.3916 O.3       1 ATP        -0.5757
     14 C5'        -0.7840   -3.8935    2.2172 C.3       1 ATP         0.1911
     15 C4'        -0.0724   -3.1466    1.1027 C.3       1 ATP         0.1218
     16 O4'        -0.8674   -3.1929   -0.0945 O.3       1 ATP        -0.4138
     17 C3'         0.1338   -1.6715    1.4027 C.3       1 ATP         0.1338
     18 O3'         1.2893   -1.4445    2.1808 O.3       1 ATP        -0.5756
     19 C2'         0.2158   -1.0724    0.0128 C.3       1 ATP         0.0673
     20 O2'         1.5141   -1.2448   -0.5513 O.3       1 ATP        -0.5671
     21 C1'        -0.7897   -1.9176   -0.7583 C.3       1 ATP         0.3795
     22 N9         -2.1040   -1.3333   -0.7704 N.pl3     1 ATP        -0.4175
     23 C8         -3.0590   -1.5123    0.1363 C.ar      1 ATP         0.2552
     24 N7         -4.1655   -0.8354   -0.1554 N.pl3     1 ATP        -0.4731
     25 C5         -3.8852   -0.1874   -1.3253 C.ar      1 ATP        -0.1295
     26 C6         -4.7113    0.7160   -2.1458 C.ar      1 ATP         0.7196
     27 N6         -5.9213    1.0209   -1.8021 N.2       1 ATP        -0.8094
     28 N1         -4.0411    1.1673   -3.2764 N.pl3     1 ATP        -0.8312
     29 C2         -2.7403    0.7865   -3.5638 C.ar      1 ATP         0.6744
     30 N3         -1.9921   -0.0108   -2.8519 N.2       1 ATP        -0.5937
     31 C4         -2.6302   -0.4747   -1.7239 C.ar      1 ATP         0.2810
     32 HOG3       -3.1266  -10.1376    3.9205 H         1 ATP         0.4152
     33 HOA2       -2.0553   -2.9813    5.2126 H         1 ATP         0.4571
     34 H5'1       -0.9348   -4.9415    1.9415 H         1 ATP         0.0465
     35 H5'2       -1.7548   -3.4350    2.4278 H         1 ATP         0.0465
     36 H4'         0.8874   -3.6466    0.8805 H         1 ATP         0.1379
     37 H3'        -0.7376   -1.2333    1.9867 H         1 ATP         0.1317
     38 HO3'        1.1626   -1.9325    3.0084 H         1 ATP         0.4175
     39 H2'        -0.0384   -0.0310    0.0096 H         1 ATP         0.0669
     40 HO2'        2.1463   -0.7958    0.0370 H         1 ATP         0.4064
     41 H1'        -0.4769   -2.1002   -1.8093 H         1 ATP         0.1285
     42 H8         -2.9569   -2.1323    1.0098 H         1 ATP         0.2954
     43 HN62       -6.3169    1.6552   -2.5012 H         1 ATP         0.4226
     44 H2         -2.3612    1.2343   -4.4957 H         1 ATP         0.0826
     45 H45        -4.5223    1.7976   -3.9117 H         1 ATP         0.4581
     46 H46        -5.0218   -0.8132    0.3804 H         1 ATP         0.5252
@<TRIPOS>BOND
     1    1    2 2
     2    1    3 1
     3    1    4 1
     4    1    8 1
     5    4   32 1
     6    5    6 2
     7    5    7 1
     8    5    8 1
     9    5   12 1
    10    9   10 2
    11    9   11 1
    12    9   12 1
    13    9   13 1
    14   11   33 1
    15   13   14 1
    16   14   15 1
    17   14   34 1
    18   14   35 1
    19   15   16 1
    20   15   17 1
    21   15   36 1
    22   16   21 1
    23   17   18 1
    24   17   19 1
    25   17   37 1
    26   18   38 1
    27   19   20 1
    28   19   21 1
    29   19   39 1
    30   20   40 1
    31   21   22 1
    32   21   41 1
    33   22   23 ar
    34   22   31 ar
    35   23   24 ar
    36   23   42 1
    37   24   25 ar
    38   24   46 1
    39   25   26 ar
    40   25   31 ar
    41   26   27 2
    42   26   28 ar
    43   27   43 1
    44   28   29 ar
    45   28   45 1
    46   29   30 ar
    47   29   44 1
    48   30   31 ar
@<TRIPOS>SUBSTRUCTURE
     1 ATP         1 GROUP 0 A     ****
@<TRIPOS>MOLECULE
[[[3,4-dihydroxy-5-(6-imino-7,8-dihydro-1~{H}-purin-8-ylium-9-yl)tetrahydrofuran-2-yl]methoxy-hydroxy-phosphoryl]oxy-oxido-phosphoryl] hydrogen phosphate
   46    48     1     0     0
SMALL
USER_CHARGES

@<TRIPOS>ATOM
      1 PG         -2.7584   -1.9929   -5.3220 P.3       1 ATP         1.5644
      2 O1G        -3.6910   -2.0817   -4.1345 O.co2     1 ATP        -0.8581
      3 O2G        -2.7493   -3.0682   -6.3855 O.co2     1 ATP        -0.8581
      4 O3G        -2.9793   -0.5469   -6.0476 O.3       1 ATP        -0.7962
      5 PB          0.1382   -1.4527   -5.6045 P.3       1 ATP         1.6830
      6 O1B         0.4903   -2.6648   -6.4379 O.co2     1 ATP        -0.8633
      7 O2B         0.0273   -0.0806   -6.2314 O.co2     1 ATP        -0.8633
      8 O3B        -1.2362   -1.7662   -4.7833 O.3       1 ATP        -0.8097
      9 PA          1.5776   -2.4676   -3.2256 P.3       1 ATP         1.7610
     10 O1A         2.1795   -3.7248   -3.7832 O.2       1 ATP        -0.8554
     11 O2A         0.1953   -2.6937   -2.4155 O.3       1 ATP        -0.8102
     12 O3A         1.1741   -1.3727   -4.3459 O.3       1 ATP        -0.7693
     13 O5'         2.5245   -1.6648   -2.1878 O.3       1 ATP        -0.5757
     14 C5'         2.2816   -0.2918   -1.9206 C.3       1 ATP         0.1911
     15 C4'         2.7248    0.0226   -0.4980 C.3       1 ATP         0.1218
     16 O4'         2.4697    1.4219   -0.2462 O.3       1 ATP        -0.4138
     17 C3'         1.9404   -0.7419    0.5596 C.3       1 ATP         0.1338
     18 O3'         2.7418   -0.8086    1.7389 O.3       1 ATP        -0.5756
     19 C2'         0.7477    0.1630    0.7858 C.3       1 ATP         0.0673
     20 O2'         0.1373   -0.0577    2.0407 O.3       1 ATP        -0.5671
     21 C1'         1.3733    1.5427    0.6747 C.3       1 ATP         0.3795
     22 N9          0.4520    2.5240    0.1767 N.pl3     1 ATP        -0.4175
     23 C8          0.2216    2.8192   -1.0985 C.ar      1 ATP         0.2552
     24 N7         -0.6906    3.7763   -1.2384 N.pl3     1 ATP        -0.4731
     25 C5         -1.0575    4.1037    0.0366 C.ar      1 ATP        -0.1295
     26 C6         -2.0291    5.0943    0.5330 C.ar      1 ATP         0.7196
     27 N6         -2.7093    5.8371   -0.2800 N.2       1 ATP        -0.8094
     28 N1         -2.1051    5.1136    1.9204 N.pl3     1 ATP        -0.8312
     29 C2         -1.3354    4.2774    2.7129 C.ar      1 ATP         0.6744
     30 N3         -0.4707    3.3945    2.2944 N.2       1 ATP        -0.5937
     31 C4         -0.3734    3.3525    0.9220 C.ar      1 ATP         0.2810
     32 HOG3       -2.4423   -0.3361   -6.8411 H         1 ATP         0.4152
     33 HOA2       -0.5709   -3.0865   -2.8854 H         1 ATP         0.4571
     34 H5'1        2.8432    0.3119   -2.6398 H         1 ATP         0.0465
     35 H5'2        1.2128   -0.0927   -2.0428 H         1 ATP         0.0465
     36 H4'         3.8044   -0.1397   -0.4040 H         1 ATP         0.1379
     37 H3'         1.6764   -1.7639    0.2728 H         1 ATP         0.1317
     38 HO3'        3.5554   -1.2733    1.4914 H         1 ATP         0.4175
     39 H2'        -0.0011    0.0027    0.0003 H         1 ATP         0.0669
     40 HO2'       -0.1563   -0.9855    2.0596 H         1 ATP         0.4064
     41 H1'         1.7826    1.9024    1.6451 H         1 ATP         0.1285
     42 H8          0.7125    2.3429   -1.9292 H         1 ATP         0.2954
     43 HN62       -3.3217    6.4517    0.2629 H         1 ATP         0.4226
     44 H2         -1.5188    4.4223    3.7890 H         1 ATP         0.0826
     45 H45        -2.7470    5.7626    2.3665 H         1 ATP         0.4581
     46 H46        -1.0305    4.1680   -2.1054 H         1 ATP         0.5252
@<TRIPOS>BOND
     1    1    2 2
     2    1    3 1
     3    1    4 1
     4    1    8 1
     5    4   32 1
     6    5    6 2
     7    5    7 1
     8    5    8 1
     9    5   12 1
    10    9   10 2
    11    9   11 1
    12    9   12 1
    13    9   13 1
    14   11   33 1
    15   13   14 1
    16   14   15 1
    17   14   34 1
    18   14   35 1
    19   15   16 1
    20   15   17 1
    21   15   36 1
    22   16   21 1
    23   17   18 1
    24   17   19 1
    25   17   37 1
    26   18   38 1
    27   19   20 1
    28   19   21 1
    29   19   39 1
    30   20   40 1
    31   21   22 1
    32   21   41 1
    33   22   23 ar
    34   22   31 ar
    35   23   24 ar
    36   23   42 1
    37   24   25 ar
    38   24   46 1
    39   25   26 ar
    40   25   31 ar
    41   26   27 2
    42   26   28 ar
    43   27   43 1
    44   28   29 ar
    45   28   45 1
    46   29   30 ar
    47   29   44 1
    48   30   31 ar
@<TRIPOS>SUBSTRUCTURE
     1 ATP         1 GROUP 0 A     ****
@<TRIPOS>MOLECULE
[[[3,4-dihydroxy-5-(6-imino-7,8-dihydro-1~{H}-purin-8-ylium-9-yl)tetrahydrofuran-2-yl]methoxy-hydroxy-phosphoryl]oxy-oxido-phosphoryl] hydrogen phosphate
   46    48     1     0     0
SMALL
USER_CHARGES

@<TRIPOS>ATOM
      1 PG          2.5567   -2.9691   -8.0751 P.3       1 ATP         1.5644
      2 O1G         3.1407   -2.1345   -9.1931 O.co2     1 ATP        -0.8581
      3 O2G         1.2791   -3.7531   -8.2758 O.co2     1 ATP        -0.8581
      4 O3G         3.7111   -3.9880   -7.5315 O.3       1 ATP        -0.7962
      5 PB          1.4350   -0.7595   -6.4560 P.3       1 ATP         1.6830
      6 O1B         1.8660    0.3841   -7.3472 O.co2     1 ATP        -0.8633
      7 O2B        -0.0011   -1.2336   -6.4350 O.co2     1 ATP        -0.8633
      8 O3B         2.4052   -2.0391   -6.7444 O.3       1 ATP        -0.8097
      9 PA          3.3429   -0.0249   -4.3155 P.3       1 ATP         1.7610
     10 O1A         4.1316    0.9232   -5.1715 O.2       1 ATP        -0.8554
     11 O2A         4.0556   -1.4579   -4.0783 O.3       1 ATP        -0.8102
     12 O3A         1.9004   -0.4266   -4.9275 O.3       1 ATP        -0.7693
     13 O5'         3.0213    0.5153   -2.8245 O.3       1 ATP        -0.5757
     14 C5'         2.2816   -0.2918   -1.9206 C.3       1 ATP         0.1911
     15 C4'         2.7248    0.0226   -0.4980 C.3       1 ATP         0.1218
     16 O4'         2.4697    1.4219   -0.2462 O.3       1 ATP        -0.4138
     17 C3'         1.9404   -0.7419    0.5596 C.3       1 ATP         0.1338
     18 O3'         2.7418   -0.8086    1.7389 O.3       1 ATP        -0.5756
     19 C2'         0.7477    0.1630    0.7858 C.3       1 ATP         0.0673
     20 O2'         0.1373   -0.0577    2.0407 O.3       1 ATP        -0.5671
     21 C1'         1.3733    1.5427    0.6747 C.3       1 ATP         0.3795
     22 N9          0.4520    2.5240    0.1767 N.pl3     1 ATP        -0.4175
     23 C8         -0.2004    2.4829   -0.9804 C.ar      1 ATP         0.2552
     24 N7         -0.9830    3.5431   -1.1568 N.pl3     1 ATP        -0.4731
     25 C5         -0.8095    4.3012   -0.0331 C.ar      1 ATP        -0.1295
     26 C6         -1.4065    5.5904    0.3585 C.ar      1 ATP         0.7196
     27 N6         -2.2501    6.2030   -0.4084 N.2       1 ATP        -0.8094
     28 N1         -0.9585    6.0272    1.5994 N.pl3     1 ATP        -0.8312
     29 C2         -0.0508    5.3009    2.3532 C.ar      1 ATP         0.6744
     30 N3          0.4890    4.1592    2.0257 N.2       1 ATP        -0.5937
     31 C4          0.0637    3.7006    0.7995 C.ar      1 ATP         0.2810
     32 HOG3        3.4854   -4.6011   -6.7996 H         1 ATP         0.4152
     33 HOA2        4.9339   -1.4843   -3.6423 H         1 ATP         0.4571
     34 H5'1        1.2163   -0.0770   -2.0471 H         1 ATP         0.0465
     35 H5'2        2.4655   -1.3443   -2.1563 H         1 ATP         0.0465
     36 H4'         3.8044   -0.1397   -0.4040 H         1 ATP         0.1379
     37 H3'         1.6764   -1.7639    0.2728 H         1 ATP         0.1317
     38 HO3'        2.2232   -1.2979    2.3953 H         1 ATP         0.4175
     39 H2'        -0.0011    0.0027    0.0003 H         1 ATP         0.0669
     40 HO2'       -0.1563   -0.9855    2.0596 H         1 ATP         0.4064
     41 H1'         1.7826    1.9024    1.6451 H         1 ATP         0.1285
     42 H8         -0.1116    1.6863   -1.6984 H         1 ATP         0.2954
     43 HN62       -2.5420    7.0730    0.0447 H         1 ATP         0.4226
     44 H2          0.1969    5.7893    3.3086 H         1 ATP         0.0826
     45 H45        -1.3097    6.9080    1.9642 H         1 ATP         0.4581
     46 H46        -1.5735    3.7351   -1.9538 H         1 ATP         0.5252
@<TRIPOS>BOND
     1    1    2 2
     2    1    3 1
     3    1    4 1
     4    1    8 1
     5    4   32 1
     6    5    6 2
     7    5    7 1
     8    5    8 1
     9    5   12 1
    10    9   10 2
    11    9   11 1
    12    9   12 1
    13    9   13 1
    14   11   33 1
    15   13   14 1
    16   14   15 1
    17   14   34 1
    18   14   35 1
    19   15   16 1
    20   15   17 1
    21   15   36 1
    22   16   21 1
    23   17   18 1
    24   17   19 1
    25   17   37 1
    26   18   38 1
    27   19   20 1
    28   19   21 1
    29   19   39 1
    30   20   40 1
    31   21   22 1
    32   21   41 1
    33   22   23 ar
    34   22   31 ar
    35   23   24 ar
    36   23   42 1
    37   24   25 ar
    38   24   46 1
    39   25   26 ar
    40   25   31 ar
    41   26   27 2
    42   26   28 ar
    43   27   43 1
    44   28   29 ar
    45   28   45 1
    46   29   30 ar
    47   29   44 1
    48   30   31 ar
@<TRIPOS>SUBSTRUCTURE
     1 ATP         1 GROUP 0 A     ****
@<TRIPOS>MOLECULE
[[[3,4-dihydroxy-5-(6-imino-7,8-dihydro-1~{H}-purin-8-ylium-9-yl)tetrahydrofuran-2-yl]methoxy-hydroxy-phosphoryl]oxy-oxido-phosphoryl] hydrogen phosphate
   46    48     1     0     0
SMALL
USER_CHARGES

@<TRIPOS>ATOM
      1 PG          1.1683   -3.9982   -7.1220 P.3       1 ATP         1.5644
      2 O1G         1.6188   -3.6820   -8.5307 O.co2     1 ATP        -0.8581
      3 O2G        -0.2906   -4.2459   -6.8093 O.co2     1 ATP        -0.8581
      4 O3G         2.0396   -5.2644   -6.5709 O.3       1 ATP        -0.7962
      5 PB          3.2596   -2.2994   -5.8960 P.3       1 ATP         1.6830
      6 O1B         4.0942   -3.4078   -5.2938 O.co2     1 ATP        -0.8633
      7 O2B         3.7022   -1.5851   -7.1536 O.co2     1 ATP        -0.8633
      8 O3B         1.7397   -2.8510   -6.1139 O.3       1 ATP        -0.8097
      9 PA          3.9521   -0.1769   -3.9527 P.3       1 ATP         1.7610
     10 O1A         4.6810    0.7861   -4.8443 O.2       1 ATP        -0.8554
     11 O2A         4.9166   -1.1746   -3.1207 O.3       1 ATP        -0.8102
     12 O3A         2.9635   -1.1884   -4.7377 O.3       1 ATP        -0.7693
     13 O5'         3.0213    0.5153   -2.8245 O.3       1 ATP        -0.5757
     14 C5'         2.2816   -0.2918   -1.9206 C.3       1 ATP         0.1911
     15 C4'         2.7248    0.0226   -0.4980 C.3       1 ATP         0.1218
     16 O4'         2.4697    1.4219   -0.2462 O.3       1 ATP        -0.4138
     17 C3'         1.9404   -0.7419    0.5596 C.3       1 ATP         0.1338
     18 O3'         2.7418   -0.8086    1.7389 O.3       1 ATP        -0.5756
     19 C2'         0.7477    0.1630    0.7858 C.3       1 ATP         0.0673
     20 O2'         0.1373   -0.0577    2.0407 O.3       1 ATP        -0.5671
     21 C1'         1.3733    1.5427    0.6747 C.3       1 ATP         0.3795
     22 N9          0.4520    2.5240    0.1767 N.pl3     1 ATP        -0.4175
     23 C8         -0.2004    2.4829   -0.9804 C.ar      1 ATP         0.2552
     24 N7         -0.9830    3.5431   -1.1568 N.pl3     1 ATP        -0.4731
     25 C5         -0.8095    4.3012   -0.0331 C.ar      1 ATP        -0.1295
     26 C6         -1.4065    5.5904    0.3585 C.ar      1 ATP         0.7196
     27 N6         -2.2501    6.2030   -0.4084 N.2       1 ATP        -0.8094
     28 N1         -0.9585    6.0272    1.5994 N.pl3     1 ATP        -0.8312
     29 C2         -0.0508    5.3009    2.3532 C.ar      1 ATP         0.6744
     30 N3          0.4890    4.1592    2.0257 N.2       1 ATP        -0.5937
     31 C4          0.0637    3.7006    0.7995 C.ar      1 ATP         0.2810
     32 HOG3        1.8634   -5.5925   -5.6633 H         1 ATP         0.4152
     33 HOA2        5.5732   -0.7917   -2.5006 H         1 ATP         0.4571
     34 H5'1        1.2163   -0.0770   -2.0471 H         1 ATP         0.0465
     35 H5'2        2.4655   -1.3443   -2.1563 H         1 ATP         0.0465
     36 H4'         3.8044   -0.1397   -0.4040 H         1 ATP         0.1379
     37 H3'         1.6764   -1.7639    0.2728 H         1 ATP         0.1317
     38 HO3'        2.2232   -1.2979    2.3953 H         1 ATP         0.4175
     39 H2'        -0.0011    0.0027    0.0003 H         1 ATP         0.0669
     40 HO2'       -0.6141    0.5574    2.1082 H         1 ATP         0.4064
     41 H1'         1.7826    1.9024    1.6451 H         1 ATP         0.1285
     42 H8         -0.1116    1.6863   -1.6984 H         1 ATP         0.2954
     43 HN62       -2.5420    7.0730    0.0447 H         1 ATP         0.4226
     44 H2          0.1969    5.7893    3.3086 H         1 ATP         0.0826
     45 H45        -1.3097    6.9080    1.9642 H         1 ATP         0.4581
     46 H46        -1.5735    3.7351   -1.9538 H         1 ATP         0.5252
@<TRIPOS>BOND
     1    1    2 2
     2    1    3 1
     3    1    4 1
     4    1    8 1
     5    4   32 1
     6    5    6 2
     7    5    7 1
     8    5    8 1
     9    5   12 1
    10    9   10 2
    11    9   11 1
    12    9   12 1
    13    9   13 1
    14   11   33 1
    15   13   14 1
    16   14   15 1
    17   14   34 1
    18   14   35 1
    19   15   16 1
    20   15   17 1
    21   15   36 1
    22   16   21 1
    23   17   18 1
    24   17   19 1
    25   17   37 1
    26   18   38 1
    27   19   20 1
    28   19   21 1
    29   19   39 1
    30   20   40 1
    31   21   22 1
    32   21   41 1
    33   22   23 ar
    34   22   31 ar
    35   23   24 ar
    36   23   42 1
    37   24   25 ar
    38   24   46 1
    39   25   26 ar
    40   25   31 ar
    41   26   27 2
    42   26   28 ar
    43   27   43 1
    44   28   29 ar
    45   28   45 1
    46   29   30 ar
    47   29   44 1
    48   30   31 ar
@<TRIPOS>SUBSTRUCTURE
     1 ATP         1 GROUP 0 A     ****
@<TRIPOS>MOLECULE
[[[3,4-dihydroxy-5-(6-imino-7,8-dihydro-1~{H}-purin-8-ylium-9-yl)tetrahydrofuran-2-yl]methoxy-hydroxy-phosphoryl]oxy-oxido-phosphoryl] hydrogen phosphate
   46    48     1     0     0
SMALL
USER_CHARGES

@<TRIPOS>ATOM
      1 PG         -1.2868   -1.1091   -7.2712 P.3       1 ATP         1.5644
      2 O1G        -1.6636   -2.5721   -7.1986 O.co2     1 ATP        -0.8581
      3 O2G        -0.9832   -0.4492   -8.5977 O.co2     1 ATP        -0.8581
      4 O3G        -2.4398   -0.2385   -6.5102 O.3       1 ATP        -0.7962
      5 PB          1.4935   -1.3516   -6.2848 P.3       1 ATP         1.6830
      6 O1B         1.5032   -2.8490   -6.0713 O.co2     1 ATP        -0.8633
      7 O2B         2.1856   -0.7292   -7.4771 O.co2     1 ATP        -0.8633
      8 O3B        -0.0516   -0.8294   -6.2443 O.3       1 ATP        -0.8097
      9 PA          3.5004   -0.6417   -4.2282 P.3       1 ATP         1.7610
     10 O1A         4.5984   -0.0927   -5.0923 O.2       1 ATP        -0.8554
     11 O2A         3.6979   -2.1908   -3.8049 O.3       1 ATP        -0.8102
     12 O3A         2.0409   -0.6327   -4.9257 O.3       1 ATP        -0.7693
     13 O5'         3.2903    0.1346   -2.8241 O.3       1 ATP        -0.5757
     14 C5'         2.2816   -0.2918   -1.9206 C.3       1 ATP         0.1911
     15 C4'         2.7248    0.0226   -0.4980 C.3       1 ATP         0.1218
     16 O4'         2.4697    1.4219   -0.2462 O.3       1 ATP        -0.4138
     17 C3'         1.9404   -0.7419    0.5596 C.3       1 ATP         0.1338
     18 O3'         2.7418   -0.8086    1.7389 O.3       1 ATP        -0.5756
     19 C2'         0.7477    0.1630    0.7858 C.3       1 ATP         0.0673
     20 O2'         0.1373   -0.0577    2.0407 O.3       1 ATP        -0.5671
     21 C1'         1.3733    1.5427    0.6747 C.3       1 ATP         0.3795
     22 N9          0.4520    2.5240    0.1767 N.pl3     1 ATP        -0.4175
     23 C8         -0.2004    2.4829   -0.9804 C.ar      1 ATP         0.2552
     24 N7         -0.9830    3.5431   -1.1568 N.pl3     1 ATP        -0.4731
     25 C5         -0.8095    4.3012   -0.0331 C.ar      1 ATP        -0.1295
     26 C6         -1.4065    5.5904    0.3585 C.ar      1 ATP         0.7196
     27 N6         -2.2501    6.2030   -0.4084 N.2       1 ATP        -0.8094
     28 N1         -0.9585    6.0272    1.5994 N.pl3     1 ATP        -0.8312
     29 C2         -0.0508    5.3009    2.3532 C.ar      1 ATP         0.6744
     30 N3          0.4890    4.1592    2.0257 N.2       1 ATP        -0.5937
     31 C4          0.0637    3.7006    0.7995 C.ar      1 ATP         0.2810
     32 HOG3       -2.3387    0.7365   -6.4710 H         1 ATP         0.4152
     33 HOA2        3.7523   -2.8715   -4.5091 H         1 ATP         0.4571
     34 H5'1        1.3514    0.2330   -2.1577 H         1 ATP         0.0465
     35 H5'2        2.1280   -1.3678   -2.0460 H         1 ATP         0.0465
     36 H4'         3.8044   -0.1397   -0.4040 H         1 ATP         0.1379
     37 H3'         1.6764   -1.7639    0.2728 H         1 ATP         0.1317
     38 HO3'        2.2232   -1.2979    2.3953 H         1 ATP         0.4175
     39 H2'        -0.0011    0.0027    0.0003 H         1 ATP         0.0669
     40 HO2'       -0.1563   -0.9855    2.0596 H         1 ATP         0.4064
     41 H1'         1.7826    1.9024    1.6451 H         1 ATP         0.1285
     42 H8         -0.1116    1.6863   -1.6984 H         1 ATP         0.2954
     43 HN62       -2.5420    7.0730    0.0447 H         1 ATP         0.4226
     44 H2          0.1969    5.7893    3.3086 H         1 ATP         0.0826
     45 H45        -1.3097    6.9080    1.9642 H         1 ATP         0.4581
     46 H46        -1.5735    3.7351   -1.9538 H         1 ATP         0.5252
@<TRIPOS>BOND
     1    1    2 2
     2    1    3 1
     3    1    4 1
     4    1    8 1
     5    4   32 1
     6    5    6 2
     7    5    7 1
     8    5    8 1
     9    5   12 1
    10    9   10 2
    11    9   11 1
    12    9   12 1
    13    9   13 1
    14   11   33 1
    15   13   14 1
    16   14   15 1
    17   14   34 1
    18   14   35 1
    19   15   16 1
    20   15   17 1
    21   15   36 1
    22   16   21 1
    23   17   18 1
    24   17   19 1
    25   17   37 1
    26   18   38 1
    27   19   20 1
    28   19   21 1
    29   19   39 1
    30   20   40 1
    31   21   22 1
    32   21   41 1
    33   22   23 ar
    34   22   31 ar
    35   23   24 ar
    36   23   42 1
    37   24   25 ar
    38   24   46 1
    39   25   26 ar
    40   25   31 ar
    41   26   27 2
    42   26   28 ar
    43   27   43 1
    44   28   29 ar
    45   28   45 1
    46   29   30 ar
    47   29   44 1
    48   30   31 ar
@<TRIPOS>SUBSTRUCTURE
     1 ATP         1 GROUP 0 A     ****
@<TRIPOS>MOLECULE
[[[3,4-dihydroxy-5-(6-imino-7,8-dihydro-1~{H}-purin-8-ylium-9-yl)tetrahydrofuran-2-yl]methoxy-hydroxy-phosphoryl]oxy-oxido-phosphoryl] hydrogen phosphate
   46    48     1     0     0
SMALL
USER_CHARGES

@<TRIPOS>ATOM
      1 PG          4.7866    1.3293   -4.9555 P.3       1 ATP         1.5644
      2 O1G         4.1970    2.5015   -5.7078 O.co2     1 ATP        -0.8581
      3 O2G         6.0197    0.6182   -5.4666 O.co2     1 ATP        -0.8581
      4 O3G         5.0536    1.7861   -3.4107 O.3       1 ATP        -0.7962
      5 PB          2.7838   -0.7069   -5.7331 P.3       1 ATP         1.6830
      6 O1B         1.9126    0.1828   -6.5915 O.co2     1 ATP        -0.8633
      7 O2B         3.7382   -1.7005   -6.3573 O.co2     1 ATP        -0.8633
      8 O3B         3.6133    0.2296   -4.6859 O.3       1 ATP        -0.8097
      9 PA          2.1902   -2.4548   -3.4193 P.3       1 ATP         1.7610
     10 O1A         2.9716   -3.6811   -3.7924 O.2       1 ATP        -0.8554
     11 O2A         0.7452   -2.7614   -2.7590 O.3       1 ATP        -0.8102
     12 O3A         1.8285   -1.4938   -4.6692 O.3       1 ATP        -0.7693
     13 O5'         2.9216   -1.4836   -2.3516 O.3       1 ATP        -0.5757
     14 C5'         2.2816   -0.2918   -1.9206 C.3       1 ATP         0.1911
     15 C4'         2.7248    0.0226   -0.4980 C.3       1 ATP         0.1218
     16 O4'         2.4697    1.4219   -0.2462 O.3       1 ATP        -0.4138
     17 C3'         1.9404   -0.7419    0.5596 C.3       1 ATP         0.1338
     18 O3'         2.7418   -0.8086    1.7389 O.3       1 ATP        -0.5756
     19 C2'         0.7477    0.1630    0.7858 C.3       1 ATP         0.0673
     20 O2'         0.1373   -0.0577    2.0407 O.3       1 ATP        -0.5671
     21 C1'         1.3733    1.5427    0.6747 C.3       1 ATP         0.3795
     22 N9          0.4520    2.5240    0.1767 N.pl3     1 ATP        -0.4175
     23 C8          0.2216    2.8192   -1.0985 C.ar      1 ATP         0.2552
     24 N7         -0.6906    3.7763   -1.2384 N.pl3     1 ATP        -0.4731
     25 C5         -1.0575    4.1037    0.0366 C.ar      1 ATP        -0.1295
     26 C6         -2.0291    5.0943    0.5330 C.ar      1 ATP         0.7196
     27 N6         -2.7093    5.8371   -0.2800 N.2       1 ATP        -0.8094
     28 N1         -2.1051    5.1136    1.9204 N.pl3     1 ATP        -0.8312
     29 C2         -1.3354    4.2774    2.7129 C.ar      1 ATP         0.6744
     30 N3         -0.4707    3.3945    2.2944 N.2       1 ATP        -0.5937
     31 C4         -0.3734    3.3525    0.9220 C.ar      1 ATP         0.2810
     32 HOG3        5.4374    1.1306   -2.7899 H         1 ATP         0.4152
     33 HOA2        0.7043   -3.2806   -1.9277 H         1 ATP         0.4571
     34 H5'1        2.5589    0.5217   -2.5976 H         1 ATP         0.0465
     35 H5'2        1.1982   -0.4388   -1.9617 H         1 ATP         0.0465
     36 H4'         3.8044   -0.1397   -0.4040 H         1 ATP         0.1379
     37 H3'         1.6764   -1.7639    0.2728 H         1 ATP         0.1317
     38 HO3'        3.5554   -1.2733    1.4914 H         1 ATP         0.4175
     39 H2'        -0.0011    0.0027    0.0003 H         1 ATP         0.0669
     40 HO2'       -0.6141    0.5574    2.1082 H         1 ATP         0.4064
     41 H1'         1.7826    1.9024    1.6451 H         1 ATP         0.1285
     42 H8          0.7125    2.3429   -1.9292 H         1 ATP         0.2954
     43 HN62       -3.3217    6.4517    0.2629 H         1 ATP         0.4226
     44 H2         -1.5188    4.4223    3.7890 H         1 ATP         0.0826
     45 H45        -2.7470    5.7626    2.3665 H         1 ATP         0.4581
     46 H46        -1.0305    4.1680   -2.1054 H         1 ATP         0.5252
@<TRIPOS>BOND
     1    1    2 2
     2    1    3 1
     3    1    4 1
     4    1    8 1
     5    4   32 1
     6    5    6 2
     7    5    7 1
     8    5    8 1
     9    5   12 1
    10    9   10 2
    11    9   11 1
    12    9   12 1
    13    9   13 1
    14   11   33 1
    15   13   14 1
    16   14   15 1
    17   14   34 1
    18   14   35 1
    19   15   16 1
    20   15   17 1
    21   15   36 1
    22   16   21 1
    23   17   18 1
    24   17   19 1
    25   17   37 1
    26   18   38 1
    27   19   20 1
    28   19   21 1
    29   19   39 1
    30   20   40 1
    31   21   22 1
    32   21   41 1
    33   22   23 ar
    34   22   31 ar
    35   23   24 ar
    36   23   42 1
    37   24   25 ar
    38   24   46 1
    39   25   26 ar
    40   25   31 ar
    41   26   27 2
    42   26   28 ar
    43   27   43 1
    44   28   29 ar
    45   28   45 1
    46   29   30 ar
    47   29   44 1
    48   30   31 ar
@<TRIPOS>SUBSTRUCTURE
     1 ATP         1 GROUP 0 A     ****
@<TRIPOS>MOLECULE
[[[3,4-dihydroxy-5-(6-imino-7,8-dihydro-1~{H}-purin-8-ylium-9-yl)tetrahydrofuran-2-yl]methoxy-hydroxy-phosphoryl]oxy-oxido-phosphoryl] hydrogen phosphate
   46    48     1     0     0
SMALL
USER_CHARGES

@<TRIPOS>ATOM
      1 PG         -5.7942   -8.5385    4.1059 P.3       1 ATP         1.5644
      2 O1G        -7.1748   -7.9558    3.9007 O.co2     1 ATP        -0.8581
      3 O2G        -5.3787   -9.1000    5.4473 O.co2     1 ATP        -0.8581
      4 O3G        -5.5373   -9.6774    2.9643 O.3       1 ATP        -0.7962
      5 PB         -4.2899   -5.9927    4.2401 P.3       1 ATP         1.6830
      6 O1B        -5.4611   -5.0546    4.0501 O.co2     1 ATP        -0.8633
      7 O2B        -3.6679   -6.1975    5.6036 O.co2     1 ATP        -0.8633
      8 O3B        -4.6827   -7.4493    3.6192 O.3       1 ATP        -0.8097
      9 PA         -1.7101   -6.2838    2.8184 P.3       1 ATP         1.7610
     10 O1A        -1.8467   -7.6794    2.2823 O.2       1 ATP        -0.8554
     11 O2A        -0.8728   -6.1797    4.1989 O.3       1 ATP        -0.8102
     12 O3A        -3.1168   -5.5743    3.1854 O.3       1 ATP        -0.7693
     13 O5'        -0.9724   -5.2440    1.8220 O.3       1 ATP        -0.5757
     14 C5'        -0.7840   -3.8935    2.2172 C.3       1 ATP         0.1911
     15 C4'        -0.0724   -3.1466    1.1027 C.3       1 ATP         0.1218
     16 O4'        -0.8674   -3.1929   -0.0945 O.3       1 ATP        -0.4138
     17 C3'         0.1338   -1.6715    1.4027 C.3       1 ATP         0.1338
     18 O3'         1.2893   -1.4445    2.1808 O.3       1 ATP        -0.5756
     19 C2'         0.2158   -1.0724    0.0128 C.3       1 ATP         0.0673
     20 O2'         1.5141   -1.2448   -0.5513 O.3       1 ATP        -0.5671
     21 C1'        -0.7897   -1.9176   -0.7583 C.3       1 ATP         0.3795
     22 N9         -2.1040   -1.3333   -0.7704 N.pl3     1 ATP        -0.4175
     23 C8         -3.0590   -1.5123    0.1363 C.ar      1 ATP         0.2552
     24 N7         -4.1655   -0.8354   -0.1554 N.pl3     1 ATP        -0.4731
     25 C5         -3.8852   -0.1874   -1.3253 C.ar      1 ATP        -0.1295
     26 C6         -4.7113    0.7160   -2.1458 C.ar      1 ATP         0.7196
     27 N6         -5.9213    1.0209   -1.8021 N.2       1 ATP        -0.8094
     28 N1         -4.0411    1.1673   -3.2764 N.pl3     1 ATP        -0.8312
     29 C2         -2.7403    0.7865   -3.5638 C.ar      1 ATP         0.6744
     30 N3         -1.9921   -0.0108   -2.8519 N.2       1 ATP        -0.5937
     31 C4         -2.6302   -0.4747   -1.7239 C.ar      1 ATP         0.2810
     32 HOG3       -4.6787  -10.1519    2.9635 H         1 ATP         0.4152
     33 HOA2        0.0586   -6.4873    4.2129 H         1 ATP         0.4571
     34 H5'1       -1.7618   -3.4448    2.4164 H         1 ATP         0.0465
     35 H5'2       -0.1874   -3.8744    3.1341 H         1 ATP         0.0465
     36 H4'         0.8874   -3.6466    0.8805 H         1 ATP         0.1379
     37 H3'        -0.7376   -1.2333    1.9867 H         1 ATP         0.1317
     38 HO3'        1.3408   -0.4870    2.3219 H         1 ATP         0.4175
     39 H2'        -0.0384   -0.0310    0.0096 H         1 ATP         0.0669
     40 HO2'        2.1463   -0.7958    0.0370 H         1 ATP         0.4064
     41 H1'        -0.4769   -2.1002   -1.8093 H         1 ATP         0.1285
     42 H8         -2.9569   -2.1323    1.0098 H         1 ATP         0.2954
     43 HN62       -6.3169    1.6552   -2.5012 H         1 ATP         0.4226
     44 H2         -2.3612    1.2343   -4.4957 H         1 ATP         0.0826
     45 H45        -4.5223    1.7976   -3.9117 H         1 ATP         0.4581
     46 H46        -5.0218   -0.8132    0.3804 H         1 ATP         0.5252
@<TRIPOS>BOND
     1    1    2 2
     2    1    3 1
     3    1    4 1
     4    1    8 1
     5    4   32 1
     6    5    6 2
     7    5    7 1
     8    5    8 1
     9    5   12 1
    10    9   10 2
    11    9   11 1
    12    9   12 1
    13    9   13 1
    14   11   33 1
    15   13   14 1
    16   14   15 1
    17   14   34 1
    18   14   35 1
    19   15   16 1
    20   15   17 1
    21   15   36 1
    22   16   21 1
    23   17   18 1
    24   17   19 1
    25   17   37 1
    26   18   38 1
    27   19   20 1
    28   19   21 1
    29   19   39 1
    30   20   40 1
    31   21   22 1
    32   21   41 1
    33   22   23 ar
    34   22   31 ar
    35   23   24 ar
    36   23   42 1
    37   24   25 ar
    38   24   46 1
    39   25   26 ar
    40   25   31 ar
    41   26   27 2
    42   26   28 ar
    43   27   43 1
    44   28   29 ar
    45   28   45 1
    46   29   30 ar
    47   29   44 1
    48   30   31 ar
@<TRIPOS>SUBSTRUCTURE
     1 ATP         1 GROUP 0 A     ****
@<TRIPOS>MOLECULE
[[[3,4-dihydroxy-5-(6-imino-7,8-dihydro-1~{H}-purin-8-ylium-9-yl)tetrahydrofuran-2-yl]methoxy-hydroxy-phosphoryl]oxy-oxido-phosphoryl] hydrogen phosphate
   46    48     1     0     0
SMALL
USER_CHARGES

@<TRIPOS>ATOM
      1 PG         -0.3998    3.0852   -5.4149 P.3       1 ATP         1.5644
      2 O1G        -1.6835    3.6401   -4.8390 O.co2     1 ATP        -0.8581
      3 O2G         0.1713    3.6272   -6.7063 O.co2     1 ATP        -0.8581
      4 O3G         0.7576    3.1565   -4.2652 O.3       1 ATP        -0.7962
      5 PB          0.5846    0.3423   -5.9343 P.3       1 ATP         1.6830
      6 O1B        -0.0132   -1.0306   -5.7212 O.co2     1 ATP        -0.8633
      7 O2B         1.2031    0.7265   -7.2601 O.co2     1 ATP        -0.8633
      8 O3B        -0.5294    1.4640   -5.5311 O.3       1 ATP        -0.8097
      9 PA          3.0915   -0.0732   -4.4165 P.3       1 ATP         1.7610
     10 O1A         4.2296    0.4201   -5.2621 O.2       1 ATP        -0.8554
     11 O2A         2.7765   -1.6519   -4.5791 O.3       1 ATP        -0.8102
     12 O3A         1.6695    0.6231   -4.7478 O.3       1 ATP        -0.7693
     13 O5'         3.2903    0.1346   -2.8241 O.3       1 ATP        -0.5757
     14 C5'         2.2816   -0.2918   -1.9206 C.3       1 ATP         0.1911
     15 C4'         2.7248    0.0226   -0.4980 C.3       1 ATP         0.1218
     16 O4'         2.4697    1.4219   -0.2462 O.3       1 ATP        -0.4138
     17 C3'         1.9404   -0.7419    0.5596 C.3       1 ATP         0.1338
     18 O3'         2.7418   -0.8086    1.7389 O.3       1 ATP        -0.5756
     19 C2'         0.7477    0.1630    0.7858 C.3       1 ATP         0.0673
     20 O2'         0.1373   -0.0577    2.0407 O.3       1 ATP        -0.5671
     21 C1'         1.3733    1.5427    0.6747 C.3       1 ATP         0.3795
     22 N9          0.4520    2.5240    0.1767 N.pl3     1 ATP        -0.4175
     23 C8          0.5691    3.2215   -0.9485 C.ar      1 ATP         0.2552
     24 N7         -0.4499    4.0551   -1.1342 N.pl3     1 ATP        -0.4731
     25 C5         -1.2618    3.8674   -0.0512 C.ar      1 ATP        -0.1295
     26 C6         -2.5420    4.5007    0.3120 C.ar      1 ATP         0.7196
     27 N6         -3.0874    5.3993   -0.4432 N.2       1 ATP        -0.8094
     28 N1         -3.0494    4.0205    1.5133 N.pl3     1 ATP        -0.8312
     29 C2         -2.3933    3.0527    2.2567 C.ar      1 ATP         0.6744
     30 N3         -1.2611    2.4796    1.9536 N.2       1 ATP        -0.5937
     31 C4         -0.7334    2.9358    0.7669 C.ar      1 ATP         0.2810
     32 HOG3        1.6560    2.8304   -4.4866 H         1 ATP         0.4152
     33 HOA2        3.4791   -2.3005   -4.3603 H         1 ATP         0.4571
     34 H5'1        1.3514    0.2330   -2.1577 H         1 ATP         0.0465
     35 H5'2        2.1280   -1.3678   -2.0460 H         1 ATP         0.0465
     36 H4'         3.8044   -0.1397   -0.4040 H         1 ATP         0.1379
     37 H3'         1.6764   -1.7639    0.2728 H         1 ATP         0.1317
     38 HO3'        2.2232   -1.2979    2.3953 H         1 ATP         0.4175
     39 H2'        -0.0011    0.0027    0.0003 H         1 ATP         0.0669
     40 HO2'       -0.1563   -0.9855    2.0596 H         1 ATP         0.4064
     41 H1'         1.7826    1.9024    1.6451 H         1 ATP         0.1285
     42 H8          1.3912    3.1285   -1.6365 H         1 ATP         0.2954
     43 HN62       -3.9637    5.7084   -0.0142 H         1 ATP         0.4226
     44 H2         -2.9317    2.7866    3.1796 H         1 ATP         0.0826
     45 H45        -3.9307    4.3923    1.8559 H         1 ATP         0.4581
     46 H46        -0.5835    4.6857   -1.9122 H         1 ATP         0.5252
@<TRIPOS>BOND
     1    1    2 2
     2    1    3 1
     3    1    4 1
     4    1    8 1
     5    4   32 1
     6    5    6 2
     7    5    7 1
     8    5    8 1
     9    5   12 1
    10    9   10 2
    11    9   11 1
    12    9   12 1
    13    9   13 1
    14   11   33 1
    15   13   14 1
    16   14   15 1
    17   14   34 1
    18   14   35 1
    19   15   16 1
    20   15   17 1
    21   15   36 1
    22   16   21 1
    23   17   18 1
    24   17   19 1
    25   17   37 1
    26   18   38 1
    27   19   20 1
    28   19   21 1
    29   19   39 1
    30   20   40 1
    31   21   22 1
    32   21   41 1
    33   22   23 ar
    34   22   31 ar
    35   23   24 ar
    36   23   42 1
    37   24   25 ar
    38   24   46 1
    39   25   26 ar
    40   25   31 ar
    41   26   27 2
    42   26   28 ar
    43   27   43 1
    44   28   29 ar
    45   28   45 1
    46   29   30 ar
    47   29   44 1
    48   30   31 ar
@<TRIPOS>SUBSTRUCTURE
     1 ATP         1 GROUP 0 A     ****
@<TRIPOS>MOLECULE
[[[3,4-dihydroxy-5-(6-imino-7,8-dihydro-1~{H}-purin-8-ylium-9-yl)tetrahydrofuran-2-yl]methoxy-hydroxy-phosphoryl]oxy-oxido-phosphoryl] hydrogen phosphate
   46    48     1     0     0
SMALL
USER_CHARGES

@<TRIPOS>ATOM
      1 PG          7.0274   -1.1688   -6.5928 P.3       1 ATP         1.5644
      2 O1G         6.2402   -0.6817   -7.7889 O.co2     1 ATP        -0.8581
      3 O2G         7.7985   -2.4688   -6.6465 O.co2     1 ATP        -0.8581
      4 O3G         8.0445    0.0190   -6.1229 O.3       1 ATP        -0.7962
      5 PB          6.3912   -1.4697   -3.7176 P.3       1 ATP         1.6830
      6 O1B         6.8064   -2.9164   -3.5682 O.co2     1 ATP        -0.8633
      7 O2B         7.2656   -0.3497   -3.1992 O.co2     1 ATP        -0.8633
      8 O3B         6.0504   -1.1848   -5.2874 O.3       1 ATP        -0.8097
      9 PA          3.5156   -2.0921   -3.3934 P.3       1 ATP         1.7610
     10 O1A         3.6877   -3.5728   -3.5714 O.2       1 ATP        -0.8554
     11 O2A         2.9211   -1.3302   -4.6911 O.3       1 ATP        -0.8102
     12 O3A         4.8921   -1.2960   -3.0962 O.3       1 ATP        -0.7693
     13 O5'         2.5245   -1.6648   -2.1878 O.3       1 ATP        -0.5757
     14 C5'         2.2816   -0.2918   -1.9206 C.3       1 ATP         0.1911
     15 C4'         2.7248    0.0226   -0.4980 C.3       1 ATP         0.1218
     16 O4'         2.4697    1.4219   -0.2462 O.3       1 ATP        -0.4138
     17 C3'         1.9404   -0.7419    0.5596 C.3       1 ATP         0.1338
     18 O3'         2.7418   -0.8086    1.7389 O.3       1 ATP        -0.5756
     19 C2'         0.7477    0.1630    0.7858 C.3       1 ATP         0.0673
     20 O2'         0.1373   -0.0577    2.0407 O.3       1 ATP        -0.5671
     21 C1'         1.3733    1.5427    0.6747 C.3       1 ATP         0.3795
     22 N9          0.4520    2.5240    0.1767 N.pl3     1 ATP        -0.4175
     23 C8          0.2216    2.8192   -1.0985 C.ar      1 ATP         0.2552
     24 N7         -0.6906    3.7763   -1.2384 N.pl3     1 ATP        -0.4731
     25 C5         -1.0575    4.1037    0.0366 C.ar      1 ATP        -0.1295
     26 C6         -2.0291    5.0943    0.5330 C.ar      1 ATP         0.7196
     27 N6         -2.7093    5.8371   -0.2800 N.2       1 ATP        -0.8094
     28 N1         -2.1051    5.1136    1.9204 N.pl3     1 ATP        -0.8312
     29 C2         -1.3354    4.2774    2.7129 C.ar      1 ATP         0.6744
     30 N3         -0.4707    3.3945    2.2944 N.2       1 ATP        -0.5937
     31 C4         -0.3734    3.3525    0.9220 C.ar      1 ATP         0.2810
     32 HOG3        8.6289   -0.1448   -5.3521 H         1 ATP         0.4152
     33 HOA2        2.0387   -1.5908   -5.0310 H         1 ATP         0.4571
     34 H5'1        2.8432    0.3119   -2.6398 H         1 ATP         0.0465
     35 H5'2        1.2128   -0.0927   -2.0428 H         1 ATP         0.0465
     36 H4'         3.8044   -0.1397   -0.4040 H         1 ATP         0.1379
     37 H3'         1.6764   -1.7639    0.2728 H         1 ATP         0.1317
     38 HO3'        2.2232   -1.2979    2.3953 H         1 ATP         0.4175
     39 H2'        -0.0011    0.0027    0.0003 H         1 ATP         0.0669
     40 HO2'       -0.6141    0.5574    2.1082 H         1 ATP         0.4064
     41 H1'         1.7826    1.9024    1.6451 H         1 ATP         0.1285
     42 H8          0.7125    2.3429   -1.9292 H         1 ATP         0.2954
     43 HN62       -3.3217    6.4517    0.2629 H         1 ATP         0.4226
     44 H2         -1.5188    4.4223    3.7890 H         1 ATP         0.0826
     45 H45        -2.7470    5.7626    2.3665 H         1 ATP         0.4581
     46 H46        -1.0305    4.1680   -2.1054 H         1 ATP         0.5252
@<TRIPOS>BOND
     1    1    2 2
     2    1    3 1
     3    1    4 1
     4    1    8 1
     5    4   32 1
     6    5    6 2
     7    5    7 1
     8    5    8 1
     9    5   12 1
    10    9   10 2
    11    9   11 1
    12    9   12 1
    13    9   13 1
    14   11   33 1
    15   13   14 1
    16   14   15 1
    17   14   34 1
    18   14   35 1
    19   15   16 1
    20   15   17 1
    21   15   36 1
    22   16   21 1
    23   17   18 1
    24   17   19 1
    25   17   37 1
    26   18   38 1
    27   19   20 1
    28   19   21 1
    29   19   39 1
    30   20   40 1
    31   21   22 1
    32   21   41 1
    33   22   23 ar
    34   22   31 ar
    35   23   24 ar
    36   23   42 1
    37   24   25 ar
    38   24   46 1
    39   25   26 ar
    40   25   31 ar
    41   26   27 2
    42   26   28 ar
    43   27   43 1
    44   28   29 ar
    45   28   45 1
    46   29   30 ar
    47   29   44 1
    48   30   31 ar
@<TRIPOS>SUBSTRUCTURE
     1 ATP         1 GROUP 0 A     ****
@<TRIPOS>MOLECULE
[[[3,4-dihydroxy-5-(6-imino-7,8-dihydro-1~{H}-purin-8-ylium-9-yl)tetrahydrofuran-2-yl]methoxy-hydroxy-phosphoryl]oxy-oxido-phosphoryl] hydrogen phosphate
   46    48     1     0     0
SMALL
USER_CHARGES

@<TRIPOS>ATOM
      1 PG          7.5874   -0.4558   -1.4174 P.3       1 ATP         1.5644
      2 O1G         8.6052   -1.5743   -1.3973 O.co2     1 ATP        -0.8581
      3 O2G         6.3657   -0.5002   -0.5269 O.co2     1 ATP        -0.8581
      4 O3G         8.3648    0.9572   -1.1621 O.3       1 ATP        -0.7962
      5 PB          6.2623   -1.1522   -3.9711 P.3       1 ATP         1.6830
      6 O1B         5.9495   -0.3653   -5.2243 O.co2     1 ATP        -0.8633
      7 O2B         6.9353   -2.5047   -4.0469 O.co2     1 ATP        -0.8633
      8 O3B         7.1133   -0.1995   -2.9563 O.3       1 ATP        -0.8097
      9 PA          3.5156   -2.0921   -3.3934 P.3       1 ATP         1.7610
     10 O1A         3.6877   -3.5728   -3.5714 O.2       1 ATP        -0.8554
     11 O2A         2.9211   -1.3302   -4.6911 O.3       1 ATP        -0.8102
     12 O3A         4.8921   -1.2960   -3.0962 O.3       1 ATP        -0.7693
     13 O5'         2.5245   -1.6648   -2.1878 O.3       1 ATP        -0.5757
     14 C5'         2.2816   -0.2918   -1.9206 C.3       1 ATP         0.1911
     15 C4'         2.7248    0.0226   -0.4980 C.3       1 ATP         0.1218
     16 O4'         2.4697    1.4219   -0.2462 O.3       1 ATP        -0.4138
     17 C3'         1.9404   -0.7419    0.5596 C.3       1 ATP         0.1338
     18 O3'         2.7418   -0.8086    1.7389 O.3       1 ATP        -0.5756
     19 C2'         0.7477    0.1630    0.7858 C.3       1 ATP         0.0673
     20 O2'         0.1373   -0.0577    2.0407 O.3       1 ATP        -0.5671
     21 C1'         1.3733    1.5427    0.6747 C.3       1 ATP         0.3795
     22 N9          0.4520    2.5240    0.1767 N.pl3     1 ATP        -0.4175
     23 C8         -0.2004    2.4829   -0.9804 C.ar      1 ATP         0.2552
     24 N7         -0.9830    3.5431   -1.1568 N.pl3     1 ATP        -0.4731
     25 C5         -0.8095    4.3012   -0.0331 C.ar      1 ATP        -0.1295
     26 C6         -1.4065    5.5904    0.3585 C.ar      1 ATP         0.7196
     27 N6         -2.2501    6.2030   -0.4084 N.2       1 ATP        -0.8094
     28 N1         -0.9585    6.0272    1.5994 N.pl3     1 ATP        -0.8312
     29 C2         -0.0508    5.3009    2.3532 C.ar      1 ATP         0.6744
     30 N3          0.4890    4.1592    2.0257 N.2       1 ATP        -0.5937
     31 C4          0.0637    3.7006    0.7995 C.ar      1 ATP         0.2810
     32 HOG3        7.8370    1.7840   -1.1464 H         1 ATP         0.4152
     33 HOA2        3.4207   -1.3697   -5.5343 H         1 ATP         0.4571
     34 H5'1        2.8432    0.3119   -2.6398 H         1 ATP         0.0465
     35 H5'2        1.2128   -0.0927   -2.0428 H         1 ATP         0.0465
     36 H4'         3.8044   -0.1397   -0.4040 H         1 ATP         0.1379
     37 H3'         1.6764   -1.7639    0.2728 H         1 ATP         0.1317
     38 HO3'        2.2232   -1.2979    2.3953 H         1 ATP         0.4175
     39 H2'        -0.0011    0.0027    0.0003 H         1 ATP         0.0669
     40 HO2'       -0.1563   -0.9855    2.0596 H         1 ATP         0.4064
     41 H1'         1.7826    1.9024    1.6451 H         1 ATP         0.1285
     42 H8         -0.1116    1.6863   -1.6984 H         1 ATP         0.2954
     43 HN62       -2.5420    7.0730    0.0447 H         1 ATP         0.4226
     44 H2          0.1969    5.7893    3.3086 H         1 ATP         0.0826
     45 H45        -1.3097    6.9080    1.9642 H         1 ATP         0.4581
     46 H46        -1.5735    3.7351   -1.9538 H         1 ATP         0.5252
@<TRIPOS>BOND
     1    1    2 2
     2    1    3 1
     3    1    4 1
     4    1    8 1
     5    4   32 1
     6    5    6 2
     7    5    7 1
     8    5    8 1
     9    5   12 1
    10    9   10 2
    11    9   11 1
    12    9   12 1
    13    9   13 1
    14   11   33 1
    15   13   14 1
    16   14   15 1
    17   14   34 1
    18   14   35 1
    19   15   16 1
    20   15   17 1
    21   15   36 1
    22   16   21 1
    23   17   18 1
    24   17   19 1
    25   17   37 1
    26   18   38 1
    27   19   20 1
    28   19   21 1
    29   19   39 1
    30   20   40 1
    31   21   22 1
    32   21   41 1
    33   22   23 ar
    34   22   31 ar
    35   23   24 ar
    36   23   42 1
    37   24   25 ar
    38   24   46 1
    39   25   26 ar
    40   25   31 ar
    41   26   27 2
    42   26   28 ar
    43   27   43 1
    44   28   29 ar
    45   28   45 1
    46   29   30 ar
    47   29   44 1
    48   30   31 ar
@<TRIPOS>SUBSTRUCTURE
     1 ATP         1 GROUP 0 A     ****
@<TRIPOS>MOLECULE
[[[3,4-dihydroxy-5-(6-imino-7,8-dihydro-1~{H}-purin-8-ylium-9-yl)tetrahydrofuran-2-yl]methoxy-hydroxy-phosphoryl]oxy-oxido-phosphoryl] hydrogen phosphate
   46    48     1     0     0
SMALL
USER_CHARGES

@<TRIPOS>ATOM
      1 PG          6.7193   -3.6937   -1.7919 P.3       1 ATP         1.5644
      2 O1G         7.1909   -5.1247   -1.9231 O.co2     1 ATP        -0.8581
      3 O2G         5.4395   -3.3610   -1.0578 O.co2     1 ATP        -0.8581
      4 O3G         7.9307   -2.8052   -1.1521 O.3       1 ATP        -0.7962
      5 PB          6.3912   -1.4697   -3.7176 P.3       1 ATP         1.6830
      6 O1B         7.3337   -0.5670   -2.9531 O.co2     1 ATP        -0.8633
      7 O2B         6.3028   -1.4067   -5.2262 O.co2     1 ATP        -0.8633
      8 O3B         6.6734   -3.0139   -3.2732 O.3       1 ATP        -0.8097
      9 PA          3.5156   -2.0921   -3.3934 P.3       1 ATP         1.7610
     10 O1A         3.6877   -3.5728   -3.5714 O.2       1 ATP        -0.8554
     11 O2A         2.9211   -1.3302   -4.6911 O.3       1 ATP        -0.8102
     12 O3A         4.8921   -1.2960   -3.0962 O.3       1 ATP        -0.7693
     13 O5'         2.5245   -1.6648   -2.1878 O.3       1 ATP        -0.5757
     14 C5'         2.2816   -0.2918   -1.9206 C.3       1 ATP         0.1911
     15 C4'         2.7248    0.0226   -0.4980 C.3       1 ATP         0.1218
     16 O4'         2.4697    1.4219   -0.2462 O.3       1 ATP        -0.4138
     17 C3'         1.9404   -0.7419    0.5596 C.3       1 ATP         0.1338
     18 O3'         2.7418   -0.8086    1.7389 O.3       1 ATP        -0.5756
     19 C2'         0.7477    0.1630    0.7858 C.3       1 ATP         0.0673
     20 O2'         0.1373   -0.0577    2.0407 O.3       1 ATP        -0.5671
     21 C1'         1.3733    1.5427    0.6747 C.3       1 ATP         0.3795
     22 N9          0.4520    2.5240    0.1767 N.pl3     1 ATP        -0.4175
     23 C8          0.2216    2.8192   -1.0985 C.ar      1 ATP         0.2552
     24 N7         -0.6906    3.7763   -1.2384 N.pl3     1 ATP        -0.4731
     25 C5         -1.0575    4.1037    0.0366 C.ar      1 ATP        -0.1295
     26 C6         -2.0291    5.0943    0.5330 C.ar      1 ATP         0.7196
     27 N6         -2.7093    5.8371   -0.2800 N.2       1 ATP        -0.8094
     28 N1         -2.1051    5.1136    1.9204 N.pl3     1 ATP        -0.8312
     29 C2         -1.3354    4.2774    2.7129 C.ar      1 ATP         0.6744
     30 N3         -0.4707    3.3945    2.2944 N.2       1 ATP        -0.5937
     31 C4         -0.3734    3.3525    0.9220 C.ar      1 ATP         0.2810
     32 HOG3        7.7789   -1.8475   -1.0035 H         1 ATP         0.4152
     33 HOA2        2.0387   -1.5908   -5.0310 H         1 ATP         0.4571
     34 H5'1        2.8432    0.3119   -2.6398 H         1 ATP         0.0465
     35 H5'2        1.2128   -0.0927   -2.0428 H         1 ATP         0.0465
     36 H4'         3.8044   -0.1397   -0.4040 H         1 ATP         0.1379
     37 H3'         1.6764   -1.7639    0.2728 H         1 ATP         0.1317
     38 HO3'        2.2232   -1.2979    2.3953 H         1 ATP         0.4175
     39 H2'        -0.0011    0.0027    0.0003 H         1 ATP         0.0669
     40 HO2'       -0.6141    0.5574    2.1082 H         1 ATP         0.4064
     41 H1'         1.7826    1.9024    1.6451 H         1 ATP         0.1285
     42 H8          0.7125    2.3429   -1.9292 H         1 ATP         0.2954
     43 HN62       -3.3217    6.4517    0.2629 H         1 ATP         0.4226
     44 H2         -1.5188    4.4223    3.7890 H         1 ATP         0.0826
     45 H45        -2.7470    5.7626    2.3665 H         1 ATP         0.4581
     46 H46        -1.0305    4.1680   -2.1054 H         1 ATP         0.5252
@<TRIPOS>BOND
     1    1    2 2
     2    1    3 1
     3    1    4 1
     4    1    8 1
     5    4   32 1
     6    5    6 2
     7    5    7 1
     8    5    8 1
     9    5   12 1
    10    9   10 2
    11    9   11 1
    12    9   12 1
    13    9   13 1
    14   11   33 1
    15   13   14 1
    16   14   15 1
    17   14   34 1
    18   14   35 1
    19   15   16 1
    20   15   17 1
    21   15   36 1
    22   16   21 1
    23   17   18 1
    24   17   19 1
    25   17   37 1
    26   18   38 1
    27   19   20 1
    28   19   21 1
    29   19   39 1
    30   20   40 1
    31   21   22 1
    32   21   41 1
    33   22   23 ar
    34   22   31 ar
    35   23   24 ar
    36   23   42 1
    37   24   25 ar
    38   24   46 1
    39   25   26 ar
    40   25   31 ar
    41   26   27 2
    42   26   28 ar
    43   27   43 1
    44   28   29 ar
    45   28   45 1
    46   29   30 ar
    47   29   44 1
    48   30   31 ar
@<TRIPOS>SUBSTRUCTURE
     1 ATP         1 GROUP 0 A     ****
@<TRIPOS>MOLECULE
[[[3,4-dihydroxy-5-(6-imino-7,8-dihydro-1~{H}-purin-8-ylium-9-yl)tetrahydrofuran-2-yl]methoxy-hydroxy-phosphoryl]oxy-oxido-phosphoryl] hydrogen phosphate
   46    48     1     0     0
SMALL
USER_CHARGES

@<TRIPOS>ATOM
      1 PG         -6.7488   -7.6744    1.6081 P.3       1 ATP         1.5644
      2 O1G        -6.4235   -9.0220    1.0033 O.co2     1 ATP        -0.8581
      3 O2G        -7.8642   -6.8198    1.0485 O.co2     1 ATP        -0.8581
      4 O3G        -6.9996   -7.8717    3.2094 O.3       1 ATP        -0.7962
      5 PB         -5.1083   -5.3313    2.3701 P.3       1 ATP         1.6830
      6 O1B        -5.8895   -4.2814    1.6117 O.co2     1 ATP        -0.8633
      7 O2B        -5.2419   -5.4707    3.8702 O.co2     1 ATP        -0.8633
      8 O3B        -5.3845   -6.7846    1.6820 O.3       1 ATP        -0.8097
      9 PA         -2.2443   -6.0789    2.3728 P.3       1 ATP         1.7610
     10 O1A        -2.3284   -7.4946    1.8805 O.2       1 ATP        -0.8554
     11 O2A        -2.1507   -5.9380    3.9819 O.3       1 ATP        -0.8102
     12 O3A        -3.5279   -5.1691    1.9965 O.3       1 ATP        -0.7693
     13 O5'        -0.9724   -5.2440    1.8220 O.3       1 ATP        -0.5757
     14 C5'        -0.7840   -3.8935    2.2172 C.3       1 ATP         0.1911
     15 C4'        -0.0724   -3.1466    1.1027 C.3       1 ATP         0.1218
     16 O4'        -0.8674   -3.1929   -0.0945 O.3       1 ATP        -0.4138
     17 C3'         0.1338   -1.6715    1.4027 C.3       1 ATP         0.1338
     18 O3'         1.2893   -1.4445    2.1808 O.3       1 ATP        -0.5756
     19 C2'         0.2158   -1.0724    0.0128 C.3       1 ATP         0.0673
     20 O2'         1.5141   -1.2448   -0.5513 O.3       1 ATP        -0.5671
     21 C1'        -0.7897   -1.9176   -0.7583 C.3       1 ATP         0.3795
     22 N9         -2.1040   -1.3333   -0.7704 N.pl3     1 ATP        -0.4175
     23 C8         -3.0590   -1.5123    0.1363 C.ar      1 ATP         0.2552
     24 N7         -4.1655   -0.8354   -0.1554 N.pl3     1 ATP        -0.4731
     25 C5         -3.8852   -0.1874   -1.3253 C.ar      1 ATP        -0.1295
     26 C6         -4.7113    0.7160   -2.1458 C.ar      1 ATP         0.7196
     27 N6         -5.9213    1.0209   -1.8021 N.2       1 ATP        -0.8094
     28 N1         -4.0411    1.1673   -3.2764 N.pl3     1 ATP        -0.8312
     29 C2         -2.7403    0.7865   -3.5638 C.ar      1 ATP         0.6744
     30 N3         -1.9921   -0.0108   -2.8519 N.2       1 ATP        -0.5937
     31 C4         -2.6302   -0.4747   -1.7239 C.ar      1 ATP         0.2810
     32 HOG3       -7.2226   -7.0824    3.7477 H         1 ATP         0.4152
     33 HOA2       -1.3965   -6.3540    4.4512 H         1 ATP         0.4571
     34 H5'1       -1.7618   -3.4448    2.4164 H         1 ATP         0.0465
     35 H5'2       -0.1874   -3.8744    3.1341 H         1 ATP         0.0465
     36 H4'         0.8874   -3.6466    0.8805 H         1 ATP         0.1379
     37 H3'        -0.7376   -1.2333    1.9867 H         1 ATP         0.1317
     38 HO3'        1.3408   -0.4870    2.3219 H         1 ATP         0.4175
     39 H2'        -0.0384   -0.0310    0.0096 H         1 ATP         0.0669
     40 HO2'        2.1463   -0.7958    0.0370 H         1 ATP         0.4064
     41 H1'        -0.4769   -2.1002   -1.8093 H         1 ATP         0.1285
     42 H8         -2.9569   -2.1323    1.0098 H         1 ATP         0.2954
     43 HN62       -6.3169    1.6552   -2.5012 H         1 ATP         0.4226
     44 H2         -2.3612    1.2343   -4.4957 H         1 ATP         0.0826
     45 H45        -4.5223    1.7976   -3.9117 H         1 ATP         0.4581
     46 H46        -5.0218   -0.8132    0.3804 H         1 ATP         0.5252
@<TRIPOS>BOND
     1    1    2 2
     2    1    3 1
     3    1    4 1
     4    1    8 1
     5    4   32 1
     6    5    6 2
     7    5    7 1
     8    5    8 1
     9    5   12 1
    10    9   10 2
    11    9   11 1
    12    9   12 1
    13    9   13 1
    14   11   33 1
    15   13   14 1
    16   14   15 1
    17   14   34 1
    18   14   35 1
    19   15   16 1
    20   15   17 1
    21   15   36 1
    22   16   21 1
    23   17   18 1
    24   17   19 1
    25   17   37 1
    26   18   38 1
    27   19   20 1
    28   19   21 1
    29   19   39 1
    30   20   40 1
    31   21   22 1
    32   21   41 1
    33   22   23 ar
    34   22   31 ar
    35   23   24 ar
    36   23   42 1
    37   24   25 ar
    38   24   46 1
    39   25   26 ar
    40   25   31 ar
    41   26   27 2
    42   26   28 ar
    43   27   43 1
    44   28   29 ar
    45   28   45 1
    46   29   30 ar
    47   29   44 1
    48   30   31 ar
@<TRIPOS>SUBSTRUCTURE
     1 ATP         1 GROUP 0 A     ****
@<TRIPOS>MOLECULE
[[[3,4-dihydroxy-5-(6-imino-7,8-dihydro-1~{H}-purin-8-ylium-9-yl)tetrahydrofuran-2-yl]methoxy-hydroxy-phosphoryl]oxy-oxido-phosphoryl] hydrogen phosphate
   46    48     1     0     0
SMALL
USER_CHARGES

@<TRIPOS>ATOM
      1 PG         -3.8589   -6.2786    7.1547 P.3       1 ATP         1.5644
      2 O1G        -4.2151   -7.7435    7.2767 O.co2     1 ATP        -0.8581
      3 O2G        -4.8181   -5.2041    7.6161 O.co2     1 ATP        -0.8581
      4 O3G        -2.4168   -6.0336    7.8803 O.3       1 ATP        -0.7962
      5 PB         -4.2899   -5.9927    4.2401 P.3       1 ATP         1.6830
      6 O1B        -4.7030   -7.4195    3.9551 O.co2     1 ATP        -0.8633
      7 O2B        -5.3135   -4.8806    4.2957 O.co2     1 ATP        -0.8633
      8 O3B        -3.4147   -5.9686    5.6168 O.3       1 ATP        -0.8097
      9 PA         -1.7101   -6.2838    2.8184 P.3       1 ATP         1.7610
     10 O1A        -1.8467   -7.6794    2.2823 O.2       1 ATP        -0.8554
     11 O2A        -0.8728   -6.1797    4.1989 O.3       1 ATP        -0.8102
     12 O3A        -3.1168   -5.5743    3.1854 O.3       1 ATP        -0.7693
     13 O5'        -0.9724   -5.2440    1.8220 O.3       1 ATP        -0.5757
     14 C5'        -0.7840   -3.8935    2.2172 C.3       1 ATP         0.1911
     15 C4'        -0.0724   -3.1466    1.1027 C.3       1 ATP         0.1218
     16 O4'        -0.8674   -3.1929   -0.0945 O.3       1 ATP        -0.4138
     17 C3'         0.1338   -1.6715    1.4027 C.3       1 ATP         0.1338
     18 O3'         1.2893   -1.4445    2.1808 O.3       1 ATP        -0.5756
     19 C2'         0.2158   -1.0724    0.0128 C.3       1 ATP         0.0673
     20 O2'         1.5141   -1.2448   -0.5513 O.3       1 ATP        -0.5671
     21 C1'        -0.7897   -1.9176   -0.7583 C.3       1 ATP         0.3795
     22 N9         -2.1040   -1.3333   -0.7704 N.pl3     1 ATP        -0.4175
     23 C8         -3.0590   -1.5123    0.1363 C.ar      1 ATP         0.2552
     24 N7         -4.1655   -0.8354   -0.1554 N.pl3     1 ATP        -0.4731
     25 C5         -3.8852   -0.1874   -1.3253 C.ar      1 ATP        -0.1295
     26 C6         -4.7113    0.7160   -2.1458 C.ar      1 ATP         0.7196
     27 N6         -5.9213    1.0209   -1.8021 N.2       1 ATP        -0.8094
     28 N1         -4.0411    1.1673   -3.2764 N.pl3     1 ATP        -0.8312
     29 C2         -2.7403    0.7865   -3.5638 C.ar      1 ATP         0.6744
     30 N3         -1.9921   -0.0108   -2.8519 N.2       1 ATP        -0.5937
     31 C4         -2.6302   -0.4747   -1.7239 C.ar      1 ATP         0.2810
     32 HOG3       -2.0455   -5.1256    7.8859 H         1 ATP         0.4152
     33 HOA2        0.0586   -6.4873    4.2129 H         1 ATP         0.4571
     34 H5'1       -1.7618   -3.4448    2.4164 H         1 ATP         0.0465
     35 H5'2       -0.1874   -3.8744    3.1341 H         1 ATP         0.0465
     36 H4'         0.8874   -3.6466    0.8805 H         1 ATP         0.1379
     37 H3'        -0.7376   -1.2333    1.9867 H         1 ATP         0.1317
     38 HO3'        1.3408   -0.4870    2.3219 H         1 ATP         0.4175
     39 H2'        -0.0384   -0.0310    0.0096 H         1 ATP         0.0669
     40 HO2'        2.1463   -0.7958    0.0370 H         1 ATP         0.4064
     41 H1'        -0.4769   -2.1002   -1.8093 H         1 ATP         0.1285
     42 H8         -2.9569   -2.1323    1.0098 H         1 ATP         0.2954
     43 HN62       -6.3169    1.6552   -2.5012 H         1 ATP         0.4226
     44 H2         -2.3612    1.2343   -4.4957 H         1 ATP         0.0826
     45 H45        -4.5223    1.7976   -3.9117 H         1 ATP         0.4581
     46 H46        -5.0218   -0.8132    0.3804 H         1 ATP         0.5252
@<TRIPOS>BOND
     1    1    2 2
     2    1    3 1
     3    1    4 1
     4    1    8 1
     5    4   32 1
     6    5    6 2
     7    5    7 1
     8    5    8 1
     9    5   12 1
    10    9   10 2
    11    9   11 1
    12    9   12 1
    13    9   13 1
    14   11   33 1
    15   13   14 1
    16   14   15 1
    17   14   34 1
    18   14   35 1
    19   15   16 1
    20   15   17 1
    21   15   36 1
    22   16   21 1
    23   17   18 1
    24   17   19 1
    25   17   37 1
    26   18   38 1
    27   19   20 1
    28   19   21 1
    29   19   39 1
    30   20   40 1
    31   21   22 1
    32   21   41 1
    33   22   23 ar
    34   22   31 ar
    35   23   24 ar
    36   23   42 1
    37   24   25 ar
    38   24   46 1
    39   25   26 ar
    40   25   31 ar
    41   26   27 2
    42   26   28 ar
    43   27   43 1
    44   28   29 ar
    45   28   45 1
    46   29   30 ar
    47   29   44 1
    48   30   31 ar
@<TRIPOS>SUBSTRUCTURE
     1 ATP         1 GROUP 0 A     ****
@<TRIPOS>MOLECULE
[[[3,4-dihydroxy-5-(6-imino-7,8-dihydro-1~{H}-purin-8-ylium-9-yl)tetrahydrofuran-2-yl]methoxy-hydroxy-phosphoryl]oxy-oxido-phosphoryl] hydrogen phosphate
   46    48     1     0     0
SMALL
USER_CHARGES

@<TRIPOS>ATOM
      1 PG          7.6989    0.2486   -3.8206 P.3       1 ATP         1.5644
      2 O1G         6.5580    0.7222   -4.6933 O.co2     1 ATP        -0.8581
      3 O2G         8.7418   -0.7074   -4.3551 O.co2     1 ATP        -0.8581
      4 O3G         8.4596    1.5566   -3.2069 O.3       1 ATP        -0.7962
      5 PB          6.1786   -1.6806   -2.1686 P.3       1 ATP         1.6830
      6 O1B         6.8738   -2.8739   -2.7855 O.co2     1 ATP        -0.8633
      7 O2B         5.7471   -1.6928   -0.7190 O.co2     1 ATP        -0.8633
      8 O3B         7.0891   -0.3529   -2.4331 O.3       1 ATP        -0.8097
      9 PA          3.5156   -2.0921   -3.3934 P.3       1 ATP         1.7610
     10 O1A         3.6877   -3.5728   -3.5714 O.2       1 ATP        -0.8554
     11 O2A         2.9211   -1.3302   -4.6911 O.3       1 ATP        -0.8102
     12 O3A         4.8921   -1.2960   -3.0962 O.3       1 ATP        -0.7693
     13 O5'         2.5245   -1.6648   -2.1878 O.3       1 ATP        -0.5757
     14 C5'         2.2816   -0.2918   -1.9206 C.3       1 ATP         0.1911
     15 C4'         2.7248    0.0226   -0.4980 C.3       1 ATP         0.1218
     16 O4'         2.4697    1.4219   -0.2462 O.3       1 ATP        -0.4138
     17 C3'         1.9404   -0.7419    0.5596 C.3       1 ATP         0.1338
     18 O3'         2.7418   -0.8086    1.7389 O.3       1 ATP        -0.5756
     19 C2'         0.7477    0.1630    0.7858 C.3       1 ATP         0.0673
     20 O2'         0.1373   -0.0577    2.0407 O.3       1 ATP        -0.5671
     21 C1'         1.3733    1.5427    0.6747 C.3       1 ATP         0.3795
     22 N9          0.4520    2.5240    0.1767 N.pl3     1 ATP        -0.4175
     23 C8          0.2216    2.8192   -1.0985 C.ar      1 ATP         0.2552
     24 N7         -0.6906    3.7763   -1.2384 N.pl3     1 ATP        -0.4731
     25 C5         -1.0575    4.1037    0.0366 C.ar      1 ATP        -0.1295
     26 C6         -2.0291    5.0943    0.5330 C.ar      1 ATP         0.7196
     27 N6         -2.7093    5.8371   -0.2800 N.2       1 ATP        -0.8094
     28 N1         -2.1051    5.1136    1.9204 N.pl3     1 ATP        -0.8312
     29 C2         -1.3354    4.2774    2.7129 C.ar      1 ATP         0.6744
     30 N3         -0.4707    3.3945    2.2944 N.2       1 ATP        -0.5937
     31 C4         -0.3734    3.3525    0.9220 C.ar      1 ATP         0.2810
     32 HOG3        9.2289    1.4141   -2.6150 H         1 ATP         0.4152
     33 HOA2        3.4207   -1.3697   -5.5343 H         1 ATP         0.4571
     34 H5'1        2.8432    0.3119   -2.6398 H         1 ATP         0.0465
     35 H5'2        1.2128   -0.0927   -2.0428 H         1 ATP         0.0465
     36 H4'         3.8044   -0.1397   -0.4040 H         1 ATP         0.1379
     37 H3'         1.6764   -1.7639    0.2728 H         1 ATP         0.1317
     38 HO3'        3.5554   -1.2733    1.4914 H         1 ATP         0.4175
     39 H2'        -0.0011    0.0027    0.0003 H         1 ATP         0.0669
     40 HO2'       -0.1563   -0.9855    2.0596 H         1 ATP         0.4064
     41 H1'         1.7826    1.9024    1.6451 H         1 ATP         0.1285
     42 H8          0.7125    2.3429   -1.9292 H         1 ATP         0.2954
     43 HN62       -3.3217    6.4517    0.2629 H         1 ATP         0.4226
     44 H2         -1.5188    4.4223    3.7890 H         1 ATP         0.0826
     45 H45        -2.7470    5.7626    2.3665 H         1 ATP         0.4581
     46 H46        -1.0305    4.1680   -2.1054 H         1 ATP         0.5252
@<TRIPOS>BOND
     1    1    2 2
     2    1    3 1
     3    1    4 1
     4    1    8 1
     5    4   32 1
     6    5    6 2
     7    5    7 1
     8    5    8 1
     9    5   12 1
    10    9   10 2
    11    9   11 1
    12    9   12 1
    13    9   13 1
    14   11   33 1
    15   13   14 1
    16   14   15 1
    17   14   34 1
    18   14   35 1
    19   15   16 1
    20   15   17 1
    21   15   36 1
    22   16   21 1
    23   17   18 1
    24   17   19 1
    25   17   37 1
    26   18   38 1
    27   19   20 1
    28   19   21 1
    29   19   39 1
    30   20   40 1
    31   21   22 1
    32   21   41 1
    33   22   23 ar
    34   22   31 ar
    35   23   24 ar
    36   23   42 1
    37   24   25 ar
    38   24   46 1
    39   25   26 ar
    40   25   31 ar
    41   26   27 2
    42   26   28 ar
    43   27   43 1
    44   28   29 ar
    45   28   45 1
    46   29   30 ar
    47   29   44 1
    48   30   31 ar
@<TRIPOS>SUBSTRUCTURE
     1 ATP         1 GROUP 0 A     ****
@<TRIPOS>MOLECULE
[[[3,4-dihydroxy-5-(6-imino-7,8-dihydro-1~{H}-purin-8-ylium-9-yl)tetrahydrofuran-2-yl]methoxy-hydroxy-phosphoryl]oxy-oxido-phosphoryl] hydrogen phosphate
   46    48     1     0     0
SMALL
USER_CHARGES

@<TRIPOS>ATOM
      1 PG         -0.1384   -9.0955    3.1935 P.3       1 ATP         1.5644
      2 O1G         0.7041   -9.8826    4.1724 O.co2     1 ATP        -0.8581
      3 O2G         0.4786   -8.0238    2.3227 O.co2     1 ATP        -0.8581
      4 O3G        -0.9373  -10.1478    2.2340 O.3       1 ATP        -0.7962
      5 PB         -1.4823   -7.3197    5.1436 P.3       1 ATP         1.6830
      6 O1B        -2.9327   -6.9843    5.4114 O.co2     1 ATP        -0.8633
      7 O2B        -0.5524   -7.7148    6.2692 O.co2     1 ATP        -0.8633
      8 O3B        -1.4178   -8.4655    3.9840 O.3       1 ATP        -0.8097
      9 PA         -0.4992   -4.5557    4.7496 P.3       1 ATP         1.7610
     10 O1A         0.4335   -4.4255    5.9187 O.2       1 ATP        -0.8554
     11 O2A        -1.9724   -3.9355    5.0008 O.3       1 ATP        -0.8102
     12 O3A        -0.8105   -6.0830    4.3171 O.3       1 ATP        -0.7693
     13 O5'         0.0118   -3.8395    3.3916 O.3       1 ATP        -0.5757
     14 C5'        -0.7840   -3.8935    2.2172 C.3       1 ATP         0.1911
     15 C4'        -0.0724   -3.1466    1.1027 C.3       1 ATP         0.1218
     16 O4'        -0.8674   -3.1929   -0.0945 O.3       1 ATP        -0.4138
     17 C3'         0.1338   -1.6715    1.4027 C.3       1 ATP         0.1338
     18 O3'         1.2893   -1.4445    2.1808 O.3       1 ATP        -0.5756
     19 C2'         0.2158   -1.0724    0.0128 C.3       1 ATP         0.0673
     20 O2'         1.5141   -1.2448   -0.5513 O.3       1 ATP        -0.5671
     21 C1'        -0.7897   -1.9176   -0.7583 C.3       1 ATP         0.3795
     22 N9         -2.1040   -1.3333   -0.7704 N.pl3     1 ATP        -0.4175
     23 C8         -3.0590   -1.5123    0.1363 C.ar      1 ATP         0.2552
     24 N7         -4.1655   -0.8354   -0.1554 N.pl3     1 ATP        -0.4731
     25 C5         -3.8852   -0.1874   -1.3253 C.ar      1 ATP        -0.1295
     26 C6         -4.7113    0.7160   -2.1458 C.ar      1 ATP         0.7196
     27 N6         -5.9213    1.0209   -1.8021 N.2       1 ATP        -0.8094
     28 N1         -4.0411    1.1673   -3.2764 N.pl3     1 ATP        -0.8312
     29 C2         -2.7403    0.7865   -3.5638 C.ar      1 ATP         0.6744
     30 N3         -1.9921   -0.0108   -2.8519 N.2       1 ATP        -0.5937
     31 C4         -2.6302   -0.4747   -1.7239 C.ar      1 ATP         0.2810
     32 HOG3       -1.5312   -9.7888    1.5406 H         1 ATP         0.4152
     33 HOA2       -2.0553   -2.9813    5.2126 H         1 ATP         0.4571
     34 H5'1       -0.9348   -4.9415    1.9415 H         1 ATP         0.0465
     35 H5'2       -1.7548   -3.4350    2.4278 H         1 ATP         0.0465
     36 H4'         0.8874   -3.6466    0.8805 H         1 ATP         0.1379
     37 H3'        -0.7376   -1.2333    1.9867 H         1 ATP         0.1317
     38 HO3'        1.1626   -1.9325    3.0084 H         1 ATP         0.4175
     39 H2'        -0.0384   -0.0310    0.0096 H         1 ATP         0.0669
     40 HO2'        2.1463   -0.7958    0.0370 H         1 ATP         0.4064
     41 H1'        -0.4769   -2.1002   -1.8093 H         1 ATP         0.1285
     42 H8         -2.9569   -2.1323    1.0098 H         1 ATP         0.2954
     43 HN62       -6.3169    1.6552   -2.5012 H         1 ATP         0.4226
     44 H2         -2.3612    1.2343   -4.4957 H         1 ATP         0.0826
     45 H45        -4.5223    1.7976   -3.9117 H         1 ATP         0.4581
     46 H46        -5.0218   -0.8132    0.3804 H         1 ATP         0.5252
@<TRIPOS>BOND
     1    1    2 2
     2    1    3 1
     3    1    4 1
     4    1    8 1
     5    4   32 1
     6    5    6 2
     7    5    7 1
     8    5    8 1
     9    5   12 1
    10    9   10 2
    11    9   11 1
    12    9   12 1
    13    9   13 1
    14   11   33 1
    15   13   14 1
    16   14   15 1
    17   14   34 1
    18   14   35 1
    19   15   16 1
    20   15   17 1
    21   15   36 1
    22   16   21 1
    23   17   18 1
    24   17   19 1
    25   17   37 1
    26   18   38 1
    27   19   20 1
    28   19   21 1
    29   19   39 1
    30   20   40 1
    31   21   22 1
    32   21   41 1
    33   22   23 ar
    34   22   31 ar
    35   23   24 ar
    36   23   42 1
    37   24   25 ar
    38   24   46 1
    39   25   26 ar
    40   25   31 ar
    41   26   27 2
    42   26   28 ar
    43   27   43 1
    44   28   29 ar
    45   28   45 1
    46   29   30 ar
    47   29   44 1
    48   30   31 ar
@<TRIPOS>SUBSTRUCTURE
     1 ATP         1 GROUP 0 A     ****
@<TRIPOS>MOLECULE
[[[3,4-dihydroxy-5-(6-imino-7,8-dihydro-1~{H}-purin-8-ylium-9-yl)tetrahydrofuran-2-yl]methoxy-hydroxy-phosphoryl]oxy-oxido-phosphoryl] hydrogen phosphate
   46    48     1     0     0
SMALL
USER_CHARGES

@<TRIPOS>ATOM
      1 PG          2.0294   -4.4099   -5.8861 P.3       1 ATP         1.5644
      2 O1G         0.6094   -4.7865   -6.2460 O.co2     1 ATP        -0.8581
      3 O2G         2.8409   -5.2582   -4.9325 O.co2     1 ATP        -0.8581
      4 O3G         2.8813   -4.2209   -7.2662 O.3       1 ATP        -0.7962
      5 PB          1.4825   -1.5071   -6.0771 P.3       1 ATP         1.6830
      6 O1B         2.3021   -1.2274   -7.3172 O.co2     1 ATP        -0.8633
      7 O2B        -0.0263   -1.5898   -6.1417 O.co2     1 ATP        -0.8633
      8 O3B         2.0520   -2.8631   -5.3710 O.3       1 ATP        -0.8097
      9 PA          3.3429   -0.0249   -4.3155 P.3       1 ATP         1.7610
     10 O1A         4.1316    0.9232   -5.1715 O.2       1 ATP        -0.8554
     11 O2A         4.0556   -1.4579   -4.0783 O.3       1 ATP        -0.8102
     12 O3A         1.9004   -0.4266   -4.9275 O.3       1 ATP        -0.7693
     13 O5'         3.0213    0.5153   -2.8245 O.3       1 ATP        -0.5757
     14 C5'         2.2816   -0.2918   -1.9206 C.3       1 ATP         0.1911
     15 C4'         2.7248    0.0226   -0.4980 C.3       1 ATP         0.1218
     16 O4'         2.4697    1.4219   -0.2462 O.3       1 ATP        -0.4138
     17 C3'         1.9404   -0.7419    0.5596 C.3       1 ATP         0.1338
     18 O3'         2.7418   -0.8086    1.7389 O.3       1 ATP        -0.5756
     19 C2'         0.7477    0.1630    0.7858 C.3       1 ATP         0.0673
     20 O2'         0.1373   -0.0577    2.0407 O.3       1 ATP        -0.5671
     21 C1'         1.3733    1.5427    0.6747 C.3       1 ATP         0.3795
     22 N9          0.4520    2.5240    0.1767 N.pl3     1 ATP        -0.4175
     23 C8          0.2216    2.8192   -1.0985 C.ar      1 ATP         0.2552
     24 N7         -0.6906    3.7763   -1.2384 N.pl3     1 ATP        -0.4731
     25 C5         -1.0575    4.1037    0.0366 C.ar      1 ATP        -0.1295
     26 C6         -2.0291    5.0943    0.5330 C.ar      1 ATP         0.7196
     27 N6         -2.7093    5.8371   -0.2800 N.2       1 ATP        -0.8094
     28 N1         -2.1051    5.1136    1.9204 N.pl3     1 ATP        -0.8312
     29 C2         -1.3354    4.2774    2.7129 C.ar      1 ATP         0.6744
     30 N3         -0.4707    3.3945    2.2944 N.2       1 ATP        -0.5937
     31 C4         -0.3734    3.3525    0.9220 C.ar      1 ATP         0.2810
     32 HOG3        3.8283   -3.9738   -7.1999 H         1 ATP         0.4152
     33 HOA2        4.2608   -2.0199   -4.8557 H         1 ATP         0.4571
     34 H5'1        1.2163   -0.0770   -2.0471 H         1 ATP         0.0465
     35 H5'2        2.4655   -1.3443   -2.1563 H         1 ATP         0.0465
     36 H4'         3.8044   -0.1397   -0.4040 H         1 ATP         0.1379
     37 H3'         1.6764   -1.7639    0.2728 H         1 ATP         0.1317
     38 HO3'        3.5554   -1.2733    1.4914 H         1 ATP         0.4175
     39 H2'        -0.0011    0.0027    0.0003 H         1 ATP         0.0669
     40 HO2'       -0.6141    0.5574    2.1082 H         1 ATP         0.4064
     41 H1'         1.7826    1.9024    1.6451 H         1 ATP         0.1285
     42 H8          0.7125    2.3429   -1.9292 H         1 ATP         0.2954
     43 HN62       -3.3217    6.4517    0.2629 H         1 ATP         0.4226
     44 H2         -1.5188    4.4223    3.7890 H         1 ATP         0.0826
     45 H45        -2.7470    5.7626    2.3665 H         1 ATP         0.4581
     46 H46        -1.0305    4.1680   -2.1054 H         1 ATP         0.5252
@<TRIPOS>BOND
     1    1    2 2
     2    1    3 1
     3    1    4 1
     4    1    8 1
     5    4   32 1
     6    5    6 2
     7    5    7 1
     8    5    8 1
     9    5   12 1
    10    9   10 2
    11    9   11 1
    12    9   12 1
    13    9   13 1
    14   11   33 1
    15   13   14 1
    16   14   15 1
    17   14   34 1
    18   14   35 1
    19   15   16 1
    20   15   17 1
    21   15   36 1
    22   16   21 1
    23   17   18 1
    24   17   19 1
    25   17   37 1
    26   18   38 1
    27   19   20 1
    28   19   21 1
    29   19   39 1
    30   20   40 1
    31   21   22 1
    32   21   41 1
    33   22   23 ar
    34   22   31 ar
    35   23   24 ar
    36   23   42 1
    37   24   25 ar
    38   24   46 1
    39   25   26 ar
    40   25   31 ar
    41   26   27 2
    42   26   28 ar
    43   27   43 1
    44   28   29 ar
    45   28   45 1
    46   29   30 ar
    47   29   44 1
    48   30   31 ar
@<TRIPOS>SUBSTRUCTURE
     1 ATP         1 GROUP 0 A     ****
@<TRIPOS>MOLECULE
[[[3,4-dihydroxy-5-(6-imino-7,8-dihydro-1~{H}-purin-8-ylium-9-yl)tetrahydrofuran-2-yl]methoxy-hydroxy-phosphoryl]oxy-oxido-phosphoryl] hydrogen phosphate
   46    48     1     0     0
SMALL
USER_CHARGES

@<TRIPOS>ATOM
      1 PG         -6.7682   -4.4276    4.6532 P.3       1 ATP         1.5644
      2 O1G        -6.5633   -4.0917    6.1136 O.co2     1 ATP        -0.8581
      3 O2G        -7.7603   -5.4883    4.2311 O.co2     1 ATP        -0.8581
      4 O3G        -7.1077   -3.0490    3.8469 O.3       1 ATP        -0.7962
      5 PB         -4.2899   -5.9927    4.2401 P.3       1 ATP         1.6830
      6 O1B        -3.7374   -5.8719    5.6430 O.co2     1 ATP        -0.8633
      7 O2B        -4.9374   -7.2742    3.7645 O.co2     1 ATP        -0.8633
      8 O3B        -5.3209   -4.7558    3.9778 O.3       1 ATP        -0.8097
      9 PA         -1.7101   -6.2838    2.8184 P.3       1 ATP         1.7610
     10 O1A        -1.8467   -7.6794    2.2823 O.2       1 ATP        -0.8554
     11 O2A        -0.8728   -6.1797    4.1989 O.3       1 ATP        -0.8102
     12 O3A        -3.1168   -5.5743    3.1854 O.3       1 ATP        -0.7693
     13 O5'        -0.9724   -5.2440    1.8220 O.3       1 ATP        -0.5757
     14 C5'        -0.7840   -3.8935    2.2172 C.3       1 ATP         0.1911
     15 C4'        -0.0724   -3.1466    1.1027 C.3       1 ATP         0.1218
     16 O4'        -0.8674   -3.1929   -0.0945 O.3       1 ATP        -0.4138
     17 C3'         0.1338   -1.6715    1.4027 C.3       1 ATP         0.1338
     18 O3'         1.2893   -1.4445    2.1808 O.3       1 ATP        -0.5756
     19 C2'         0.2158   -1.0724    0.0128 C.3       1 ATP         0.0673
     20 O2'         1.5141   -1.2448   -0.5513 O.3       1 ATP        -0.5671
     21 C1'        -0.7897   -1.9176   -0.7583 C.3       1 ATP         0.3795
     22 N9         -2.1040   -1.3333   -0.7704 N.pl3     1 ATP        -0.4175
     23 C8         -3.0590   -1.5123    0.1363 C.ar      1 ATP         0.2552
     24 N7         -4.1655   -0.8354   -0.1554 N.pl3     1 ATP        -0.4731
     25 C5         -3.8852   -0.1874   -1.3253 C.ar      1 ATP        -0.1295
     26 C6         -4.7113    0.7160   -2.1458 C.ar      1 ATP         0.7196
     27 N6         -5.9213    1.0209   -1.8021 N.2       1 ATP        -0.8094
     28 N1         -4.0411    1.1673   -3.2764 N.pl3     1 ATP        -0.8312
     29 C2         -2.7403    0.7865   -3.5638 C.ar      1 ATP         0.6744
     30 N3         -1.9921   -0.0108   -2.8519 N.2       1 ATP        -0.5937
     31 C4         -2.6302   -0.4747   -1.7239 C.ar      1 ATP         0.2810
     32 HOG3       -7.2680   -3.1009    2.8804 H         1 ATP         0.4152
     33 HOA2       -1.1984   -6.6622    4.9885 H         1 ATP         0.4571
     34 H5'1       -1.7618   -3.4448    2.4164 H         1 ATP         0.0465
     35 H5'2       -0.1874   -3.8744    3.1341 H         1 ATP         0.0465
     36 H4'         0.8874   -3.6466    0.8805 H         1 ATP         0.1379
     37 H3'        -0.7376   -1.2333    1.9867 H         1 ATP         0.1317
     38 HO3'        1.1626   -1.9325    3.0084 H         1 ATP         0.4175
     39 H2'        -0.0384   -0.0310    0.0096 H         1 ATP         0.0669
     40 HO2'        1.4998   -0.8412   -1.4369 H         1 ATP         0.4064
     41 H1'        -0.4769   -2.1002   -1.8093 H         1 ATP         0.1285
     42 H8         -2.9569   -2.1323    1.0098 H         1 ATP         0.2954
     43 HN62       -6.3169    1.6552   -2.5012 H         1 ATP         0.4226
     44 H2         -2.3612    1.2343   -4.4957 H         1 ATP         0.0826
     45 H45        -4.5223    1.7976   -3.9117 H         1 ATP         0.4581
     46 H46        -5.0218   -0.8132    0.3804 H         1 ATP         0.5252
@<TRIPOS>BOND
     1    1    2 2
     2    1    3 1
     3    1    4 1
     4    1    8 1
     5    4   32 1
     6    5    6 2
     7    5    7 1
     8    5    8 1
     9    5   12 1
    10    9   10 2
    11    9   11 1
    12    9   12 1
    13    9   13 1
    14   11   33 1
    15   13   14 1
    16   14   15 1
    17   14   34 1
    18   14   35 1
    19   15   16 1
    20   15   17 1
    21   15   36 1
    22   16   21 1
    23   17   18 1
    24   17   19 1
    25   17   37 1
    26   18   38 1
    27   19   20 1
    28   19   21 1
    29   19   39 1
    30   20   40 1
    31   21   22 1
    32   21   41 1
    33   22   23 ar
    34   22   31 ar
    35   23   24 ar
    36   23   42 1
    37   24   25 ar
    38   24   46 1
    39   25   26 ar
    40   25   31 ar
    41   26   27 2
    42   26   28 ar
    43   27   43 1
    44   28   29 ar
    45   28   45 1
    46   29   30 ar
    47   29   44 1
    48   30   31 ar
@<TRIPOS>SUBSTRUCTURE
     1 ATP         1 GROUP 0 A     ****
@<TRIPOS>MOLECULE
[[[3,4-dihydroxy-5-(6-imino-7,8-dihydro-1~{H}-purin-8-ylium-9-yl)tetrahydrofuran-2-yl]methoxy-hydroxy-phosphoryl]oxy-oxido-phosphoryl] hydrogen phosphate
   46    48     1     0     0
SMALL
USER_CHARGES

@<TRIPOS>ATOM
      1 PG          6.8377    2.6197   -4.8844 P.3       1 ATP         1.5644
      2 O1G         7.1992    3.0943   -3.4946 O.co2     1 ATP        -0.8581
      3 O2G         6.4768    3.6053   -5.9733 O.co2     1 ATP        -0.8581
      4 O3G         8.0378    1.6575   -5.4321 O.3       1 ATP        -0.7962
      5 PB          5.5856    0.1299   -3.8867 P.3       1 ATP         1.6830
      6 O1B         6.6172   -0.8419   -4.4151 O.co2     1 ATP        -0.8633
      7 O2B         5.5413    0.4997   -2.4207 O.co2     1 ATP        -0.8633
      8 O3B         5.6586    1.4992   -4.7706 O.3       1 ATP        -0.8097
      9 PA          3.2593   -1.7000   -3.9192 P.3       1 ATP         1.7610
     10 O1A         3.9358   -3.0003   -4.2432 O.2       1 ATP        -0.8554
     11 O2A         1.8422   -1.4817   -4.6690 O.3       1 ATP        -0.8102
     12 O3A         4.1067   -0.3886   -4.3423 O.3       1 ATP        -0.7693
     13 O5'         2.9216   -1.4836   -2.3516 O.3       1 ATP        -0.5757
     14 C5'         2.2816   -0.2918   -1.9206 C.3       1 ATP         0.1911
     15 C4'         2.7248    0.0226   -0.4980 C.3       1 ATP         0.1218
     16 O4'         2.4697    1.4219   -0.2462 O.3       1 ATP        -0.4138
     17 C3'         1.9404   -0.7419    0.5596 C.3       1 ATP         0.1338
     18 O3'         2.7418   -0.8086    1.7389 O.3       1 ATP        -0.5756
     19 C2'         0.7477    0.1630    0.7858 C.3       1 ATP         0.0673
     20 O2'         0.1373   -0.0577    2.0407 O.3       1 ATP        -0.5671
     21 C1'         1.3733    1.5427    0.6747 C.3       1 ATP         0.3795
     22 N9          0.4520    2.5240    0.1767 N.pl3     1 ATP        -0.4175
     23 C8         -0.2004    2.4829   -0.9804 C.ar      1 ATP         0.2552
     24 N7         -0.9830    3.5431   -1.1568 N.pl3     1 ATP        -0.4731
     25 C5         -0.8095    4.3012   -0.0331 C.ar      1 ATP        -0.1295
     26 C6         -1.4065    5.5904    0.3585 C.ar      1 ATP         0.7196
     27 N6         -2.2501    6.2030   -0.4084 N.2       1 ATP        -0.8094
     28 N1         -0.9585    6.0272    1.5994 N.pl3     1 ATP        -0.8312
     29 C2         -0.0508    5.3009    2.3532 C.ar      1 ATP         0.6744
     30 N3          0.4890    4.1592    2.0257 N.2       1 ATP        -0.5937
     31 C4          0.0637    3.7006    0.7995 C.ar      1 ATP         0.2810
     32 HOG3        7.9510    1.2671   -6.3279 H         1 ATP         0.4152
     33 HOA2        1.1181   -2.1243   -4.5108 H         1 ATP         0.4571
     34 H5'1        2.5589    0.5217   -2.5976 H         1 ATP         0.0465
     35 H5'2        1.1982   -0.4388   -1.9617 H         1 ATP         0.0465
     36 H4'         3.8044   -0.1397   -0.4040 H         1 ATP         0.1379
     37 H3'         1.6764   -1.7639    0.2728 H         1 ATP         0.1317
     38 HO3'        2.2232   -1.2979    2.3953 H         1 ATP         0.4175
     39 H2'        -0.0011    0.0027    0.0003 H         1 ATP         0.0669
     40 HO2'       -0.6141    0.5574    2.1082 H         1 ATP         0.4064
     41 H1'         1.7826    1.9024    1.6451 H         1 ATP         0.1285
     42 H8         -0.1116    1.6863   -1.6984 H         1 ATP         0.2954
     43 HN62       -2.5420    7.0730    0.0447 H         1 ATP         0.4226
     44 H2          0.1969    5.7893    3.3086 H         1 ATP         0.0826
     45 H45        -1.3097    6.9080    1.9642 H         1 ATP         0.4581
     46 H46        -1.5735    3.7351   -1.9538 H         1 ATP         0.5252
@<TRIPOS>BOND
     1    1    2 2
     2    1    3 1
     3    1    4 1
     4    1    8 1
     5    4   32 1
     6    5    6 2
     7    5    7 1
     8    5    8 1
     9    5   12 1
    10    9   10 2
    11    9   11 1
    12    9   12 1
    13    9   13 1
    14   11   33 1
    15   13   14 1
    16   14   15 1
    17   14   34 1
    18   14   35 1
    19   15   16 1
    20   15   17 1
    21   15   36 1
    22   16   21 1
    23   17   18 1
    24   17   19 1
    25   17   37 1
    26   18   38 1
    27   19   20 1
    28   19   21 1
    29   19   39 1
    30   20   40 1
    31   21   22 1
    32   21   41 1
    33   22   23 ar
    34   22   31 ar
    35   23   24 ar
    36   23   42 1
    37   24   25 ar
    38   24   46 1
    39   25   26 ar
    40   25   31 ar
    41   26   27 2
    42   26   28 ar
    43   27   43 1
    44   28   29 ar
    45   28   45 1
    46   29   30 ar
    47   29   44 1
    48   30   31 ar
@<TRIPOS>SUBSTRUCTURE
     1 ATP         1 GROUP 0 A     ****
@<TRIPOS>MOLECULE
[[[3,4-dihydroxy-5-(6-imino-7,8-dihydro-1~{H}-purin-8-ylium-9-yl)tetrahydrofuran-2-yl]methoxy-hydroxy-phosphoryl]oxy-oxido-phosphoryl] hydrogen phosphate
   46    48     1     0     0
SMALL
USER_CHARGES

@<TRIPOS>ATOM
      1 PG          7.9519   -3.4461   -4.7744 P.3       1 ATP         1.5644
      2 O1G         9.2165   -3.0384   -4.0520 O.co2     1 ATP        -0.8581
      3 O2G         7.8264   -3.2858   -6.2731 O.co2     1 ATP        -0.8581
      4 O3G         7.6105   -4.9953   -4.3877 O.3       1 ATP        -0.7962
      5 PB          6.2623   -1.1522   -3.9711 P.3       1 ATP         1.6830
      6 O1B         7.2911   -0.4260   -3.1332 O.co2     1 ATP        -0.8633
      7 O2B         5.9049   -0.6690   -5.3591 O.co2     1 ATP        -0.8633
      8 O3B         6.6769   -2.7279   -4.0553 O.3       1 ATP        -0.8097
      9 PA          3.5156   -2.0921   -3.3934 P.3       1 ATP         1.7610
     10 O1A         3.6877   -3.5728   -3.5714 O.2       1 ATP        -0.8554
     11 O2A         2.9211   -1.3302   -4.6911 O.3       1 ATP        -0.8102
     12 O3A         4.8921   -1.2960   -3.0962 O.3       1 ATP        -0.7693
     13 O5'         2.5245   -1.6648   -2.1878 O.3       1 ATP        -0.5757
     14 C5'         2.2816   -0.2918   -1.9206 C.3       1 ATP         0.1911
     15 C4'         2.7248    0.0226   -0.4980 C.3       1 ATP         0.1218
     16 O4'         2.4697    1.4219   -0.2462 O.3       1 ATP        -0.4138
     17 C3'         1.9404   -0.7419    0.5596 C.3       1 ATP         0.1338
     18 O3'         2.7418   -0.8086    1.7389 O.3       1 ATP        -0.5756
     19 C2'         0.7477    0.1630    0.7858 C.3       1 ATP         0.0673
     20 O2'         0.1373   -0.0577    2.0407 O.3       1 ATP        -0.5671
     21 C1'         1.3733    1.5427    0.6747 C.3       1 ATP         0.3795
     22 N9          0.4520    2.5240    0.1767 N.pl3     1 ATP        -0.4175
     23 C8         -0.2004    2.4829   -0.9804 C.ar      1 ATP         0.2552
     24 N7         -0.9830    3.5431   -1.1568 N.pl3     1 ATP        -0.4731
     25 C5         -0.8095    4.3012   -0.0331 C.ar      1 ATP        -0.1295
     26 C6         -1.4065    5.5904    0.3585 C.ar      1 ATP         0.7196
     27 N6         -2.2501    6.2030   -0.4084 N.2       1 ATP        -0.8094
     28 N1         -0.9585    6.0272    1.5994 N.pl3     1 ATP        -0.8312
     29 C2         -0.0508    5.3009    2.3532 C.ar      1 ATP         0.6744
     30 N3          0.4890    4.1592    2.0257 N.2       1 ATP        -0.5937
     31 C4          0.0637    3.7006    0.7995 C.ar      1 ATP         0.2810
     32 HOG3        6.8124   -5.4093   -4.7802 H         1 ATP         0.4152
     33 HOA2        3.4207   -1.3697   -5.5343 H         1 ATP         0.4571
     34 H5'1        2.8432    0.3119   -2.6398 H         1 ATP         0.0465
     35 H5'2        1.2128   -0.0927   -2.0428 H         1 ATP         0.0465
     36 H4'         3.8044   -0.1397   -0.4040 H         1 ATP         0.1379
     37 H3'         1.6764   -1.7639    0.2728 H         1 ATP         0.1317
     38 HO3'        2.2232   -1.2979    2.3953 H         1 ATP         0.4175
     39 H2'        -0.0011    0.0027    0.0003 H         1 ATP         0.0669
     40 HO2'       -0.1563   -0.9855    2.0596 H         1 ATP         0.4064
     41 H1'         1.7826    1.9024    1.6451 H         1 ATP         0.1285
     42 H8         -0.1116    1.6863   -1.6984 H         1 ATP         0.2954
     43 HN62       -2.5420    7.0730    0.0447 H         1 ATP         0.4226
     44 H2          0.1969    5.7893    3.3086 H         1 ATP         0.0826
     45 H45        -1.3097    6.9080    1.9642 H         1 ATP         0.4581
     46 H46        -1.5735    3.7351   -1.9538 H         1 ATP         0.5252
@<TRIPOS>BOND
     1    1    2 2
     2    1    3 1
     3    1    4 1
     4    1    8 1
     5    4   32 1
     6    5    6 2
     7    5    7 1
     8    5    8 1
     9    5   12 1
    10    9   10 2
    11    9   11 1
    12    9   12 1
    13    9   13 1
    14   11   33 1
    15   13   14 1
    16   14   15 1
    17   14   34 1
    18   14   35 1
    19   15   16 1
    20   15   17 1
    21   15   36 1
    22   16   21 1
    23   17   18 1
    24   17   19 1
    25   17   37 1
    26   18   38 1
    27   19   20 1
    28   19   21 1
    29   19   39 1
    30   20   40 1
    31   21   22 1
    32   21   41 1
    33   22   23 ar
    34   22   31 ar
    35   23   24 ar
    36   23   42 1
    37   24   25 ar
    38   24   46 1
    39   25   26 ar
    40   25   31 ar
    41   26   27 2
    42   26   28 ar
    43   27   43 1
    44   28   29 ar
    45   28   45 1
    46   29   30 ar
    47   29   44 1
    48   30   31 ar
@<TRIPOS>SUBSTRUCTURE
     1 ATP         1 GROUP 0 A     ****
@<TRIPOS>MOLECULE
[[[3,4-dihydroxy-5-(6-imino-7,8-dihydro-1~{H}-purin-8-ylium-9-yl)tetrahydrofuran-2-yl]methoxy-hydroxy-phosphoryl]oxy-oxido-phosphoryl] hydrogen phosphate
   46    48     1     0     0
SMALL
USER_CHARGES

@<TRIPOS>ATOM
      1 PG         -2.2389   -3.2243   -5.2116 P.3       1 ATP         1.5644
      2 O1G        -1.9519   -4.3819   -6.1418 O.co2     1 ATP        -0.8581
      3 O2G        -3.1854   -2.1167   -5.6176 O.co2     1 ATP        -0.8581
      4 O3G        -2.7277   -3.8237   -3.7736 O.3       1 ATP        -0.7962
      5 PB          0.3026   -1.7545   -5.5891 P.3       1 ATP         1.6830
      6 O1B         0.9457   -2.7096   -6.5698 O.co2     1 ATP        -0.8633
      7 O2B        -0.2901   -0.4424   -6.0526 O.co2     1 ATP        -0.8633
      8 O3B        -0.8254   -2.5662   -4.7345 O.3       1 ATP        -0.8097
      9 PA          2.1902   -2.4548   -3.4193 P.3       1 ATP         1.7610
     10 O1A         3.1075   -3.3959   -4.1450 O.2       1 ATP        -0.8554
     11 O2A         1.0262   -3.1857   -2.5656 O.3       1 ATP        -0.8102
     12 O3A         1.3656   -1.4550   -4.3874 O.3       1 ATP        -0.7693
     13 O5'         2.9216   -1.4836   -2.3516 O.3       1 ATP        -0.5757
     14 C5'         2.2816   -0.2918   -1.9206 C.3       1 ATP         0.1911
     15 C4'         2.7248    0.0226   -0.4980 C.3       1 ATP         0.1218
     16 O4'         2.4697    1.4219   -0.2462 O.3       1 ATP        -0.4138
     17 C3'         1.9404   -0.7419    0.5596 C.3       1 ATP         0.1338
     18 O3'         2.7418   -0.8086    1.7389 O.3       1 ATP        -0.5756
     19 C2'         0.7477    0.1630    0.7858 C.3       1 ATP         0.0673
     20 O2'         0.1373   -0.0577    2.0407 O.3       1 ATP        -0.5671
     21 C1'         1.3733    1.5427    0.6747 C.3       1 ATP         0.3795
     22 N9          0.4520    2.5240    0.1767 N.pl3     1 ATP        -0.4175
     23 C8          0.2216    2.8192   -1.0985 C.ar      1 ATP         0.2552
     24 N7         -0.6906    3.7763   -1.2384 N.pl3     1 ATP        -0.4731
     25 C5         -1.0575    4.1037    0.0366 C.ar      1 ATP        -0.1295
     26 C6         -2.0291    5.0943    0.5330 C.ar      1 ATP         0.7196
     27 N6         -2.7093    5.8371   -0.2800 N.2       1 ATP        -0.8094
     28 N1         -2.1051    5.1136    1.9204 N.pl3     1 ATP        -0.8312
     29 C2         -1.3354    4.2774    2.7129 C.ar      1 ATP         0.6744
     30 N3         -0.4707    3.3945    2.2944 N.2       1 ATP        -0.5937
     31 C4         -0.3734    3.3525    0.9220 C.ar      1 ATP         0.2810
     32 HOG3       -2.9536   -3.1926   -3.0574 H         1 ATP         0.4152
     33 HOA2        0.3854   -3.7621   -3.0340 H         1 ATP         0.4571
     34 H5'1        2.5589    0.5217   -2.5976 H         1 ATP         0.0465
     35 H5'2        1.1982   -0.4388   -1.9617 H         1 ATP         0.0465
     36 H4'         3.8044   -0.1397   -0.4040 H         1 ATP         0.1379
     37 H3'         1.6764   -1.7639    0.2728 H         1 ATP         0.1317
     38 HO3'        2.2232   -1.2979    2.3953 H         1 ATP         0.4175
     39 H2'        -0.0011    0.0027    0.0003 H         1 ATP         0.0669
     40 HO2'       -0.6141    0.5574    2.1082 H         1 ATP         0.4064
     41 H1'         1.7826    1.9024    1.6451 H         1 ATP         0.1285
     42 H8          0.7125    2.3429   -1.9292 H         1 ATP         0.2954
     43 HN62       -3.3217    6.4517    0.2629 H         1 ATP         0.4226
     44 H2         -1.5188    4.4223    3.7890 H         1 ATP         0.0826
     45 H45        -2.7470    5.7626    2.3665 H         1 ATP         0.4581
     46 H46        -1.0305    4.1680   -2.1054 H         1 ATP         0.5252
@<TRIPOS>BOND
     1    1    2 2
     2    1    3 1
     3    1    4 1
     4    1    8 1
     5    4   32 1
     6    5    6 2
     7    5    7 1
     8    5    8 1
     9    5   12 1
    10    9   10 2
    11    9   11 1
    12    9   12 1
    13    9   13 1
    14   11   33 1
    15   13   14 1
    16   14   15 1
    17   14   34 1
    18   14   35 1
    19   15   16 1
    20   15   17 1
    21   15   36 1
    22   16   21 1
    23   17   18 1
    24   17   19 1
    25   17   37 1
    26   18   38 1
    27   19   20 1
    28   19   21 1
    29   19   39 1
    30   20   40 1
    31   21   22 1
    32   21   41 1
    33   22   23 ar
    34   22   31 ar
    35   23   24 ar
    36   23   42 1
    37   24   25 ar
    38   24   46 1
    39   25   26 ar
    40   25   31 ar
    41   26   27 2
    42   26   28 ar
    43   27   43 1
    44   28   29 ar
    45   28   45 1
    46   29   30 ar
    47   29   44 1
    48   30   31 ar
@<TRIPOS>SUBSTRUCTURE
     1 ATP         1 GROUP 0 A     ****
@<TRIPOS>MOLECULE
[[[3,4-dihydroxy-5-(6-imino-7,8-dihydro-1~{H}-purin-8-ylium-9-yl)tetrahydrofuran-2-yl]methoxy-hydroxy-phosphoryl]oxy-oxido-phosphoryl] hydrogen phosphate
   46    48     1     0     0
SMALL
USER_CHARGES

@<TRIPOS>ATOM
      1 PG          8.5604    0.0491   -1.8569 P.3       1 ATP         1.5644
      2 O1G         8.5411   -0.0528   -0.3480 O.co2     1 ATP        -0.8581
      3 O2G         9.0306    1.3112   -2.5451 O.co2     1 ATP        -0.8581
      4 O3G         9.4093   -1.2130   -2.4509 O.3       1 ATP        -0.7962
      5 PB          6.1786   -1.6806   -2.1686 P.3       1 ATP         1.6830
      6 O1B         6.8738   -2.8739   -2.7855 O.co2     1 ATP        -0.8633
      7 O2B         5.7471   -1.6928   -0.7190 O.co2     1 ATP        -0.8633
      8 O3B         7.0891   -0.3529   -2.4331 O.3       1 ATP        -0.8097
      9 PA          3.5156   -2.0921   -3.3934 P.3       1 ATP         1.7610
     10 O1A         3.6877   -3.5728   -3.5714 O.2       1 ATP        -0.8554
     11 O2A         2.9211   -1.3302   -4.6911 O.3       1 ATP        -0.8102
     12 O3A         4.8921   -1.2960   -3.0962 O.3       1 ATP        -0.7693
     13 O5'         2.5245   -1.6648   -2.1878 O.3       1 ATP        -0.5757
     14 C5'         2.2816   -0.2918   -1.9206 C.3       1 ATP         0.1911
     15 C4'         2.7248    0.0226   -0.4980 C.3       1 ATP         0.1218
     16 O4'         2.4697    1.4219   -0.2462 O.3       1 ATP        -0.4138
     17 C3'         1.9404   -0.7419    0.5596 C.3       1 ATP         0.1338
     18 O3'         2.7418   -0.8086    1.7389 O.3       1 ATP        -0.5756
     19 C2'         0.7477    0.1630    0.7858 C.3       1 ATP         0.0673
     20 O2'         0.1373   -0.0577    2.0407 O.3       1 ATP        -0.5671
     21 C1'         1.3733    1.5427    0.6747 C.3       1 ATP         0.3795
     22 N9          0.4520    2.5240    0.1767 N.pl3     1 ATP        -0.4175
     23 C8          0.2216    2.8192   -1.0985 C.ar      1 ATP         0.2552
     24 N7         -0.6906    3.7763   -1.2384 N.pl3     1 ATP        -0.4731
     25 C5         -1.0575    4.1037    0.0366 C.ar      1 ATP        -0.1295
     26 C6         -2.0291    5.0943    0.5330 C.ar      1 ATP         0.7196
     27 N6         -2.7093    5.8371   -0.2800 N.2       1 ATP        -0.8094
     28 N1         -2.1051    5.1136    1.9204 N.pl3     1 ATP        -0.8312
     29 C2         -1.3354    4.2774    2.7129 C.ar      1 ATP         0.6744
     30 N3         -0.4707    3.3945    2.2944 N.2       1 ATP        -0.5937
     31 C4         -0.3734    3.3525    0.9220 C.ar      1 ATP         0.2810
     32 HOG3        9.5133   -1.2891   -3.4234 H         1 ATP         0.4152
     33 HOA2        3.4207   -1.3697   -5.5343 H         1 ATP         0.4571
     34 H5'1        2.8432    0.3119   -2.6398 H         1 ATP         0.0465
     35 H5'2        1.2128   -0.0927   -2.0428 H         1 ATP         0.0465
     36 H4'         3.8044   -0.1397   -0.4040 H         1 ATP         0.1379
     37 H3'         1.6764   -1.7639    0.2728 H         1 ATP         0.1317
     38 HO3'        2.2232   -1.2979    2.3953 H         1 ATP         0.4175
     39 H2'        -0.0011    0.0027    0.0003 H         1 ATP         0.0669
     40 HO2'       -0.1563   -0.9855    2.0596 H         1 ATP         0.4064
     41 H1'         1.7826    1.9024    1.6451 H         1 ATP         0.1285
     42 H8          0.7125    2.3429   -1.9292 H         1 ATP         0.2954
     43 HN62       -3.3217    6.4517    0.2629 H         1 ATP         0.4226
     44 H2         -1.5188    4.4223    3.7890 H         1 ATP         0.0826
     45 H45        -2.7470    5.7626    2.3665 H         1 ATP         0.4581
     46 H46        -1.0305    4.1680   -2.1054 H         1 ATP         0.5252
@<TRIPOS>BOND
     1    1    2 2
     2    1    3 1
     3    1    4 1
     4    1    8 1
     5    4   32 1
     6    5    6 2
     7    5    7 1
     8    5    8 1
     9    5   12 1
    10    9   10 2
    11    9   11 1
    12    9   12 1
    13    9   13 1
    14   11   33 1
    15   13   14 1
    16   14   15 1
    17   14   34 1
    18   14   35 1
    19   15   16 1
    20   15   17 1
    21   15   36 1
    22   16   21 1
    23   17   18 1
    24   17   19 1
    25   17   37 1
    26   18   38 1
    27   19   20 1
    28   19   21 1
    29   19   39 1
    30   20   40 1
    31   21   22 1
    32   21   41 1
    33   22   23 ar
    34   22   31 ar
    35   23   24 ar
    36   23   42 1
    37   24   25 ar
    38   24   46 1
    39   25   26 ar
    40   25   31 ar
    41   26   27 2
    42   26   28 ar
    43   27   43 1
    44   28   29 ar
    45   28   45 1
    46   29   30 ar
    47   29   44 1
    48   30   31 ar
@<TRIPOS>SUBSTRUCTURE
     1 ATP         1 GROUP 0 A     ****
@<TRIPOS>MOLECULE
[[[3,4-dihydroxy-5-(6-imino-7,8-dihydro-1~{H}-purin-8-ylium-9-yl)tetrahydrofuran-2-yl]methoxy-hydroxy-phosphoryl]oxy-oxido-phosphoryl] hydrogen phosphate
   46    48     1     0     0
SMALL
USER_CHARGES

@<TRIPOS>ATOM
      1 PG         -6.1506   -5.3695    5.1403 P.3       1 ATP         1.5644
      2 O1G        -7.2212   -4.3439    4.8412 O.co2     1 ATP        -0.8581
      3 O2G        -5.4940   -5.4338    6.5013 O.co2     1 ATP        -0.8581
      4 O3G        -6.7344   -6.8500    4.7752 O.3       1 ATP        -0.7962
      5 PB         -5.1083   -5.3313    2.3701 P.3       1 ATP         1.6830
      6 O1B        -5.5556   -6.7184    1.9658 O.co2     1 ATP        -0.8633
      7 O2B        -5.8498   -4.1025    1.8925 O.co2     1 ATP        -0.8633
      8 O3B        -4.9925   -5.2744    3.9964 O.3       1 ATP        -0.8097
      9 PA         -2.2443   -6.0789    2.3728 P.3       1 ATP         1.7610
     10 O1A        -2.3284   -7.4946    1.8805 O.2       1 ATP        -0.8554
     11 O2A        -2.1507   -5.9380    3.9819 O.3       1 ATP        -0.8102
     12 O3A        -3.5279   -5.1691    1.9965 O.3       1 ATP        -0.7693
     13 O5'        -0.9724   -5.2440    1.8220 O.3       1 ATP        -0.5757
     14 C5'        -0.7840   -3.8935    2.2172 C.3       1 ATP         0.1911
     15 C4'        -0.0724   -3.1466    1.1027 C.3       1 ATP         0.1218
     16 O4'        -0.8674   -3.1929   -0.0945 O.3       1 ATP        -0.4138
     17 C3'         0.1338   -1.6715    1.4027 C.3       1 ATP         0.1338
     18 O3'         1.2893   -1.4445    2.1808 O.3       1 ATP        -0.5756
     19 C2'         0.2158   -1.0724    0.0128 C.3       1 ATP         0.0673
     20 O2'         1.5141   -1.2448   -0.5513 O.3       1 ATP        -0.5671
     21 C1'        -0.7897   -1.9176   -0.7583 C.3       1 ATP         0.3795
     22 N9         -2.1040   -1.3333   -0.7704 N.pl3     1 ATP        -0.4175
     23 C8         -3.0590   -1.5123    0.1363 C.ar      1 ATP         0.2552
     24 N7         -4.1655   -0.8354   -0.1554 N.pl3     1 ATP        -0.4731
     25 C5         -3.8852   -0.1874   -1.3253 C.ar      1 ATP        -0.1295
     26 C6         -4.7113    0.7160   -2.1458 C.ar      1 ATP         0.7196
     27 N6         -5.9213    1.0209   -1.8021 N.2       1 ATP        -0.8094
     28 N1         -4.0411    1.1673   -3.2764 N.pl3     1 ATP        -0.8312
     29 C2         -2.7403    0.7865   -3.5638 C.ar      1 ATP         0.6744
     30 N3         -1.9921   -0.0108   -2.8519 N.2       1 ATP        -0.5937
     31 C4         -2.6302   -0.4747   -1.7239 C.ar      1 ATP         0.2810
     32 HOG3       -6.1538   -7.6283    4.9154 H         1 ATP         0.4152
     33 HOA2       -1.3965   -6.3540    4.4512 H         1 ATP         0.4571
     34 H5'1       -1.7618   -3.4448    2.4164 H         1 ATP         0.0465
     35 H5'2       -0.1874   -3.8744    3.1341 H         1 ATP         0.0465
     36 H4'         0.8874   -3.6466    0.8805 H         1 ATP         0.1379
     37 H3'        -0.7376   -1.2333    1.9867 H         1 ATP         0.1317
     38 HO3'        1.3408   -0.4870    2.3219 H         1 ATP         0.4175
     39 H2'        -0.0384   -0.0310    0.0096 H         1 ATP         0.0669
     40 HO2'        2.1463   -0.7958    0.0370 H         1 ATP         0.4064
     41 H1'        -0.4769   -2.1002   -1.8093 H         1 ATP         0.1285
     42 H8         -2.9569   -2.1323    1.0098 H         1 ATP         0.2954
     43 HN62       -6.3169    1.6552   -2.5012 H         1 ATP         0.4226
     44 H2         -2.3612    1.2343   -4.4957 H         1 ATP         0.0826
     45 H45        -4.5223    1.7976   -3.9117 H         1 ATP         0.4581
     46 H46        -5.0218   -0.8132    0.3804 H         1 ATP         0.5252
@<TRIPOS>BOND
     1    1    2 2
     2    1    3 1
     3    1    4 1
     4    1    8 1
     5    4   32 1
     6    5    6 2
     7    5    7 1
     8    5    8 1
     9    5   12 1
    10    9   10 2
    11    9   11 1
    12    9   12 1
    13    9   13 1
    14   11   33 1
    15   13   14 1
    16   14   15 1
    17   14   34 1
    18   14   35 1
    19   15   16 1
    20   15   17 1
    21   15   36 1
    22   16   21 1
    23   17   18 1
    24   17   19 1
    25   17   37 1
    26   18   38 1
    27   19   20 1
    28   19   21 1
    29   19   39 1
    30   20   40 1
    31   21   22 1
    32   21   41 1
    33   22   23 ar
    34   22   31 ar
    35   23   24 ar
    36   23   42 1
    37   24   25 ar
    38   24   46 1
    39   25   26 ar
    40   25   31 ar
    41   26   27 2
    42   26   28 ar
    43   27   43 1
    44   28   29 ar
    45   28   45 1
    46   29   30 ar
    47   29   44 1
    48   30   31 ar
@<TRIPOS>SUBSTRUCTURE
     1 ATP         1 GROUP 0 A     ****
@<TRIPOS>MOLECULE
[[[3,4-dihydroxy-5-(6-imino-7,8-dihydro-1~{H}-purin-8-ylium-9-yl)tetrahydrofuran-2-yl]methoxy-hydroxy-phosphoryl]oxy-oxido-phosphoryl] hydrogen phosphate
   46    48     1     0     0
SMALL
USER_CHARGES

@<TRIPOS>ATOM
      1 PG         -6.0053   -7.2517    0.8094 P.3       1 ATP         1.5644
      2 O1G        -7.3206   -6.7200    1.3337 O.co2     1 ATP        -0.8581
      3 O2G        -5.8155   -8.7276    0.5392 O.co2     1 ATP        -0.8581
      4 O3G        -5.6119   -6.4220   -0.5407 O.3       1 ATP        -0.7962
      5 PB         -4.4164   -5.2211    2.2635 P.3       1 ATP         1.6830
      6 O1B        -3.9500   -4.4298    1.0619 O.co2     1 ATP        -0.8633
      7 O2B        -5.5209   -4.7031    3.1577 O.co2     1 ATP        -0.8633
      8 O3B        -4.8007   -6.7301    1.7767 O.3       1 ATP        -0.8097
      9 PA         -1.7101   -6.2838    2.8184 P.3       1 ATP         1.7610
     10 O1A        -1.8467   -7.6794    2.2823 O.2       1 ATP        -0.8554
     11 O2A        -0.8728   -6.1797    4.1989 O.3       1 ATP        -0.8102
     12 O3A        -3.1168   -5.5743    3.1854 O.3       1 ATP        -0.7693
     13 O5'        -0.9724   -5.2440    1.8220 O.3       1 ATP        -0.5757
     14 C5'        -0.7840   -3.8935    2.2172 C.3       1 ATP         0.1911
     15 C4'        -0.0724   -3.1466    1.1027 C.3       1 ATP         0.1218
     16 O4'        -0.8674   -3.1929   -0.0945 O.3       1 ATP        -0.4138
     17 C3'         0.1338   -1.6715    1.4027 C.3       1 ATP         0.1338
     18 O3'         1.2893   -1.4445    2.1808 O.3       1 ATP        -0.5756
     19 C2'         0.2158   -1.0724    0.0128 C.3       1 ATP         0.0673
     20 O2'         1.5141   -1.2448   -0.5513 O.3       1 ATP        -0.5671
     21 C1'        -0.7897   -1.9176   -0.7583 C.3       1 ATP         0.3795
     22 N9         -2.1040   -1.3333   -0.7704 N.pl3     1 ATP        -0.4175
     23 C8         -3.0590   -1.5123    0.1363 C.ar      1 ATP         0.2552
     24 N7         -4.1655   -0.8354   -0.1554 N.pl3     1 ATP        -0.4731
     25 C5         -3.8852   -0.1874   -1.3253 C.ar      1 ATP        -0.1295
     26 C6         -4.7113    0.7160   -2.1458 C.ar      1 ATP         0.7196
     27 N6         -5.9213    1.0209   -1.8021 N.2       1 ATP        -0.8094
     28 N1         -4.0411    1.1673   -3.2764 N.pl3     1 ATP        -0.8312
     29 C2         -2.7403    0.7865   -3.5638 C.ar      1 ATP         0.6744
     30 N3         -1.9921   -0.0108   -2.8519 N.2       1 ATP        -0.5937
     31 C4         -2.6302   -0.4747   -1.7239 C.ar      1 ATP         0.2810
     32 HOG3       -4.7777   -6.6515   -1.0032 H         1 ATP         0.4152
     33 HOA2        0.0586   -6.4873    4.2129 H         1 ATP         0.4571
     34 H5'1       -1.7618   -3.4448    2.4164 H         1 ATP         0.0465
     35 H5'2       -0.1874   -3.8744    3.1341 H         1 ATP         0.0465
     36 H4'         0.8874   -3.6466    0.8805 H         1 ATP         0.1379
     37 H3'        -0.7376   -1.2333    1.9867 H         1 ATP         0.1317
     38 HO3'        1.1626   -1.9325    3.0084 H         1 ATP         0.4175
     39 H2'        -0.0384   -0.0310    0.0096 H         1 ATP         0.0669
     40 HO2'        2.1463   -0.7958    0.0370 H         1 ATP         0.4064
     41 H1'        -0.4769   -2.1002   -1.8093 H         1 ATP         0.1285
     42 H8         -2.9569   -2.1323    1.0098 H         1 ATP         0.2954
     43 HN62       -6.3169    1.6552   -2.5012 H         1 ATP         0.4226
     44 H2         -2.3612    1.2343   -4.4957 H         1 ATP         0.0826
     45 H45        -4.5223    1.7976   -3.9117 H         1 ATP         0.4581
     46 H46        -5.0218   -0.8132    0.3804 H         1 ATP         0.5252
@<TRIPOS>BOND
     1    1    2 2
     2    1    3 1
     3    1    4 1
     4    1    8 1
     5    4   32 1
     6    5    6 2
     7    5    7 1
     8    5    8 1
     9    5   12 1
    10    9   10 2
    11    9   11 1
    12    9   12 1
    13    9   13 1
    14   11   33 1
    15   13   14 1
    16   14   15 1
    17   14   34 1
    18   14   35 1
    19   15   16 1
    20   15   17 1
    21   15   36 1
    22   16   21 1
    23   17   18 1
    24   17   19 1
    25   17   37 1
    26   18   38 1
    27   19   20 1
    28   19   21 1
    29   19   39 1
    30   20   40 1
    31   21   22 1
    32   21   41 1
    33   22   23 ar
    34   22   31 ar
    35   23   24 ar
    36   23   42 1
    37   24   25 ar
    38   24   46 1
    39   25   26 ar
    40   25   31 ar
    41   26   27 2
    42   26   28 ar
    43   27   43 1
    44   28   29 ar
    45   28   45 1
    46   29   30 ar
    47   29   44 1
    48   30   31 ar
@<TRIPOS>SUBSTRUCTURE
     1 ATP         1 GROUP 0 A     ****
@<TRIPOS>MOLECULE
[[[3,4-dihydroxy-5-(6-imino-7,8-dihydro-1~{H}-purin-8-ylium-9-yl)tetrahydrofuran-2-yl]methoxy-hydroxy-phosphoryl]oxy-oxido-phosphoryl] hydrogen phosphate
   46    48     1     0     0
SMALL
USER_CHARGES

@<TRIPOS>ATOM
      1 PG          4.8021   -3.7668   -7.4011 P.3       1 ATP         1.5644
      2 O1G         5.3660   -5.0391   -6.8089 O.co2     1 ATP        -0.8581
      3 O2G         5.6652   -2.8498   -8.2387 O.co2     1 ATP        -0.8581
      4 O3G         3.4621   -4.1421   -8.2555 O.3       1 ATP        -0.7962
      5 PB          3.2099   -1.5316   -6.2917 P.3       1 ATP         1.6830
      6 O1B         4.1011   -0.3995   -6.7520 O.co2     1 ATP        -0.8633
      7 O2B         1.9097   -1.8385   -7.0009 O.co2     1 ATP        -0.8633
      8 O3B         4.0996   -2.8969   -6.2143 O.3       1 ATP        -0.8097
      9 PA          2.1493   -2.2871   -3.6336 P.3       1 ATP         1.7610
     10 O1A         2.4555   -3.7486   -3.7880 O.2       1 ATP        -0.8554
     11 O2A         0.5901   -1.9079   -3.8415 O.3       1 ATP        -0.8102
     12 O3A         2.9062   -1.3352   -4.7002 O.3       1 ATP        -0.7693
     13 O5'         2.5245   -1.6648   -2.1878 O.3       1 ATP        -0.5757
     14 C5'         2.2816   -0.2918   -1.9206 C.3       1 ATP         0.1911
     15 C4'         2.7248    0.0226   -0.4980 C.3       1 ATP         0.1218
     16 O4'         2.4697    1.4219   -0.2462 O.3       1 ATP        -0.4138
     17 C3'         1.9404   -0.7419    0.5596 C.3       1 ATP         0.1338
     18 O3'         2.7418   -0.8086    1.7389 O.3       1 ATP        -0.5756
     19 C2'         0.7477    0.1630    0.7858 C.3       1 ATP         0.0673
     20 O2'         0.1373   -0.0577    2.0407 O.3       1 ATP        -0.5671
     21 C1'         1.3733    1.5427    0.6747 C.3       1 ATP         0.3795
     22 N9          0.4520    2.5240    0.1767 N.pl3     1 ATP        -0.4175
     23 C8         -0.2004    2.4829   -0.9804 C.ar      1 ATP         0.2552
     24 N7         -0.9830    3.5431   -1.1568 N.pl3     1 ATP        -0.4731
     25 C5         -0.8095    4.3012   -0.0331 C.ar      1 ATP        -0.1295
     26 C6         -1.4065    5.5904    0.3585 C.ar      1 ATP         0.7196
     27 N6         -2.2501    6.2030   -0.4084 N.2       1 ATP        -0.8094
     28 N1         -0.9585    6.0272    1.5994 N.pl3     1 ATP        -0.8312
     29 C2         -0.0508    5.3009    2.3532 C.ar      1 ATP         0.6744
     30 N3          0.4890    4.1592    2.0257 N.2       1 ATP        -0.5937
     31 C4          0.0637    3.7006    0.7995 C.ar      1 ATP         0.2810
     32 HOG3        2.9770   -3.4175   -8.7049 H         1 ATP         0.4152
     33 HOA2        0.1642   -2.1077   -4.7022 H         1 ATP         0.4571
     34 H5'1        2.8432    0.3119   -2.6398 H         1 ATP         0.0465
     35 H5'2        1.2128   -0.0927   -2.0428 H         1 ATP         0.0465
     36 H4'         3.8044   -0.1397   -0.4040 H         1 ATP         0.1379
     37 H3'         1.6764   -1.7639    0.2728 H         1 ATP         0.1317
     38 HO3'        2.2232   -1.2979    2.3953 H         1 ATP         0.4175
     39 H2'        -0.0011    0.0027    0.0003 H         1 ATP         0.0669
     40 HO2'       -0.1563   -0.9855    2.0596 H         1 ATP         0.4064
     41 H1'         1.7826    1.9024    1.6451 H         1 ATP         0.1285
     42 H8         -0.1116    1.6863   -1.6984 H         1 ATP         0.2954
     43 HN62       -2.5420    7.0730    0.0447 H         1 ATP         0.4226
     44 H2          0.1969    5.7893    3.3086 H         1 ATP         0.0826
     45 H45        -1.3097    6.9080    1.9642 H         1 ATP         0.4581
     46 H46        -1.5735    3.7351   -1.9538 H         1 ATP         0.5252
@<TRIPOS>BOND
     1    1    2 2
     2    1    3 1
     3    1    4 1
     4    1    8 1
     5    4   32 1
     6    5    6 2
     7    5    7 1
     8    5    8 1
     9    5   12 1
    10    9   10 2
    11    9   11 1
    12    9   12 1
    13    9   13 1
    14   11   33 1
    15   13   14 1
    16   14   15 1
    17   14   34 1
    18   14   35 1
    19   15   16 1
    20   15   17 1
    21   15   36 1
    22   16   21 1
    23   17   18 1
    24   17   19 1
    25   17   37 1
    26   18   38 1
    27   19   20 1
    28   19   21 1
    29   19   39 1
    30   20   40 1
    31   21   22 1
    32   21   41 1
    33   22   23 ar
    34   22   31 ar
    35   23   24 ar
    36   23   42 1
    37   24   25 ar
    38   24   46 1
    39   25   26 ar
    40   25   31 ar
    41   26   27 2
    42   26   28 ar
    43   27   43 1
    44   28   29 ar
    45   28   45 1
    46   29   30 ar
    47   29   44 1
    48   30   31 ar
@<TRIPOS>SUBSTRUCTURE
     1 ATP         1 GROUP 0 A     ****
@<TRIPOS>MOLECULE
[[[3,4-dihydroxy-5-(6-imino-7,8-dihydro-1~{H}-purin-8-ylium-9-yl)tetrahydrofuran-2-yl]methoxy-hydroxy-phosphoryl]oxy-oxido-phosphoryl] hydrogen phosphate
   46    48     1     0     0
SMALL
USER_CHARGES

@<TRIPOS>ATOM
      1 PG          0.9614   -3.3063   -8.0221 P.3       1 ATP         1.5644
      2 O1G         0.7142   -2.2154   -9.0401 O.co2     1 ATP        -0.8581
      3 O2G        -0.0319   -4.4306   -7.8305 O.co2     1 ATP        -0.8581
      4 O3G         2.4325   -3.9559   -8.3053 O.3       1 ATP        -0.7962
      5 PB          0.3026   -1.7545   -5.5891 P.3       1 ATP         1.6830
      6 O1B        -0.0333   -0.4453   -6.2681 O.co2     1 ATP        -0.8633
      7 O2B        -0.7867   -2.6609   -5.0604 O.co2     1 ATP        -0.8633
      8 O3B         1.2714   -2.6199   -6.5760 O.3       1 ATP        -0.8097
      9 PA          2.1902   -2.4548   -3.4193 P.3       1 ATP         1.7610
     10 O1A         3.1075   -3.3959   -4.1450 O.2       1 ATP        -0.8554
     11 O2A         1.0262   -3.1857   -2.5656 O.3       1 ATP        -0.8102
     12 O3A         1.3656   -1.4550   -4.3874 O.3       1 ATP        -0.7693
     13 O5'         2.9216   -1.4836   -2.3516 O.3       1 ATP        -0.5757
     14 C5'         2.2816   -0.2918   -1.9206 C.3       1 ATP         0.1911
     15 C4'         2.7248    0.0226   -0.4980 C.3       1 ATP         0.1218
     16 O4'         2.4697    1.4219   -0.2462 O.3       1 ATP        -0.4138
     17 C3'         1.9404   -0.7419    0.5596 C.3       1 ATP         0.1338
     18 O3'         2.7418   -0.8086    1.7389 O.3       1 ATP        -0.5756
     19 C2'         0.7477    0.1630    0.7858 C.3       1 ATP         0.0673
     20 O2'         0.1373   -0.0577    2.0407 O.3       1 ATP        -0.5671
     21 C1'         1.3733    1.5427    0.6747 C.3       1 ATP         0.3795
     22 N9          0.4520    2.5240    0.1767 N.pl3     1 ATP        -0.4175
     23 C8          0.2216    2.8192   -1.0985 C.ar      1 ATP         0.2552
     24 N7         -0.6906    3.7763   -1.2384 N.pl3     1 ATP        -0.4731
     25 C5         -1.0575    4.1037    0.0366 C.ar      1 ATP        -0.1295
     26 C6         -2.0291    5.0943    0.5330 C.ar      1 ATP         0.7196
     27 N6         -2.7093    5.8371   -0.2800 N.2       1 ATP        -0.8094
     28 N1         -2.1051    5.1136    1.9204 N.pl3     1 ATP        -0.8312
     29 C2         -1.3354    4.2774    2.7129 C.ar      1 ATP         0.6744
     30 N3         -0.4707    3.3945    2.2944 N.2       1 ATP        -0.5937
     31 C4         -0.3734    3.3525    0.9220 C.ar      1 ATP         0.2810
     32 HOG3        2.7414   -4.6830   -7.7237 H         1 ATP         0.4152
     33 HOA2        0.3854   -3.7621   -3.0340 H         1 ATP         0.4571
     34 H5'1        2.5589    0.5217   -2.5976 H         1 ATP         0.0465
     35 H5'2        1.1982   -0.4388   -1.9617 H         1 ATP         0.0465
     36 H4'         3.8044   -0.1397   -0.4040 H         1 ATP         0.1379
     37 H3'         1.6764   -1.7639    0.2728 H         1 ATP         0.1317
     38 HO3'        2.2232   -1.2979    2.3953 H         1 ATP         0.4175
     39 H2'        -0.0011    0.0027    0.0003 H         1 ATP         0.0669
     40 HO2'       -0.6141    0.5574    2.1082 H         1 ATP         0.4064
     41 H1'         1.7826    1.9024    1.6451 H         1 ATP         0.1285
     42 H8          0.7125    2.3429   -1.9292 H         1 ATP         0.2954
     43 HN62       -3.3217    6.4517    0.2629 H         1 ATP         0.4226
     44 H2         -1.5188    4.4223    3.7890 H         1 ATP         0.0826
     45 H45        -2.7470    5.7626    2.3665 H         1 ATP         0.4581
     46 H46        -1.0305    4.1680   -2.1054 H         1 ATP         0.5252
@<TRIPOS>BOND
     1    1    2 2
     2    1    3 1
     3    1    4 1
     4    1    8 1
     5    4   32 1
     6    5    6 2
     7    5    7 1
     8    5    8 1
     9    5   12 1
    10    9   10 2
    11    9   11 1
    12    9   12 1
    13    9   13 1
    14   11   33 1
    15   13   14 1
    16   14   15 1
    17   14   34 1
    18   14   35 1
    19   15   16 1
    20   15   17 1
    21   15   36 1
    22   16   21 1
    23   17   18 1
    24   17   19 1
    25   17   37 1
    26   18   38 1
    27   19   20 1
    28   19   21 1
    29   19   39 1
    30   20   40 1
    31   21   22 1
    32   21   41 1
    33   22   23 ar
    34   22   31 ar
    35   23   24 ar
    36   23   42 1
    37   24   25 ar
    38   24   46 1
    39   25   26 ar
    40   25   31 ar
    41   26   27 2
    42   26   28 ar
    43   27   43 1
    44   28   29 ar
    45   28   45 1
    46   29   30 ar
    47   29   44 1
    48   30   31 ar
@<TRIPOS>SUBSTRUCTURE
     1 ATP         1 GROUP 0 A     ****
@<TRIPOS>MOLECULE
[[[3,4-dihydroxy-5-(6-imino-7,8-dihydro-1~{H}-purin-8-ylium-9-yl)tetrahydrofuran-2-yl]methoxy-hydroxy-phosphoryl]oxy-oxido-phosphoryl] hydrogen phosphate
   46    48     1     0     0
SMALL
USER_CHARGES

@<TRIPOS>ATOM
      1 PG          2.8994   -0.1250   -7.4770 P.3       1 ATP         1.5644
      2 O1G         2.9821    0.8485   -6.3224 O.co2     1 ATP        -0.8581
      3 O2G         1.6140   -0.3022   -8.2540 O.co2     1 ATP        -0.8581
      4 O3G         4.0997    0.2164   -8.5300 O.3       1 ATP        -0.7962
      5 PB          2.7749   -2.6254   -5.8975 P.3       1 ATP         1.6830
      6 O1B         1.3361   -2.8878   -6.2831 O.co2     1 ATP        -0.8633
      7 O2B         3.7444   -3.7657   -5.6799 O.co2     1 ATP        -0.8633
      8 O3B         3.4220   -1.5858   -6.9756 O.3       1 ATP        -0.8097
      9 PA          4.0072   -0.9371   -3.8018 P.3       1 ATP         1.7610
     10 O1A         5.0554   -0.3590   -4.7078 O.2       1 ATP        -0.8554
     11 O2A         4.5510   -2.0894   -2.8046 O.3       1 ATP        -0.8102
     12 O3A         2.7889   -1.6652   -4.5779 O.3       1 ATP        -0.7693
     13 O5'         3.2903    0.1346   -2.8241 O.3       1 ATP        -0.5757
     14 C5'         2.2816   -0.2918   -1.9206 C.3       1 ATP         0.1911
     15 C4'         2.7248    0.0226   -0.4980 C.3       1 ATP         0.1218
     16 O4'         2.4697    1.4219   -0.2462 O.3       1 ATP        -0.4138
     17 C3'         1.9404   -0.7419    0.5596 C.3       1 ATP         0.1338
     18 O3'         2.7418   -0.8086    1.7389 O.3       1 ATP        -0.5756
     19 C2'         0.7477    0.1630    0.7858 C.3       1 ATP         0.0673
     20 O2'         0.1373   -0.0577    2.0407 O.3       1 ATP        -0.5671
     21 C1'         1.3733    1.5427    0.6747 C.3       1 ATP         0.3795
     22 N9          0.4520    2.5240    0.1767 N.pl3     1 ATP        -0.4175
     23 C8          0.2216    2.8192   -1.0985 C.ar      1 ATP         0.2552
     24 N7         -0.6906    3.7763   -1.2384 N.pl3     1 ATP        -0.4731
     25 C5         -1.0575    4.1037    0.0366 C.ar      1 ATP        -0.1295
     26 C6         -2.0291    5.0943    0.5330 C.ar      1 ATP         0.7196
     27 N6         -2.7093    5.8371   -0.2800 N.2       1 ATP        -0.8094
     28 N1         -2.1051    5.1136    1.9204 N.pl3     1 ATP        -0.8312
     29 C2         -1.3354    4.2774    2.7129 C.ar      1 ATP         0.6744
     30 N3         -0.4707    3.3945    2.2944 N.2       1 ATP        -0.5937
     31 C4         -0.3734    3.3525    0.9220 C.ar      1 ATP         0.2810
     32 HOG3        4.1806   -0.3322   -9.3393 H         1 ATP         0.4152
     33 HOA2        5.2614   -1.8670   -2.1658 H         1 ATP         0.4571
     34 H5'1        1.3514    0.2330   -2.1577 H         1 ATP         0.0465
     35 H5'2        2.1280   -1.3678   -2.0460 H         1 ATP         0.0465
     36 H4'         3.8044   -0.1397   -0.4040 H         1 ATP         0.1379
     37 H3'         1.6764   -1.7639    0.2728 H         1 ATP         0.1317
     38 HO3'        2.2232   -1.2979    2.3953 H         1 ATP         0.4175
     39 H2'        -0.0011    0.0027    0.0003 H         1 ATP         0.0669
     40 HO2'       -0.6141    0.5574    2.1082 H         1 ATP         0.4064
     41 H1'         1.7826    1.9024    1.6451 H         1 ATP         0.1285
     42 H8          0.7125    2.3429   -1.9292 H         1 ATP         0.2954
     43 HN62       -3.3217    6.4517    0.2629 H         1 ATP         0.4226
     44 H2         -1.5188    4.4223    3.7890 H         1 ATP         0.0826
     45 H45        -2.7470    5.7626    2.3665 H         1 ATP         0.4581
     46 H46        -1.0305    4.1680   -2.1054 H         1 ATP         0.5252
@<TRIPOS>BOND
     1    1    2 2
     2    1    3 1
     3    1    4 1
     4    1    8 1
     5    4   32 1
     6    5    6 2
     7    5    7 1
     8    5    8 1
     9    5   12 1
    10    9   10 2
    11    9   11 1
    12    9   12 1
    13    9   13 1
    14   11   33 1
    15   13   14 1
    16   14   15 1
    17   14   34 1
    18   14   35 1
    19   15   16 1
    20   15   17 1
    21   15   36 1
    22   16   21 1
    23   17   18 1
    24   17   19 1
    25   17   37 1
    26   18   38 1
    27   19   20 1
    28   19   21 1
    29   19   39 1
    30   20   40 1
    31   21   22 1
    32   21   41 1
    33   22   23 ar
    34   22   31 ar
    35   23   24 ar
    36   23   42 1
    37   24   25 ar
    38   24   46 1
    39   25   26 ar
    40   25   31 ar
    41   26   27 2
    42   26   28 ar
    43   27   43 1
    44   28   29 ar
    45   28   45 1
    46   29   30 ar
    47   29   44 1
    48   30   31 ar
@<TRIPOS>SUBSTRUCTURE
     1 ATP         1 GROUP 0 A     ****
@<TRIPOS>MOLECULE
[[[3,4-dihydroxy-5-(6-imino-7,8-dihydro-1~{H}-purin-8-ylium-9-yl)tetrahydrofuran-2-yl]methoxy-hydroxy-phosphoryl]oxy-oxido-phosphoryl] hydrogen phosphate
   46    48     1     0     0
SMALL
USER_CHARGES

@<TRIPOS>ATOM
      1 PG         -1.3061   -0.0950   -5.5578 P.3       1 ATP         1.5644
      2 O1G        -2.5642   -0.9108   -5.3593 O.co2     1 ATP        -0.8581
      3 O2G        -1.3363    1.2055   -6.3293 O.co2     1 ATP        -0.8581
      4 O3G        -0.6332    0.1839   -4.0964 O.3       1 ATP        -0.7962
      5 PB          1.4350   -0.7595   -6.4560 P.3       1 ATP         1.6830
      6 O1B         2.0998   -2.0472   -6.8889 O.co2     1 ATP        -0.8633
      7 O2B         1.5568    0.4987   -7.2866 O.co2     1 ATP        -0.8633
      8 O3B        -0.1458   -1.0556   -6.1819 O.3       1 ATP        -0.8097
      9 PA          3.3429   -0.0249   -4.3155 P.3       1 ATP         1.7610
     10 O1A         4.1316    0.9232   -5.1715 O.2       1 ATP        -0.8554
     11 O2A         4.0556   -1.4579   -4.0783 O.3       1 ATP        -0.8102
     12 O3A         1.9004   -0.4266   -4.9275 O.3       1 ATP        -0.7693
     13 O5'         3.0213    0.5153   -2.8245 O.3       1 ATP        -0.5757
     14 C5'         2.2816   -0.2918   -1.9206 C.3       1 ATP         0.1911
     15 C4'         2.7248    0.0226   -0.4980 C.3       1 ATP         0.1218
     16 O4'         2.4697    1.4219   -0.2462 O.3       1 ATP        -0.4138
     17 C3'         1.9404   -0.7419    0.5596 C.3       1 ATP         0.1338
     18 O3'         2.7418   -0.8086    1.7389 O.3       1 ATP        -0.5756
     19 C2'         0.7477    0.1630    0.7858 C.3       1 ATP         0.0673
     20 O2'         0.1373   -0.0577    2.0407 O.3       1 ATP        -0.5671
     21 C1'         1.3733    1.5427    0.6747 C.3       1 ATP         0.3795
     22 N9          0.4520    2.5240    0.1767 N.pl3     1 ATP        -0.4175
     23 C8         -0.2004    2.4829   -0.9804 C.ar      1 ATP         0.2552
     24 N7         -0.9830    3.5431   -1.1568 N.pl3     1 ATP        -0.4731
     25 C5         -0.8095    4.3012   -0.0331 C.ar      1 ATP        -0.1295
     26 C6         -1.4065    5.5904    0.3585 C.ar      1 ATP         0.7196
     27 N6         -2.2501    6.2030   -0.4084 N.2       1 ATP        -0.8094
     28 N1         -0.9585    6.0272    1.5994 N.pl3     1 ATP        -0.8312
     29 C2         -0.0508    5.3009    2.3532 C.ar      1 ATP         0.6744
     30 N3          0.4890    4.1592    2.0257 N.2       1 ATP        -0.5937
     31 C4          0.0637    3.7006    0.7995 C.ar      1 ATP         0.2810
     32 HOG3        0.1969    0.7051   -4.0567 H         1 ATP         0.4152
     33 HOA2        4.2608   -2.0199   -4.8557 H         1 ATP         0.4571
     34 H5'1        1.2163   -0.0770   -2.0471 H         1 ATP         0.0465
     35 H5'2        2.4655   -1.3443   -2.1563 H         1 ATP         0.0465
     36 H4'         3.8044   -0.1397   -0.4040 H         1 ATP         0.1379
     37 H3'         1.6764   -1.7639    0.2728 H         1 ATP         0.1317
     38 HO3'        2.2232   -1.2979    2.3953 H         1 ATP         0.4175
     39 H2'        -0.0011    0.0027    0.0003 H         1 ATP         0.0669
     40 HO2'       -0.1563   -0.9855    2.0596 H         1 ATP         0.4064
     41 H1'         1.7826    1.9024    1.6451 H         1 ATP         0.1285
     42 H8         -0.1116    1.6863   -1.6984 H         1 ATP         0.2954
     43 HN62       -2.5420    7.0730    0.0447 H         1 ATP         0.4226
     44 H2          0.1969    5.7893    3.3086 H         1 ATP         0.0826
     45 H45        -1.3097    6.9080    1.9642 H         1 ATP         0.4581
     46 H46        -1.5735    3.7351   -1.9538 H         1 ATP         0.5252
@<TRIPOS>BOND
     1    1    2 2
     2    1    3 1
     3    1    4 1
     4    1    8 1
     5    4   32 1
     6    5    6 2
     7    5    7 1
     8    5    8 1
     9    5   12 1
    10    9   10 2
    11    9   11 1
    12    9   12 1
    13    9   13 1
    14   11   33 1
    15   13   14 1
    16   14   15 1
    17   14   34 1
    18   14   35 1
    19   15   16 1
    20   15   17 1
    21   15   36 1
    22   16   21 1
    23   17   18 1
    24   17   19 1
    25   17   37 1
    26   18   38 1
    27   19   20 1
    28   19   21 1
    29   19   39 1
    30   20   40 1
    31   21   22 1
    32   21   41 1
    33   22   23 ar
    34   22   31 ar
    35   23   24 ar
    36   23   42 1
    37   24   25 ar
    38   24   46 1
    39   25   26 ar
    40   25   31 ar
    41   26   27 2
    42   26   28 ar
    43   27   43 1
    44   28   29 ar
    45   28   45 1
    46   29   30 ar
    47   29   44 1
    48   30   31 ar
@<TRIPOS>SUBSTRUCTURE
     1 ATP         1 GROUP 0 A     ****
@<TRIPOS>MOLECULE
[[[3,4-dihydroxy-5-(6-imino-7,8-dihydro-1~{H}-purin-8-ylium-9-yl)tetrahydrofuran-2-yl]methoxy-hydroxy-phosphoryl]oxy-oxido-phosphoryl] hydrogen phosphate
   46    48     1     0     0
SMALL
USER_CHARGES

@<TRIPOS>ATOM
      1 PG         -6.0863   -4.2916    2.6150 P.3       1 ATP         1.5644
      2 O1G        -6.7945   -2.9802    2.8724 O.co2     1 ATP        -0.8581
      3 O2G        -6.8293   -5.4767    2.0396 O.co2     1 ATP        -0.8581
      4 O3G        -4.7759   -3.9994    1.6856 O.3       1 ATP        -0.7962
      5 PB         -4.2899   -5.9927    4.2401 P.3       1 ATP         1.6830
      6 O1B        -3.7374   -5.8719    5.6430 O.co2     1 ATP        -0.8633
      7 O2B        -4.9374   -7.2742    3.7645 O.co2     1 ATP        -0.8633
      8 O3B        -5.3209   -4.7558    3.9778 O.3       1 ATP        -0.8097
      9 PA         -1.7101   -6.2838    2.8184 P.3       1 ATP         1.7610
     10 O1A        -1.8467   -7.6794    2.2823 O.2       1 ATP        -0.8554
     11 O2A        -0.8728   -6.1797    4.1989 O.3       1 ATP        -0.8102
     12 O3A        -3.1168   -5.5743    3.1854 O.3       1 ATP        -0.7693
     13 O5'        -0.9724   -5.2440    1.8220 O.3       1 ATP        -0.5757
     14 C5'        -0.7840   -3.8935    2.2172 C.3       1 ATP         0.1911
     15 C4'        -0.0724   -3.1466    1.1027 C.3       1 ATP         0.1218
     16 O4'        -0.8674   -3.1929   -0.0945 O.3       1 ATP        -0.4138
     17 C3'         0.1338   -1.6715    1.4027 C.3       1 ATP         0.1338
     18 O3'         1.2893   -1.4445    2.1808 O.3       1 ATP        -0.5756
     19 C2'         0.2158   -1.0724    0.0128 C.3       1 ATP         0.0673
     20 O2'         1.5141   -1.2448   -0.5513 O.3       1 ATP        -0.5671
     21 C1'        -0.7897   -1.9176   -0.7583 C.3       1 ATP         0.3795
     22 N9         -2.1040   -1.3333   -0.7704 N.pl3     1 ATP        -0.4175
     23 C8         -3.0590   -1.5123    0.1363 C.ar      1 ATP         0.2552
     24 N7         -4.1655   -0.8354   -0.1554 N.pl3     1 ATP        -0.4731
     25 C5         -3.8852   -0.1874   -1.3253 C.ar      1 ATP        -0.1295
     26 C6         -4.7113    0.7160   -2.1458 C.ar      1 ATP         0.7196
     27 N6         -5.9213    1.0209   -1.8021 N.2       1 ATP        -0.8094
     28 N1         -4.0411    1.1673   -3.2764 N.pl3     1 ATP        -0.8312
     29 C2         -2.7403    0.7865   -3.5638 C.ar      1 ATP         0.6744
     30 N3         -1.9921   -0.0108   -2.8519 N.2       1 ATP        -0.5937
     31 C4         -2.6302   -0.4747   -1.7239 C.ar      1 ATP         0.2810
     32 HOG3       -4.2072   -4.7566    1.4295 H         1 ATP         0.4152
     33 HOA2       -1.1984   -6.6622    4.9885 H         1 ATP         0.4571
     34 H5'1       -1.7618   -3.4448    2.4164 H         1 ATP         0.0465
     35 H5'2       -0.1874   -3.8744    3.1341 H         1 ATP         0.0465
     36 H4'         0.8874   -3.6466    0.8805 H         1 ATP         0.1379
     37 H3'        -0.7376   -1.2333    1.9867 H         1 ATP         0.1317
     38 HO3'        1.1626   -1.9325    3.0084 H         1 ATP         0.4175
     39 H2'        -0.0384   -0.0310    0.0096 H         1 ATP         0.0669
     40 HO2'        1.4998   -0.8412   -1.4369 H         1 ATP         0.4064
     41 H1'        -0.4769   -2.1002   -1.8093 H         1 ATP         0.1285
     42 H8         -2.9569   -2.1323    1.0098 H         1 ATP         0.2954
     43 HN62       -6.3169    1.6552   -2.5012 H         1 ATP         0.4226
     44 H2         -2.3612    1.2343   -4.4957 H         1 ATP         0.0826
     45 H45        -4.5223    1.7976   -3.9117 H         1 ATP         0.4581
     46 H46        -5.0218   -0.8132    0.3804 H         1 ATP         0.5252
@<TRIPOS>BOND
     1    1    2 2
     2    1    3 1
     3    1    4 1
     4    1    8 1
     5    4   32 1
     6    5    6 2
     7    5    7 1
     8    5    8 1
     9    5   12 1
    10    9   10 2
    11    9   11 1
    12    9   12 1
    13    9   13 1
    14   11   33 1
    15   13   14 1
    16   14   15 1
    17   14   34 1
    18   14   35 1
    19   15   16 1
    20   15   17 1
    21   15   36 1
    22   16   21 1
    23   17   18 1
    24   17   19 1
    25   17   37 1
    26   18   38 1
    27   19   20 1
    28   19   21 1
    29   19   39 1
    30   20   40 1
    31   21   22 1
    32   21   41 1
    33   22   23 ar
    34   22   31 ar
    35   23   24 ar
    36   23   42 1
    37   24   25 ar
    38   24   46 1
    39   25   26 ar
    40   25   31 ar
    41   26   27 2
    42   26   28 ar
    43   27   43 1
    44   28   29 ar
    45   28   45 1
    46   29   30 ar
    47   29   44 1
    48   30   31 ar
@<TRIPOS>SUBSTRUCTURE
     1 ATP         1 GROUP 0 A     ****
@<TRIPOS>MOLECULE
[[[3,4-dihydroxy-5-(6-imino-7,8-dihydro-1~{H}-purin-8-ylium-9-yl)tetrahydrofuran-2-yl]methoxy-hydroxy-phosphoryl]oxy-oxido-phosphoryl] hydrogen phosphate
   46    48     1     0     0
SMALL
USER_CHARGES

@<TRIPOS>ATOM
      1 PG         -5.8175   -5.6228    1.8945 P.3       1 ATP         1.5644
      2 O1G        -4.6766   -5.3417    0.9422 O.co2     1 ATP        -0.8581
      3 O2G        -7.0722   -4.7785    1.8755 O.co2     1 ATP        -0.8581
      4 O3G        -6.2450   -7.1914    1.7426 O.3       1 ATP        -0.7962
      5 PB         -4.0094   -6.5452    4.0490 P.3       1 ATP         1.6830
      6 O1B        -3.7766   -6.0893    5.4722 O.co2     1 ATP        -0.8633
      7 O2B        -4.2327   -8.0055    3.7244 O.co2     1 ATP        -0.8633
      8 O3B        -5.2355   -5.6743    3.4167 O.3       1 ATP        -0.8097
      9 PA         -1.2134   -6.3366    3.1002 P.3       1 ATP         1.7610
     10 O1A        -0.9113   -7.7788    2.8130 O.2       1 ATP        -0.8554
     11 O2A        -0.7009   -5.8243    4.5469 O.3       1 ATP        -0.8102
     12 O3A        -2.7914   -5.9813    3.1204 O.3       1 ATP        -0.7693
     13 O5'        -0.5687   -5.2869    2.0510 O.3       1 ATP        -0.5757
     14 C5'        -0.7840   -3.8935    2.2172 C.3       1 ATP         0.1911
     15 C4'        -0.0724   -3.1466    1.1027 C.3       1 ATP         0.1218
     16 O4'        -0.8674   -3.1929   -0.0945 O.3       1 ATP        -0.4138
     17 C3'         0.1338   -1.6715    1.4027 C.3       1 ATP         0.1338
     18 O3'         1.2893   -1.4445    2.1808 O.3       1 ATP        -0.5756
     19 C2'         0.2158   -1.0724    0.0128 C.3       1 ATP         0.0673
     20 O2'         1.5141   -1.2448   -0.5513 O.3       1 ATP        -0.5671
     21 C1'        -0.7897   -1.9176   -0.7583 C.3       1 ATP         0.3795
     22 N9         -2.1040   -1.3333   -0.7704 N.pl3     1 ATP        -0.4175
     23 C8         -3.0590   -1.5123    0.1363 C.ar      1 ATP         0.2552
     24 N7         -4.1655   -0.8354   -0.1554 N.pl3     1 ATP        -0.4731
     25 C5         -3.8852   -0.1874   -1.3253 C.ar      1 ATP        -0.1295
     26 C6         -4.7113    0.7160   -2.1458 C.ar      1 ATP         0.7196
     27 N6         -5.9213    1.0209   -1.8021 N.2       1 ATP        -0.8094
     28 N1         -4.0411    1.1673   -3.2764 N.pl3     1 ATP        -0.8312
     29 C2         -2.7403    0.7865   -3.5638 C.ar      1 ATP         0.6744
     30 N3         -1.9921   -0.0108   -2.8519 N.2       1 ATP        -0.5937
     31 C4         -2.6302   -0.4747   -1.7239 C.ar      1 ATP         0.2810
     32 HOG3       -6.9780   -7.5313    2.2989 H         1 ATP         0.4152
     33 HOA2        0.2569   -5.8691    4.7537 H         1 ATP         0.4571
     34 H5'1       -1.8598   -3.6968    2.1850 H         1 ATP         0.0465
     35 H5'2       -0.3933   -3.5903    3.1931 H         1 ATP         0.0465
     36 H4'         0.8874   -3.6466    0.8805 H         1 ATP         0.1379
     37 H3'        -0.7376   -1.2333    1.9867 H         1 ATP         0.1317
     38 HO3'        1.3408   -0.4870    2.3219 H         1 ATP         0.4175
     39 H2'        -0.0384   -0.0310    0.0096 H         1 ATP         0.0669
     40 HO2'        2.1463   -0.7958    0.0370 H         1 ATP         0.4064
     41 H1'        -0.4769   -2.1002   -1.8093 H         1 ATP         0.1285
     42 H8         -2.9569   -2.1323    1.0098 H         1 ATP         0.2954
     43 HN62       -6.3169    1.6552   -2.5012 H         1 ATP         0.4226
     44 H2         -2.3612    1.2343   -4.4957 H         1 ATP         0.0826
     45 H45        -4.5223    1.7976   -3.9117 H         1 ATP         0.4581
     46 H46        -5.0218   -0.8132    0.3804 H         1 ATP         0.5252
@<TRIPOS>BOND
     1    1    2 2
     2    1    3 1
     3    1    4 1
     4    1    8 1
     5    4   32 1
     6    5    6 2
     7    5    7 1
     8    5    8 1
     9    5   12 1
    10    9   10 2
    11    9   11 1
    12    9   12 1
    13    9   13 1
    14   11   33 1
    15   13   14 1
    16   14   15 1
    17   14   34 1
    18   14   35 1
    19   15   16 1
    20   15   17 1
    21   15   36 1
    22   16   21 1
    23   17   18 1
    24   17   19 1
    25   17   37 1
    26   18   38 1
    27   19   20 1
    28   19   21 1
    29   19   39 1
    30   20   40 1
    31   21   22 1
    32   21   41 1
    33   22   23 ar
    34   22   31 ar
    35   23   24 ar
    36   23   42 1
    37   24   25 ar
    38   24   46 1
    39   25   26 ar
    40   25   31 ar
    41   26   27 2
    42   26   28 ar
    43   27   43 1
    44   28   29 ar
    45   28   45 1
    46   29   30 ar
    47   29   44 1
    48   30   31 ar
@<TRIPOS>SUBSTRUCTURE
     1 ATP         1 GROUP 0 A     ****
@<TRIPOS>MOLECULE
[[[3,4-dihydroxy-5-(6-imino-7,8-dihydro-1~{H}-purin-8-ylium-9-yl)tetrahydrofuran-2-yl]methoxy-hydroxy-phosphoryl]oxy-oxido-phosphoryl] hydrogen phosphate
   46    48     1     0     0
SMALL
USER_CHARGES

@<TRIPOS>ATOM
      1 PG          1.1016   -1.8770   -8.3405 P.3       1 ATP         1.5644
      2 O1G        -0.4058   -1.7549   -8.3156 O.co2     1 ATP        -0.8581
      3 O2G         1.7737   -3.0860   -8.9522 O.co2     1 ATP        -0.8581
      4 O3G         1.7191   -0.5336   -9.0334 O.3       1 ATP        -0.7962
      5 PB          3.2099   -1.5316   -6.2917 P.3       1 ATP         1.6830
      6 O1B         3.9018   -2.8624   -6.4861 O.co2     1 ATP        -0.8633
      7 O2B         3.8105   -0.2536   -6.8338 O.co2     1 ATP        -0.8633
      8 O3B         1.6750   -1.6587   -6.8299 O.3       1 ATP        -0.8097
      9 PA          2.1493   -2.2871   -3.6336 P.3       1 ATP         1.7610
     10 O1A         2.4555   -3.7486   -3.7880 O.2       1 ATP        -0.8554
     11 O2A         0.5901   -1.9079   -3.8415 O.3       1 ATP        -0.8102
     12 O3A         2.9062   -1.3352   -4.7002 O.3       1 ATP        -0.7693
     13 O5'         2.5245   -1.6648   -2.1878 O.3       1 ATP        -0.5757
     14 C5'         2.2816   -0.2918   -1.9206 C.3       1 ATP         0.1911
     15 C4'         2.7248    0.0226   -0.4980 C.3       1 ATP         0.1218
     16 O4'         2.4697    1.4219   -0.2462 O.3       1 ATP        -0.4138
     17 C3'         1.9404   -0.7419    0.5596 C.3       1 ATP         0.1338
     18 O3'         2.7418   -0.8086    1.7389 O.3       1 ATP        -0.5756
     19 C2'         0.7477    0.1630    0.7858 C.3       1 ATP         0.0673
     20 O2'         0.1373   -0.0577    2.0407 O.3       1 ATP        -0.5671
     21 C1'         1.3733    1.5427    0.6747 C.3       1 ATP         0.3795
     22 N9          0.4520    2.5240    0.1767 N.pl3     1 ATP        -0.4175
     23 C8         -0.2004    2.4829   -0.9804 C.ar      1 ATP         0.2552
     24 N7         -0.9830    3.5431   -1.1568 N.pl3     1 ATP        -0.4731
     25 C5         -0.8095    4.3012   -0.0331 C.ar      1 ATP        -0.1295
     26 C6         -1.4065    5.5904    0.3585 C.ar      1 ATP         0.7196
     27 N6         -2.2501    6.2030   -0.4084 N.2       1 ATP        -0.8094
     28 N1         -0.9585    6.0272    1.5994 N.pl3     1 ATP        -0.8312
     29 C2         -0.0508    5.3009    2.3532 C.ar      1 ATP         0.6744
     30 N3          0.4890    4.1592    2.0257 N.2       1 ATP        -0.5937
     31 C4          0.0637    3.7006    0.7995 C.ar      1 ATP         0.2810
     32 HOG3        2.6933   -0.4608   -9.1239 H         1 ATP         0.4152
     33 HOA2        0.1642   -2.1077   -4.7022 H         1 ATP         0.4571
     34 H5'1        2.8432    0.3119   -2.6398 H         1 ATP         0.0465
     35 H5'2        1.2128   -0.0927   -2.0428 H         1 ATP         0.0465
     36 H4'         3.8044   -0.1397   -0.4040 H         1 ATP         0.1379
     37 H3'         1.6764   -1.7639    0.2728 H         1 ATP         0.1317
     38 HO3'        3.5554   -1.2733    1.4914 H         1 ATP         0.4175
     39 H2'        -0.0011    0.0027    0.0003 H         1 ATP         0.0669
     40 HO2'       -0.6141    0.5574    2.1082 H         1 ATP         0.4064
     41 H1'         1.7826    1.9024    1.6451 H         1 ATP         0.1285
     42 H8         -0.1116    1.6863   -1.6984 H         1 ATP         0.2954
     43 HN62       -2.5420    7.0730    0.0447 H         1 ATP         0.4226
     44 H2          0.1969    5.7893    3.3086 H         1 ATP         0.0826
     45 H45        -1.3097    6.9080    1.9642 H         1 ATP         0.4581
     46 H46        -1.5735    3.7351   -1.9538 H         1 ATP         0.5252
@<TRIPOS>BOND
     1    1    2 2
     2    1    3 1
     3    1    4 1
     4    1    8 1
     5    4   32 1
     6    5    6 2
     7    5    7 1
     8    5    8 1
     9    5   12 1
    10    9   10 2
    11    9   11 1
    12    9   12 1
    13    9   13 1
    14   11   33 1
    15   13   14 1
    16   14   15 1
    17   14   34 1
    18   14   35 1
    19   15   16 1
    20   15   17 1
    21   15   36 1
    22   16   21 1
    23   17   18 1
    24   17   19 1
    25   17   37 1
    26   18   38 1
    27   19   20 1
    28   19   21 1
    29   19   39 1
    30   20   40 1
    31   21   22 1
    32   21   41 1
    33   22   23 ar
    34   22   31 ar
    35   23   24 ar
    36   23   42 1
    37   24   25 ar
    38   24   46 1
    39   25   26 ar
    40   25   31 ar
    41   26   27 2
    42   26   28 ar
    43   27   43 1
    44   28   29 ar
    45   28   45 1
    46   29   30 ar
    47   29   44 1
    48   30   31 ar
@<TRIPOS>SUBSTRUCTURE
     1 ATP         1 GROUP 0 A     ****
@<TRIPOS>MOLECULE
[[[3,4-dihydroxy-5-(6-imino-7,8-dihydro-1~{H}-purin-8-ylium-9-yl)tetrahydrofuran-2-yl]methoxy-hydroxy-phosphoryl]oxy-oxido-phosphoryl] hydrogen phosphate
   46    48     1     0     0
SMALL
USER_CHARGES

@<TRIPOS>ATOM
      1 PG         -0.3612   -8.4282    7.6488 P.3       1 ATP         1.5644
      2 O1G        -0.1013   -9.8350    7.1579 O.co2     1 ATP        -0.8581
      3 O2G        -1.5326   -8.1253    8.5563 O.co2     1 ATP        -0.8581
      4 O3G         1.0002   -7.8651    8.3530 O.3       1 ATP        -0.7962
      5 PB         -1.4823   -7.3197    5.1436 P.3       1 ATP         1.6830
      6 O1B        -1.3754   -8.5718    4.3019 O.co2     1 ATP        -0.8633
      7 O2B        -2.8130   -6.8661    5.7014 O.co2     1 ATP        -0.8633
      8 O3B        -0.4082   -7.4211    6.3674 O.3       1 ATP        -0.8097
      9 PA         -0.4992   -4.5557    4.7496 P.3       1 ATP         1.7610
     10 O1A         0.4335   -4.4255    5.9187 O.2       1 ATP        -0.8554
     11 O2A        -1.9724   -3.9355    5.0008 O.3       1 ATP        -0.8102
     12 O3A        -0.8105   -6.0830    4.3171 O.3       1 ATP        -0.7693
     13 O5'         0.0118   -3.8395    3.3916 O.3       1 ATP        -0.5757
     14 C5'        -0.7840   -3.8935    2.2172 C.3       1 ATP         0.1911
     15 C4'        -0.0724   -3.1466    1.1027 C.3       1 ATP         0.1218
     16 O4'        -0.8674   -3.1929   -0.0945 O.3       1 ATP        -0.4138
     17 C3'         0.1338   -1.6715    1.4027 C.3       1 ATP         0.1338
     18 O3'         1.2893   -1.4445    2.1808 O.3       1 ATP        -0.5756
     19 C2'         0.2158   -1.0724    0.0128 C.3       1 ATP         0.0673
     20 O2'         1.5141   -1.2448   -0.5513 O.3       1 ATP        -0.5671
     21 C1'        -0.7897   -1.9176   -0.7583 C.3       1 ATP         0.3795
     22 N9         -2.1040   -1.3333   -0.7704 N.pl3     1 ATP        -0.4175
     23 C8         -3.0590   -1.5123    0.1363 C.ar      1 ATP         0.2552
     24 N7         -4.1655   -0.8354   -0.1554 N.pl3     1 ATP        -0.4731
     25 C5         -3.8852   -0.1874   -1.3253 C.ar      1 ATP        -0.1295
     26 C6         -4.7113    0.7160   -2.1458 C.ar      1 ATP         0.7196
     27 N6         -5.9213    1.0209   -1.8021 N.2       1 ATP        -0.8094
     28 N1         -4.0411    1.1673   -3.2764 N.pl3     1 ATP        -0.8312
     29 C2         -2.7403    0.7865   -3.5638 C.ar      1 ATP         0.6744
     30 N3         -1.9921   -0.0108   -2.8519 N.2       1 ATP        -0.5937
     31 C4         -2.6302   -0.4747   -1.7239 C.ar      1 ATP         0.2810
     32 HOG3        0.9920   -6.9574    8.7250 H         1 ATP         0.4152
     33 HOA2       -2.0553   -2.9813    5.2126 H         1 ATP         0.4571
     34 H5'1       -0.9348   -4.9415    1.9415 H         1 ATP         0.0465
     35 H5'2       -1.7548   -3.4350    2.4278 H         1 ATP         0.0465
     36 H4'         0.8874   -3.6466    0.8805 H         1 ATP         0.1379
     37 H3'        -0.7376   -1.2333    1.9867 H         1 ATP         0.1317
     38 HO3'        1.1626   -1.9325    3.0084 H         1 ATP         0.4175
     39 H2'        -0.0384   -0.0310    0.0096 H         1 ATP         0.0669
     40 HO2'        2.1463   -0.7958    0.0370 H         1 ATP         0.4064
     41 H1'        -0.4769   -2.1002   -1.8093 H         1 ATP         0.1285
     42 H8         -2.9569   -2.1323    1.0098 H         1 ATP         0.2954
     43 HN62       -6.3169    1.6552   -2.5012 H         1 ATP         0.4226
     44 H2         -2.3612    1.2343   -4.4957 H         1 ATP         0.0826
     45 H45        -4.5223    1.7976   -3.9117 H         1 ATP         0.4581
     46 H46        -5.0218   -0.8132    0.3804 H         1 ATP         0.5252
@<TRIPOS>BOND
     1    1    2 2
     2    1    3 1
     3    1    4 1
     4    1    8 1
     5    4   32 1
     6    5    6 2
     7    5    7 1
     8    5    8 1
     9    5   12 1
    10    9   10 2
    11    9   11 1
    12    9   12 1
    13    9   13 1
    14   11   33 1
    15   13   14 1
    16   14   15 1
    17   14   34 1
    18   14   35 1
    19   15   16 1
    20   15   17 1
    21   15   36 1
    22   16   21 1
    23   17   18 1
    24   17   19 1
    25   17   37 1
    26   18   38 1
    27   19   20 1
    28   19   21 1
    29   19   39 1
    30   20   40 1
    31   21   22 1
    32   21   41 1
    33   22   23 ar
    34   22   31 ar
    35   23   24 ar
    36   23   42 1
    37   24   25 ar
    38   24   46 1
    39   25   26 ar
    40   25   31 ar
    41   26   27 2
    42   26   28 ar
    43   27   43 1
    44   28   29 ar
    45   28   45 1
    46   29   30 ar
    47   29   44 1
    48   30   31 ar
@<TRIPOS>SUBSTRUCTURE
     1 ATP         1 GROUP 0 A     ****
@<TRIPOS>MOLECULE
[[[3,4-dihydroxy-5-(6-imino-7,8-dihydro-1~{H}-purin-8-ylium-9-yl)tetrahydrofuran-2-yl]methoxy-hydroxy-phosphoryl]oxy-oxido-phosphoryl] hydrogen phosphate
   46    48     1     0     0
SMALL
USER_CHARGES

@<TRIPOS>ATOM
      1 PG         -1.0331    0.3606   -7.1717 P.3       1 ATP         1.5644
      2 O1G        -0.8518    1.8588   -7.2714 O.co2     1 ATP        -0.8581
      3 O2G        -2.4058   -0.2458   -6.9838 O.co2     1 ATP        -0.8581
      4 O3G        -0.3323   -0.3342   -8.4726 O.3       1 ATP        -0.7962
      5 PB          0.3026   -1.7545   -5.5891 P.3       1 ATP         1.6830
      6 O1B        -0.9396   -2.3719   -4.9862 O.co2     1 ATP        -0.8633
      7 O2B         1.0339   -2.4280   -6.7290 O.co2     1 ATP        -0.8633
      8 O3B        -0.0354   -0.2173   -6.0187 O.3       1 ATP        -0.8097
      9 PA          2.1902   -2.4548   -3.4193 P.3       1 ATP         1.7610
     10 O1A         3.1075   -3.3959   -4.1450 O.2       1 ATP        -0.8554
     11 O2A         1.0262   -3.1857   -2.5656 O.3       1 ATP        -0.8102
     12 O3A         1.3656   -1.4550   -4.3874 O.3       1 ATP        -0.7693
     13 O5'         2.9216   -1.4836   -2.3516 O.3       1 ATP        -0.5757
     14 C5'         2.2816   -0.2918   -1.9206 C.3       1 ATP         0.1911
     15 C4'         2.7248    0.0226   -0.4980 C.3       1 ATP         0.1218
     16 O4'         2.4697    1.4219   -0.2462 O.3       1 ATP        -0.4138
     17 C3'         1.9404   -0.7419    0.5596 C.3       1 ATP         0.1338
     18 O3'         2.7418   -0.8086    1.7389 O.3       1 ATP        -0.5756
     19 C2'         0.7477    0.1630    0.7858 C.3       1 ATP         0.0673
     20 O2'         0.1373   -0.0577    2.0407 O.3       1 ATP        -0.5671
     21 C1'         1.3733    1.5427    0.6747 C.3       1 ATP         0.3795
     22 N9          0.4520    2.5240    0.1767 N.pl3     1 ATP        -0.4175
     23 C8          0.2216    2.8192   -1.0985 C.ar      1 ATP         0.2552
     24 N7         -0.6906    3.7763   -1.2384 N.pl3     1 ATP        -0.4731
     25 C5         -1.0575    4.1037    0.0366 C.ar      1 ATP        -0.1295
     26 C6         -2.0291    5.0943    0.5330 C.ar      1 ATP         0.7196
     27 N6         -2.7093    5.8371   -0.2800 N.2       1 ATP        -0.8094
     28 N1         -2.1051    5.1136    1.9204 N.pl3     1 ATP        -0.8312
     29 C2         -1.3354    4.2774    2.7129 C.ar      1 ATP         0.6744
     30 N3         -0.4707    3.3945    2.2944 N.2       1 ATP        -0.5937
     31 C4         -0.3734    3.3525    0.9220 C.ar      1 ATP         0.2810
     32 HOG3       -0.3651   -1.3112   -8.5542 H         1 ATP         0.4152
     33 HOA2        0.3854   -3.7621   -3.0340 H         1 ATP         0.4571
     34 H5'1        2.5589    0.5217   -2.5976 H         1 ATP         0.0465
     35 H5'2        1.1982   -0.4388   -1.9617 H         1 ATP         0.0465
     36 H4'         3.8044   -0.1397   -0.4040 H         1 ATP         0.1379
     37 H3'         1.6764   -1.7639    0.2728 H         1 ATP         0.1317
     38 HO3'        2.2232   -1.2979    2.3953 H         1 ATP         0.4175
     39 H2'        -0.0011    0.0027    0.0003 H         1 ATP         0.0669
     40 HO2'       -0.6141    0.5574    2.1082 H         1 ATP         0.4064
     41 H1'         1.7826    1.9024    1.6451 H         1 ATP         0.1285
     42 H8          0.7125    2.3429   -1.9292 H         1 ATP         0.2954
     43 HN62       -3.3217    6.4517    0.2629 H         1 ATP         0.4226
     44 H2         -1.5188    4.4223    3.7890 H         1 ATP         0.0826
     45 H45        -2.7470    5.7626    2.3665 H         1 ATP         0.4581
     46 H46        -1.0305    4.1680   -2.1054 H         1 ATP         0.5252
@<TRIPOS>BOND
     1    1    2 2
     2    1    3 1
     3    1    4 1
     4    1    8 1
     5    4   32 1
     6    5    6 2
     7    5    7 1
     8    5    8 1
     9    5   12 1
    10    9   10 2
    11    9   11 1
    12    9   12 1
    13    9   13 1
    14   11   33 1
    15   13   14 1
    16   14   15 1
    17   14   34 1
    18   14   35 1
    19   15   16 1
    20   15   17 1
    21   15   36 1
    22   16   21 1
    23   17   18 1
    24   17   19 1
    25   17   37 1
    26   18   38 1
    27   19   20 1
    28   19   21 1
    29   19   39 1
    30   20   40 1
    31   21   22 1
    32   21   41 1
    33   22   23 ar
    34   22   31 ar
    35   23   24 ar
    36   23   42 1
    37   24   25 ar
    38   24   46 1
    39   25   26 ar
    40   25   31 ar
    41   26   27 2
    42   26   28 ar
    43   27   43 1
    44   28   29 ar
    45   28   45 1
    46   29   30 ar
    47   29   44 1
    48   30   31 ar
@<TRIPOS>SUBSTRUCTURE
     1 ATP         1 GROUP 0 A     ****
@<TRIPOS>MOLECULE
[[[3,4-dihydroxy-5-(6-imino-7,8-dihydro-1~{H}-purin-8-ylium-9-yl)tetrahydrofuran-2-yl]methoxy-hydroxy-phosphoryl]oxy-oxido-phosphoryl] hydrogen phosphate
   46    48     1     0     0
SMALL
USER_CHARGES

@<TRIPOS>ATOM
      1 PG          1.7737    4.8468   -4.0697 P.3       1 ATP         1.5644
      2 O1G         2.8206    4.0598   -3.3133 O.co2     1 ATP        -0.8581
      3 O2G         0.7906    5.7348   -3.3400 O.co2     1 ATP        -0.8581
      4 O3G         2.5218    5.7345   -5.2180 O.3       1 ATP        -0.7962
      5 PB         -0.0645    2.6074   -4.6766 P.3       1 ATP         1.6830
      6 O1B        -1.1319    3.1288   -3.7404 O.co2     1 ATP        -0.8633
      7 O2B        -0.4321    1.8819   -5.9518 O.co2     1 ATP        -0.8633
      8 O3B         0.9499    3.8313   -5.0438 O.3       1 ATP        -0.8097
      9 PA          2.3611    0.9709   -4.2298 P.3       1 ATP         1.7610
     10 O1A         3.2462    1.8212   -5.0942 O.2       1 ATP        -0.8554
     11 O2A         1.8893   -0.4146   -4.9195 O.3       1 ATP        -0.8102
     12 O3A         0.9632    1.6736   -3.8189 O.3       1 ATP        -0.7693
     13 O5'         3.0213    0.5153   -2.8245 O.3       1 ATP        -0.5757
     14 C5'         2.2816   -0.2918   -1.9206 C.3       1 ATP         0.1911
     15 C4'         2.7248    0.0226   -0.4980 C.3       1 ATP         0.1218
     16 O4'         2.4697    1.4219   -0.2462 O.3       1 ATP        -0.4138
     17 C3'         1.9404   -0.7419    0.5596 C.3       1 ATP         0.1338
     18 O3'         2.7418   -0.8086    1.7389 O.3       1 ATP        -0.5756
     19 C2'         0.7477    0.1630    0.7858 C.3       1 ATP         0.0673
     20 O2'         0.1373   -0.0577    2.0407 O.3       1 ATP        -0.5671
     21 C1'         1.3733    1.5427    0.6747 C.3       1 ATP         0.3795
     22 N9          0.4520    2.5240    0.1767 N.pl3     1 ATP        -0.4175
     23 C8          0.5691    3.2215   -0.9485 C.ar      1 ATP         0.2552
     24 N7         -0.4499    4.0551   -1.1342 N.pl3     1 ATP        -0.4731
     25 C5         -1.2618    3.8674   -0.0512 C.ar      1 ATP        -0.1295
     26 C6         -2.5420    4.5007    0.3120 C.ar      1 ATP         0.7196
     27 N6         -3.0874    5.3993   -0.4432 N.2       1 ATP        -0.8094
     28 N1         -3.0494    4.0205    1.5133 N.pl3     1 ATP        -0.8312
     29 C2         -2.3933    3.0527    2.2567 C.ar      1 ATP         0.6744
     30 N3         -1.2611    2.4796    1.9536 N.2       1 ATP        -0.5937
     31 C4         -0.7334    2.9358    0.7669 C.ar      1 ATP         0.2810
     32 HOG3        1.9734    6.3046   -5.7982 H         1 ATP         0.4152
     33 HOA2        1.3729   -0.3777   -5.7527 H         1 ATP         0.4571
     34 H5'1        1.2163   -0.0770   -2.0471 H         1 ATP         0.0465
     35 H5'2        2.4655   -1.3443   -2.1563 H         1 ATP         0.0465
     36 H4'         3.8044   -0.1397   -0.4040 H         1 ATP         0.1379
     37 H3'         1.6764   -1.7639    0.2728 H         1 ATP         0.1317
     38 HO3'        2.2232   -1.2979    2.3953 H         1 ATP         0.4175
     39 H2'        -0.0011    0.0027    0.0003 H         1 ATP         0.0669
     40 HO2'       -0.1563   -0.9855    2.0596 H         1 ATP         0.4064
     41 H1'         1.7826    1.9024    1.6451 H         1 ATP         0.1285
     42 H8          1.3912    3.1285   -1.6365 H         1 ATP         0.2954
     43 HN62       -3.9637    5.7084   -0.0142 H         1 ATP         0.4226
     44 H2         -2.9317    2.7866    3.1796 H         1 ATP         0.0826
     45 H45        -3.9307    4.3923    1.8559 H         1 ATP         0.4581
     46 H46        -0.5835    4.6857   -1.9122 H         1 ATP         0.5252
@<TRIPOS>BOND
     1    1    2 2
     2    1    3 1
     3    1    4 1
     4    1    8 1
     5    4   32 1
     6    5    6 2
     7    5    7 1
     8    5    8 1
     9    5   12 1
    10    9   10 2
    11    9   11 1
    12    9   12 1
    13    9   13 1
    14   11   33 1
    15   13   14 1
    16   14   15 1
    17   14   34 1
    18   14   35 1
    19   15   16 1
    20   15   17 1
    21   15   36 1
    22   16   21 1
    23   17   18 1
    24   17   19 1
    25   17   37 1
    26   18   38 1
    27   19   20 1
    28   19   21 1
    29   19   39 1
    30   20   40 1
    31   21   22 1
    32   21   41 1
    33   22   23 ar
    34   22   31 ar
    35   23   24 ar
    36   23   42 1
    37   24   25 ar
    38   24   46 1
    39   25   26 ar
    40   25   31 ar
    41   26   27 2
    42   26   28 ar
    43   27   43 1
    44   28   29 ar
    45   28   45 1
    46   29   30 ar
    47   29   44 1
    48   30   31 ar
@<TRIPOS>SUBSTRUCTURE
     1 ATP         1 GROUP 0 A     ****
@<TRIPOS>MOLECULE
[[[3,4-dihydroxy-5-(6-imino-7,8-dihydro-1~{H}-purin-8-ylium-9-yl)tetrahydrofuran-2-yl]methoxy-hydroxy-phosphoryl]oxy-oxido-phosphoryl] hydrogen phosphate
   46    48     1     0     0
SMALL
USER_CHARGES

@<TRIPOS>ATOM
      1 PG         -0.2574   -1.7414   -7.4862 P.3       1 ATP         1.5644
      2 O1G        -1.6548   -1.1740   -7.5997 O.co2     1 ATP        -0.8581
      3 O2G        -0.0334   -3.2256   -7.3006 O.co2     1 ATP        -0.8581
      4 O3G         0.6109   -1.2427   -8.7760 O.3       1 ATP        -0.7962
      5 PB          0.7873    0.6679   -6.1202 P.3       1 ATP         1.6830
      6 O1B         1.6707    1.1696   -7.2407 O.co2     1 ATP        -0.8633
      7 O2B        -0.5428    1.3237   -5.8224 O.co2     1 ATP        -0.8633
      8 O3B         0.5486   -0.9334   -6.3217 O.3       1 ATP        -0.8097
      9 PA          3.0915   -0.0732   -4.4165 P.3       1 ATP         1.7610
     10 O1A         4.2296    0.4201   -5.2621 O.2       1 ATP        -0.8554
     11 O2A         2.7765   -1.6519   -4.5791 O.3       1 ATP        -0.8102
     12 O3A         1.6695    0.6231   -4.7478 O.3       1 ATP        -0.7693
     13 O5'         3.2903    0.1346   -2.8241 O.3       1 ATP        -0.5757
     14 C5'         2.2816   -0.2918   -1.9206 C.3       1 ATP         0.1911
     15 C4'         2.7248    0.0226   -0.4980 C.3       1 ATP         0.1218
     16 O4'         2.4697    1.4219   -0.2462 O.3       1 ATP        -0.4138
     17 C3'         1.9404   -0.7419    0.5596 C.3       1 ATP         0.1338
     18 O3'         2.7418   -0.8086    1.7389 O.3       1 ATP        -0.5756
     19 C2'         0.7477    0.1630    0.7858 C.3       1 ATP         0.0673
     20 O2'         0.1373   -0.0577    2.0407 O.3       1 ATP        -0.5671
     21 C1'         1.3733    1.5427    0.6747 C.3       1 ATP         0.3795
     22 N9          0.4520    2.5240    0.1767 N.pl3     1 ATP        -0.4175
     23 C8          0.5691    3.2215   -0.9485 C.ar      1 ATP         0.2552
     24 N7         -0.4499    4.0551   -1.1342 N.pl3     1 ATP        -0.4731
     25 C5         -1.2618    3.8674   -0.0512 C.ar      1 ATP        -0.1295
     26 C6         -2.5420    4.5007    0.3120 C.ar      1 ATP         0.7196
     27 N6         -3.0874    5.3993   -0.4432 N.2       1 ATP        -0.8094
     28 N1         -3.0494    4.0205    1.5133 N.pl3     1 ATP        -0.8312
     29 C2         -2.3933    3.0527    2.2567 C.ar      1 ATP         0.6744
     30 N3         -1.2611    2.4796    1.9536 N.2       1 ATP        -0.5937
     31 C4         -0.7334    2.9358    0.7669 C.ar      1 ATP         0.2810
     32 HOG3        1.5462   -1.5297   -8.8482 H         1 ATP         0.4152
     33 HOA2        3.4791   -2.3005   -4.3603 H         1 ATP         0.4571
     34 H5'1        1.3514    0.2330   -2.1577 H         1 ATP         0.0465
     35 H5'2        2.1280   -1.3678   -2.0460 H         1 ATP         0.0465
     36 H4'         3.8044   -0.1397   -0.4040 H         1 ATP         0.1379
     37 H3'         1.6764   -1.7639    0.2728 H         1 ATP         0.1317
     38 HO3'        3.5554   -1.2733    1.4914 H         1 ATP         0.4175
     39 H2'        -0.0011    0.0027    0.0003 H         1 ATP         0.0669
     40 HO2'        0.8082    0.1199    2.7232 H         1 ATP         0.4064
     41 H1'         1.7826    1.9024    1.6451 H         1 ATP         0.1285
     42 H8          1.3912    3.1285   -1.6365 H         1 ATP         0.2954
     43 HN62       -3.9637    5.7084   -0.0142 H         1 ATP         0.4226
     44 H2         -2.9317    2.7866    3.1796 H         1 ATP         0.0826
     45 H45        -3.9307    4.3923    1.8559 H         1 ATP         0.4581
     46 H46        -0.5835    4.6857   -1.9122 H         1 ATP         0.5252
@<TRIPOS>BOND
     1    1    2 2
     2    1    3 1
     3    1    4 1
     4    1    8 1
     5    4   32 1
     6    5    6 2
     7    5    7 1
     8    5    8 1
     9    5   12 1
    10    9   10 2
    11    9   11 1
    12    9   12 1
    13    9   13 1
    14   11   33 1
    15   13   14 1
    16   14   15 1
    17   14   34 1
    18   14   35 1
    19   15   16 1
    20   15   17 1
    21   15   36 1
    22   16   21 1
    23   17   18 1
    24   17   19 1
    25   17   37 1
    26   18   38 1
    27   19   20 1
    28   19   21 1
    29   19   39 1
    30   20   40 1
    31   21   22 1
    32   21   41 1
    33   22   23 ar
    34   22   31 ar
    35   23   24 ar
    36   23   42 1
    37   24   25 ar
    38   24   46 1
    39   25   26 ar
    40   25   31 ar
    41   26   27 2
    42   26   28 ar
    43   27   43 1
    44   28   29 ar
    45   28   45 1
    46   29   30 ar
    47   29   44 1
    48   30   31 ar
@<TRIPOS>SUBSTRUCTURE
     1 ATP         1 GROUP 0 A     ****
@<TRIPOS>MOLECULE
[[[3,4-dihydroxy-5-(6-imino-7,8-dihydro-1~{H}-purin-8-ylium-9-yl)tetrahydrofuran-2-yl]methoxy-hydroxy-phosphoryl]oxy-oxido-phosphoryl] hydrogen phosphate
   46    48     1     0     0
SMALL
USER_CHARGES

@<TRIPOS>ATOM
      1 PG         -0.7604   -9.9961    3.0975 P.3       1 ATP         1.5644
      2 O1G        -2.1298  -10.6087    2.9050 O.co2     1 ATP        -0.8581
      3 O2G         0.2822  -10.6768    3.9560 O.co2     1 ATP        -0.8581
      4 O3G        -0.1121   -9.7035    1.6277 O.3       1 ATP        -0.7962
      5 PB          0.1770   -7.2818    3.8156 P.3       1 ATP         1.6830
      6 O1B         1.0750   -7.6753    4.9673 O.co2     1 ATP        -0.8633
      7 O2B         0.7548   -6.9052    2.4695 O.co2     1 ATP        -0.8633
      8 O3B        -0.9362   -8.4545    3.5985 O.3       1 ATP        -0.8097
      9 PA         -0.4992   -4.5557    4.7496 P.3       1 ATP         1.7610
     10 O1A         0.4335   -4.4255    5.9187 O.2       1 ATP        -0.8554
     11 O2A        -1.9724   -3.9355    5.0008 O.3       1 ATP        -0.8102
     12 O3A        -0.8105   -6.0830    4.3171 O.3       1 ATP        -0.7693
     13 O5'         0.0118   -3.8395    3.3916 O.3       1 ATP        -0.5757
     14 C5'        -0.7840   -3.8935    2.2172 C.3       1 ATP         0.1911
     15 C4'        -0.0724   -3.1466    1.1027 C.3       1 ATP         0.1218
     16 O4'        -0.8674   -3.1929   -0.0945 O.3       1 ATP        -0.4138
     17 C3'         0.1338   -1.6715    1.4027 C.3       1 ATP         0.1338
     18 O3'         1.2893   -1.4445    2.1808 O.3       1 ATP        -0.5756
     19 C2'         0.2158   -1.0724    0.0128 C.3       1 ATP         0.0673
     20 O2'         1.5141   -1.2448   -0.5513 O.3       1 ATP        -0.5671
     21 C1'        -0.7897   -1.9176   -0.7583 C.3       1 ATP         0.3795
     22 N9         -2.1040   -1.3333   -0.7704 N.pl3     1 ATP        -0.4175
     23 C8         -3.0590   -1.5123    0.1363 C.ar      1 ATP         0.2552
     24 N7         -4.1655   -0.8354   -0.1554 N.pl3     1 ATP        -0.4731
     25 C5         -3.8852   -0.1874   -1.3253 C.ar      1 ATP        -0.1295
     26 C6         -4.7113    0.7160   -2.1458 C.ar      1 ATP         0.7196
     27 N6         -5.9213    1.0209   -1.8021 N.2       1 ATP        -0.8094
     28 N1         -4.0411    1.1673   -3.2764 N.pl3     1 ATP        -0.8312
     29 C2         -2.7403    0.7865   -3.5638 C.ar      1 ATP         0.6744
     30 N3         -1.9921   -0.0108   -2.8519 N.2       1 ATP        -0.5937
     31 C4         -2.6302   -0.4747   -1.7239 C.ar      1 ATP         0.2810
     32 HOG3        0.7824   -9.3031    1.5835 H         1 ATP         0.4152
     33 HOA2       -2.0553   -2.9813    5.2126 H         1 ATP         0.4571
     34 H5'1       -0.9348   -4.9415    1.9415 H         1 ATP         0.0465
     35 H5'2       -1.7548   -3.4350    2.4278 H         1 ATP         0.0465
     36 H4'         0.8874   -3.6466    0.8805 H         1 ATP         0.1379
     37 H3'        -0.7376   -1.2333    1.9867 H         1 ATP         0.1317
     38 HO3'        1.1626   -1.9325    3.0084 H         1 ATP         0.4175
     39 H2'        -0.0384   -0.0310    0.0096 H         1 ATP         0.0669
     40 HO2'        2.1463   -0.7958    0.0370 H         1 ATP         0.4064
     41 H1'        -0.4769   -2.1002   -1.8093 H         1 ATP         0.1285
     42 H8         -2.9569   -2.1323    1.0098 H         1 ATP         0.2954
     43 HN62       -6.3169    1.6552   -2.5012 H         1 ATP         0.4226
     44 H2         -2.3612    1.2343   -4.4957 H         1 ATP         0.0826
     45 H45        -4.5223    1.7976   -3.9117 H         1 ATP         0.4581
     46 H46        -5.0218   -0.8132    0.3804 H         1 ATP         0.5252
@<TRIPOS>BOND
     1    1    2 2
     2    1    3 1
     3    1    4 1
     4    1    8 1
     5    4   32 1
     6    5    6 2
     7    5    7 1
     8    5    8 1
     9    5   12 1
    10    9   10 2
    11    9   11 1
    12    9   12 1
    13    9   13 1
    14   11   33 1
    15   13   14 1
    16   14   15 1
    17   14   34 1
    18   14   35 1
    19   15   16 1
    20   15   17 1
    21   15   36 1
    22   16   21 1
    23   17   18 1
    24   17   19 1
    25   17   37 1
    26   18   38 1
    27   19   20 1
    28   19   21 1
    29   19   39 1
    30   20   40 1
    31   21   22 1
    32   21   41 1
    33   22   23 ar
    34   22   31 ar
    35   23   24 ar
    36   23   42 1
    37   24   25 ar
    38   24   46 1
    39   25   26 ar
    40   25   31 ar
    41   26   27 2
    42   26   28 ar
    43   27   43 1
    44   28   29 ar
    45   28   45 1
    46   29   30 ar
    47   29   44 1
    48   30   31 ar
@<TRIPOS>SUBSTRUCTURE
     1 ATP         1 GROUP 0 A     ****
@<TRIPOS>MOLECULE
[[[3,4-dihydroxy-5-(6-imino-7,8-dihydro-1~{H}-purin-8-ylium-9-yl)tetrahydrofuran-2-yl]methoxy-hydroxy-phosphoryl]oxy-oxido-phosphoryl] hydrogen phosphate
   46    48     1     0     0
SMALL
USER_CHARGES

@<TRIPOS>ATOM
      1 PG         -5.0059   -8.2042    3.7369 P.3       1 ATP         1.5644
      2 O1G        -3.7921   -8.0587    4.6274 O.co2     1 ATP        -0.8581
      3 O2G        -5.4442   -9.5621    3.2356 O.co2     1 ATP        -0.8581
      4 O3G        -6.2761   -7.4868    4.4705 O.3       1 ATP        -0.7962
      5 PB         -4.5602   -5.5890    2.4238 P.3       1 ATP         1.6830
      6 O1B        -4.3461   -5.1753    0.9847 O.co2     1 ATP        -0.8633
      7 O2B        -5.5770   -4.8852    3.2947 O.co2     1 ATP        -0.8633
      8 O3B        -4.8542   -7.1932    2.4667 O.3       1 ATP        -0.8097
      9 PA         -1.7101   -6.2838    2.8184 P.3       1 ATP         1.7610
     10 O1A        -1.8467   -7.6794    2.2823 O.2       1 ATP        -0.8554
     11 O2A        -0.8728   -6.1797    4.1989 O.3       1 ATP        -0.8102
     12 O3A        -3.1168   -5.5743    3.1854 O.3       1 ATP        -0.7693
     13 O5'        -0.9724   -5.2440    1.8220 O.3       1 ATP        -0.5757
     14 C5'        -0.7840   -3.8935    2.2172 C.3       1 ATP         0.1911
     15 C4'        -0.0724   -3.1466    1.1027 C.3       1 ATP         0.1218
     16 O4'        -0.8674   -3.1929   -0.0945 O.3       1 ATP        -0.4138
     17 C3'         0.1338   -1.6715    1.4027 C.3       1 ATP         0.1338
     18 O3'         1.2893   -1.4445    2.1808 O.3       1 ATP        -0.5756
     19 C2'         0.2158   -1.0724    0.0128 C.3       1 ATP         0.0673
     20 O2'         1.5141   -1.2448   -0.5513 O.3       1 ATP        -0.5671
     21 C1'        -0.7897   -1.9176   -0.7583 C.3       1 ATP         0.3795
     22 N9         -2.1040   -1.3333   -0.7704 N.pl3     1 ATP        -0.4175
     23 C8         -3.0590   -1.5123    0.1363 C.ar      1 ATP         0.2552
     24 N7         -4.1655   -0.8354   -0.1554 N.pl3     1 ATP        -0.4731
     25 C5         -3.8852   -0.1874   -1.3253 C.ar      1 ATP        -0.1295
     26 C6         -4.7113    0.7160   -2.1458 C.ar      1 ATP         0.7196
     27 N6         -5.9213    1.0209   -1.8021 N.2       1 ATP        -0.8094
     28 N1         -4.0411    1.1673   -3.2764 N.pl3     1 ATP        -0.8312
     29 C2         -2.7403    0.7865   -3.5638 C.ar      1 ATP         0.6744
     30 N3         -1.9921   -0.0108   -2.8519 N.2       1 ATP        -0.5937
     31 C4         -2.6302   -0.4747   -1.7239 C.ar      1 ATP         0.2810
     32 HOG3       -7.1447   -7.4962    4.0146 H         1 ATP         0.4152
     33 HOA2        0.0586   -6.4873    4.2129 H         1 ATP         0.4571
     34 H5'1       -1.7618   -3.4448    2.4164 H         1 ATP         0.0465
     35 H5'2       -0.1874   -3.8744    3.1341 H         1 ATP         0.0465
     36 H4'         0.8874   -3.6466    0.8805 H         1 ATP         0.1379
     37 H3'        -0.7376   -1.2333    1.9867 H         1 ATP         0.1317
     38 HO3'        1.3408   -0.4870    2.3219 H         1 ATP         0.4175
     39 H2'        -0.0384   -0.0310    0.0096 H         1 ATP         0.0669
     40 HO2'        2.1463   -0.7958    0.0370 H         1 ATP         0.4064
     41 H1'        -0.4769   -2.1002   -1.8093 H         1 ATP         0.1285
     42 H8         -2.9569   -2.1323    1.0098 H         1 ATP         0.2954
     43 HN62       -6.3169    1.6552   -2.5012 H         1 ATP         0.4226
     44 H2         -2.3612    1.2343   -4.4957 H         1 ATP         0.0826
     45 H45        -4.5223    1.7976   -3.9117 H         1 ATP         0.4581
     46 H46        -5.0218   -0.8132    0.3804 H         1 ATP         0.5252
@<TRIPOS>BOND
     1    1    2 2
     2    1    3 1
     3    1    4 1
     4    1    8 1
     5    4   32 1
     6    5    6 2
     7    5    7 1
     8    5    8 1
     9    5   12 1
    10    9   10 2
    11    9   11 1
    12    9   12 1
    13    9   13 1
    14   11   33 1
    15   13   14 1
    16   14   15 1
    17   14   34 1
    18   14   35 1
    19   15   16 1
    20   15   17 1
    21   15   36 1
    22   16   21 1
    23   17   18 1
    24   17   19 1
    25   17   37 1
    26   18   38 1
    27   19   20 1
    28   19   21 1
    29   19   39 1
    30   20   40 1
    31   21   22 1
    32   21   41 1
    33   22   23 ar
    34   22   31 ar
    35   23   24 ar
    36   23   42 1
    37   24   25 ar
    38   24   46 1
    39   25   26 ar
    40   25   31 ar
    41   26   27 2
    42   26   28 ar
    43   27   43 1
    44   28   29 ar
    45   28   45 1
    46   29   30 ar
    47   29   44 1
    48   30   31 ar
@<TRIPOS>SUBSTRUCTURE
     1 ATP         1 GROUP 0 A     ****
@<TRIPOS>MOLECULE
[[[3,4-dihydroxy-5-(6-imino-7,8-dihydro-1~{H}-purin-8-ylium-9-yl)tetrahydrofuran-2-yl]methoxy-hydroxy-phosphoryl]oxy-oxido-phosphoryl] hydrogen phosphate
   46    48     1     0     0
SMALL
USER_CHARGES

@<TRIPOS>ATOM
      1 PG         -1.9021  -10.0222    4.0112 P.3       1 ATP         1.5644
      2 O1G        -1.4597  -10.6961    2.7315 O.co2     1 ATP        -0.8581
      3 O2G        -3.3444  -10.0812    4.4627 O.co2     1 ATP        -0.8581
      4 O3G        -0.9543  -10.5522    5.2307 O.3       1 ATP        -0.7962
      5 PB         -1.4823   -7.3197    5.1436 P.3       1 ATP         1.6830
      6 O1B        -2.9327   -6.9843    5.4114 O.co2     1 ATP        -0.8633
      7 O2B        -0.5524   -7.7148    6.2692 O.co2     1 ATP        -0.8633
      8 O3B        -1.4178   -8.4655    3.9840 O.3       1 ATP        -0.8097
      9 PA         -0.4992   -4.5557    4.7496 P.3       1 ATP         1.7610
     10 O1A         0.4335   -4.4255    5.9187 O.2       1 ATP        -0.8554
     11 O2A        -1.9724   -3.9355    5.0008 O.3       1 ATP        -0.8102
     12 O3A        -0.8105   -6.0830    4.3171 O.3       1 ATP        -0.7693
     13 O5'         0.0118   -3.8395    3.3916 O.3       1 ATP        -0.5757
     14 C5'        -0.7840   -3.8935    2.2172 C.3       1 ATP         0.1911
     15 C4'        -0.0724   -3.1466    1.1027 C.3       1 ATP         0.1218
     16 O4'        -0.8674   -3.1929   -0.0945 O.3       1 ATP        -0.4138
     17 C3'         0.1338   -1.6715    1.4027 C.3       1 ATP         0.1338
     18 O3'         1.2893   -1.4445    2.1808 O.3       1 ATP        -0.5756
     19 C2'         0.2158   -1.0724    0.0128 C.3       1 ATP         0.0673
     20 O2'         1.5141   -1.2448   -0.5513 O.3       1 ATP        -0.5671
     21 C1'        -0.7897   -1.9176   -0.7583 C.3       1 ATP         0.3795
     22 N9         -2.1040   -1.3333   -0.7704 N.pl3     1 ATP        -0.4175
     23 C8         -3.0590   -1.5123    0.1363 C.ar      1 ATP         0.2552
     24 N7         -4.1655   -0.8354   -0.1554 N.pl3     1 ATP        -0.4731
     25 C5         -3.8852   -0.1874   -1.3253 C.ar      1 ATP        -0.1295
     26 C6         -4.7113    0.7160   -2.1458 C.ar      1 ATP         0.7196
     27 N6         -5.9213    1.0209   -1.8021 N.2       1 ATP        -0.8094
     28 N1         -4.0411    1.1673   -3.2764 N.pl3     1 ATP        -0.8312
     29 C2         -2.7403    0.7865   -3.5638 C.ar      1 ATP         0.6744
     30 N3         -1.9921   -0.0108   -2.8519 N.2       1 ATP        -0.5937
     31 C4         -2.6302   -0.4747   -1.7239 C.ar      1 ATP         0.2810
     32 HOG3       -1.1173  -10.2044    6.1334 H         1 ATP         0.4152
     33 HOA2       -2.0553   -2.9813    5.2126 H         1 ATP         0.4571
     34 H5'1       -0.9348   -4.9415    1.9415 H         1 ATP         0.0465
     35 H5'2       -1.7548   -3.4350    2.4278 H         1 ATP         0.0465
     36 H4'         0.8874   -3.6466    0.8805 H         1 ATP         0.1379
     37 H3'        -0.7376   -1.2333    1.9867 H         1 ATP         0.1317
     38 HO3'        1.1626   -1.9325    3.0084 H         1 ATP         0.4175
     39 H2'        -0.0384   -0.0310    0.0096 H         1 ATP         0.0669
     40 HO2'        2.1463   -0.7958    0.0370 H         1 ATP         0.4064
     41 H1'        -0.4769   -2.1002   -1.8093 H         1 ATP         0.1285
     42 H8         -2.9569   -2.1323    1.0098 H         1 ATP         0.2954
     43 HN62       -6.3169    1.6552   -2.5012 H         1 ATP         0.4226
     44 H2         -2.3612    1.2343   -4.4957 H         1 ATP         0.0826
     45 H45        -4.5223    1.7976   -3.9117 H         1 ATP         0.4581
     46 H46        -5.0218   -0.8132    0.3804 H         1 ATP         0.5252
@<TRIPOS>BOND
     1    1    2 2
     2    1    3 1
     3    1    4 1
     4    1    8 1
     5    4   32 1
     6    5    6 2
     7    5    7 1
     8    5    8 1
     9    5   12 1
    10    9   10 2
    11    9   11 1
    12    9   12 1
    13    9   13 1
    14   11   33 1
    15   13   14 1
    16   14   15 1
    17   14   34 1
    18   14   35 1
    19   15   16 1
    20   15   17 1
    21   15   36 1
    22   16   21 1
    23   17   18 1
    24   17   19 1
    25   17   37 1
    26   18   38 1
    27   19   20 1
    28   19   21 1
    29   19   39 1
    30   20   40 1
    31   21   22 1
    32   21   41 1
    33   22   23 ar
    34   22   31 ar
    35   23   24 ar
    36   23   42 1
    37   24   25 ar
    38   24   46 1
    39   25   26 ar
    40   25   31 ar
    41   26   27 2
    42   26   28 ar
    43   27   43 1
    44   28   29 ar
    45   28   45 1
    46   29   30 ar
    47   29   44 1
    48   30   31 ar
@<TRIPOS>SUBSTRUCTURE
     1 ATP         1 GROUP 0 A     ****
@<TRIPOS>MOLECULE
[[[3,4-dihydroxy-5-(6-imino-7,8-dihydro-1~{H}-purin-8-ylium-9-yl)tetrahydrofuran-2-yl]methoxy-hydroxy-phosphoryl]oxy-oxido-phosphoryl] hydrogen phosphate
   46    48     1     0     0
SMALL
USER_CHARGES

@<TRIPOS>ATOM
      1 PG         -1.4703    3.0945   -5.6623 P.3       1 ATP         1.5644
      2 O1G        -2.8315    2.4461   -5.5439 O.co2     1 ATP        -0.8581
      3 O2G        -1.0622    3.8211   -6.9244 O.co2     1 ATP        -0.8581
      4 O3G        -1.2636    4.1016   -4.3937 O.3       1 ATP        -0.7962
      5 PB          1.2852    2.1689   -5.1032 P.3       1 ATP         1.6830
      6 O1B         1.8921    2.5166   -6.4443 O.co2     1 ATP        -0.8633
      7 O2B         1.5429    3.0269   -3.8845 O.co2     1 ATP        -0.8633
      8 O3B        -0.3260    1.9942   -5.2899 O.3       1 ATP        -0.8097
      9 PA          3.0915   -0.0732   -4.4165 P.3       1 ATP         1.7610
     10 O1A         4.2296    0.4201   -5.2621 O.2       1 ATP        -0.8554
     11 O2A         2.7765   -1.6519   -4.5791 O.3       1 ATP        -0.8102
     12 O3A         1.6695    0.6231   -4.7478 O.3       1 ATP        -0.7693
     13 O5'         3.2903    0.1346   -2.8241 O.3       1 ATP        -0.5757
     14 C5'         2.2816   -0.2918   -1.9206 C.3       1 ATP         0.1911
     15 C4'         2.7248    0.0226   -0.4980 C.3       1 ATP         0.1218
     16 O4'         2.4697    1.4219   -0.2462 O.3       1 ATP        -0.4138
     17 C3'         1.9404   -0.7419    0.5596 C.3       1 ATP         0.1338
     18 O3'         2.7418   -0.8086    1.7389 O.3       1 ATP        -0.5756
     19 C2'         0.7477    0.1630    0.7858 C.3       1 ATP         0.0673
     20 O2'         0.1373   -0.0577    2.0407 O.3       1 ATP        -0.5671
     21 C1'         1.3733    1.5427    0.6747 C.3       1 ATP         0.3795
     22 N9          0.4520    2.5240    0.1767 N.pl3     1 ATP        -0.4175
     23 C8          0.2216    2.8192   -1.0985 C.ar      1 ATP         0.2552
     24 N7         -0.6906    3.7763   -1.2384 N.pl3     1 ATP        -0.4731
     25 C5         -1.0575    4.1037    0.0366 C.ar      1 ATP        -0.1295
     26 C6         -2.0291    5.0943    0.5330 C.ar      1 ATP         0.7196
     27 N6         -2.7093    5.8371   -0.2800 N.2       1 ATP        -0.8094
     28 N1         -2.1051    5.1136    1.9204 N.pl3     1 ATP        -0.8312
     29 C2         -1.3354    4.2774    2.7129 C.ar      1 ATP         0.6744
     30 N3         -0.4707    3.3945    2.2944 N.2       1 ATP        -0.5937
     31 C4         -0.3734    3.3525    0.9220 C.ar      1 ATP         0.2810
     32 HOG3       -0.4221    4.6013   -4.3268 H         1 ATP         0.4152
     33 HOA2        3.4791   -2.3005   -4.3603 H         1 ATP         0.4571
     34 H5'1        1.3514    0.2330   -2.1577 H         1 ATP         0.0465
     35 H5'2        2.1280   -1.3678   -2.0460 H         1 ATP         0.0465
     36 H4'         3.8044   -0.1397   -0.4040 H         1 ATP         0.1379
     37 H3'         1.6764   -1.7639    0.2728 H         1 ATP         0.1317
     38 HO3'        3.5554   -1.2733    1.4914 H         1 ATP         0.4175
     39 H2'        -0.0011    0.0027    0.0003 H         1 ATP         0.0669
     40 HO2'        0.8082    0.1199    2.7232 H         1 ATP         0.4064
     41 H1'         1.7826    1.9024    1.6451 H         1 ATP         0.1285
     42 H8          0.7125    2.3429   -1.9292 H         1 ATP         0.2954
     43 HN62       -3.3217    6.4517    0.2629 H         1 ATP         0.4226
     44 H2         -1.5188    4.4223    3.7890 H         1 ATP         0.0826
     45 H45        -2.7470    5.7626    2.3665 H         1 ATP         0.4581
     46 H46        -1.0305    4.1680   -2.1054 H         1 ATP         0.5252
@<TRIPOS>BOND
     1    1    2 2
     2    1    3 1
     3    1    4 1
     4    1    8 1
     5    4   32 1
     6    5    6 2
     7    5    7 1
     8    5    8 1
     9    5   12 1
    10    9   10 2
    11    9   11 1
    12    9   12 1
    13    9   13 1
    14   11   33 1
    15   13   14 1
    16   14   15 1
    17   14   34 1
    18   14   35 1
    19   15   16 1
    20   15   17 1
    21   15   36 1
    22   16   21 1
    23   17   18 1
    24   17   19 1
    25   17   37 1
    26   18   38 1
    27   19   20 1
    28   19   21 1
    29   19   39 1
    30   20   40 1
    31   21   22 1
    32   21   41 1
    33   22   23 ar
    34   22   31 ar
    35   23   24 ar
    36   23   42 1
    37   24   25 ar
    38   24   46 1
    39   25   26 ar
    40   25   31 ar
    41   26   27 2
    42   26   28 ar
    43   27   43 1
    44   28   29 ar
    45   28   45 1
    46   29   30 ar
    47   29   44 1
    48   30   31 ar
@<TRIPOS>SUBSTRUCTURE
     1 ATP         1 GROUP 0 A     ****
@<TRIPOS>MOLECULE
[[[3,4-dihydroxy-5-(6-imino-7,8-dihydro-1~{H}-purin-8-ylium-9-yl)tetrahydrofuran-2-yl]methoxy-hydroxy-phosphoryl]oxy-oxido-phosphoryl] hydrogen phosphate
   46    48     1     0     0
SMALL
USER_CHARGES

@<TRIPOS>ATOM
      1 PG          6.6155    1.7305   -4.2784 P.3       1 ATP         1.5644
      2 O1G         6.8053    3.2164   -4.0696 O.co2     1 ATP        -0.8581
      3 O2G         7.7765    0.8466   -4.6763 O.co2     1 ATP        -0.8581
      4 O3G         5.9206    1.1035   -2.9403 O.3       1 ATP        -0.7962
      5 PB          4.6499    0.1187   -5.7953 P.3       1 ATP         1.6830
      6 O1B         3.4573    0.4779   -6.6533 O.co2     1 ATP        -0.8633
      7 O2B         5.7011   -0.8512   -6.2874 O.co2     1 ATP        -0.8633
      8 O3B         5.3870    1.4959   -5.3246 O.3       1 ATP        -0.8097
      9 PA          3.2593   -1.7000   -3.9192 P.3       1 ATP         1.7610
     10 O1A         3.9358   -3.0003   -4.2432 O.2       1 ATP        -0.8554
     11 O2A         1.8422   -1.4817   -4.6690 O.3       1 ATP        -0.8102
     12 O3A         4.1067   -0.3886   -4.3423 O.3       1 ATP        -0.7693
     13 O5'         2.9216   -1.4836   -2.3516 O.3       1 ATP        -0.5757
     14 C5'         2.2816   -0.2918   -1.9206 C.3       1 ATP         0.1911
     15 C4'         2.7248    0.0226   -0.4980 C.3       1 ATP         0.1218
     16 O4'         2.4697    1.4219   -0.2462 O.3       1 ATP        -0.4138
     17 C3'         1.9404   -0.7419    0.5596 C.3       1 ATP         0.1338
     18 O3'         2.7418   -0.8086    1.7389 O.3       1 ATP        -0.5756
     19 C2'         0.7477    0.1630    0.7858 C.3       1 ATP         0.0673
     20 O2'         0.1373   -0.0577    2.0407 O.3       1 ATP        -0.5671
     21 C1'         1.3733    1.5427    0.6747 C.3       1 ATP         0.3795
     22 N9          0.4520    2.5240    0.1767 N.pl3     1 ATP        -0.4175
     23 C8         -0.2004    2.4829   -0.9804 C.ar      1 ATP         0.2552
     24 N7         -0.9830    3.5431   -1.1568 N.pl3     1 ATP        -0.4731
     25 C5         -0.8095    4.3012   -0.0331 C.ar      1 ATP        -0.1295
     26 C6         -1.4065    5.5904    0.3585 C.ar      1 ATP         0.7196
     27 N6         -2.2501    6.2030   -0.4084 N.2       1 ATP        -0.8094
     28 N1         -0.9585    6.0272    1.5994 N.pl3     1 ATP        -0.8312
     29 C2         -0.0508    5.3009    2.3532 C.ar      1 ATP         0.6744
     30 N3          0.4890    4.1592    2.0257 N.2       1 ATP        -0.5937
     31 C4          0.0637    3.7006    0.7995 C.ar      1 ATP         0.2810
     32 HOG3        5.7308    0.1413   -2.9202 H         1 ATP         0.4152
     33 HOA2        1.8207   -1.4750   -5.6496 H         1 ATP         0.4571
     34 H5'1        2.5589    0.5217   -2.5976 H         1 ATP         0.0465
     35 H5'2        1.1982   -0.4388   -1.9617 H         1 ATP         0.0465
     36 H4'         3.8044   -0.1397   -0.4040 H         1 ATP         0.1379
     37 H3'         1.6764   -1.7639    0.2728 H         1 ATP         0.1317
     38 HO3'        2.2232   -1.2979    2.3953 H         1 ATP         0.4175
     39 H2'        -0.0011    0.0027    0.0003 H         1 ATP         0.0669
     40 HO2'       -0.6141    0.5574    2.1082 H         1 ATP         0.4064
     41 H1'         1.7826    1.9024    1.6451 H         1 ATP         0.1285
     42 H8         -0.1116    1.6863   -1.6984 H         1 ATP         0.2954
     43 HN62       -2.5420    7.0730    0.0447 H         1 ATP         0.4226
     44 H2          0.1969    5.7893    3.3086 H         1 ATP         0.0826
     45 H45        -1.3097    6.9080    1.9642 H         1 ATP         0.4581
     46 H46        -1.5735    3.7351   -1.9538 H         1 ATP         0.5252
@<TRIPOS>BOND
     1    1    2 2
     2    1    3 1
     3    1    4 1
     4    1    8 1
     5    4   32 1
     6    5    6 2
     7    5    7 1
     8    5    8 1
     9    5   12 1
    10    9   10 2
    11    9   11 1
    12    9   12 1
    13    9   13 1
    14   11   33 1
    15   13   14 1
    16   14   15 1
    17   14   34 1
    18   14   35 1
    19   15   16 1
    20   15   17 1
    21   15   36 1
    22   16   21 1
    23   17   18 1
    24   17   19 1
    25   17   37 1
    26   18   38 1
    27   19   20 1
    28   19   21 1
    29   19   39 1
    30   20   40 1
    31   21   22 1
    32   21   41 1
    33   22   23 ar
    34   22   31 ar
    35   23   24 ar
    36   23   42 1
    37   24   25 ar
    38   24   46 1
    39   25   26 ar
    40   25   31 ar
    41   26   27 2
    42   26   28 ar
    43   27   43 1
    44   28   29 ar
    45   28   45 1
    46   29   30 ar
    47   29   44 1
    48   30   31 ar
@<TRIPOS>SUBSTRUCTURE
     1 ATP         1 GROUP 0 A     ****
@<TRIPOS>MOLECULE
[[[3,4-dihydroxy-5-(6-imino-7,8-dihydro-1~{H}-purin-8-ylium-9-yl)tetrahydrofuran-2-yl]methoxy-hydroxy-phosphoryl]oxy-oxido-phosphoryl] hydrogen phosphate
   46    48     1     0     0
SMALL
USER_CHARGES

@<TRIPOS>ATOM
      1 PG          2.0301    1.0773   -7.8447 P.3       1 ATP         1.5644
      2 O1G         3.0957    0.0358   -7.5854 O.co2     1 ATP        -0.8581
      3 O2G         2.3558    2.3557   -8.5844 O.co2     1 ATP        -0.8581
      4 O3G         0.7686    0.3545   -8.5880 O.3       1 ATP        -0.7962
      5 PB          0.6053    0.4864   -5.3182 P.3       1 ATP         1.6830
      6 O1B         0.2330    1.3275   -4.1175 O.co2     1 ATP        -0.8633
      7 O2B        -0.4188   -0.3901   -6.0043 O.co2     1 ATP        -0.8633
      8 O3B         1.3016    1.4511   -6.4346 O.3       1 ATP        -0.8097
      9 PA          3.3429   -0.0249   -4.3155 P.3       1 ATP         1.7610
     10 O1A         4.1316    0.9232   -5.1715 O.2       1 ATP        -0.8554
     11 O2A         4.0556   -1.4579   -4.0783 O.3       1 ATP        -0.8102
     12 O3A         1.9004   -0.4266   -4.9275 O.3       1 ATP        -0.7693
     13 O5'         3.0213    0.5153   -2.8245 O.3       1 ATP        -0.5757
     14 C5'         2.2816   -0.2918   -1.9206 C.3       1 ATP         0.1911
     15 C4'         2.7248    0.0226   -0.4980 C.3       1 ATP         0.1218
     16 O4'         2.4697    1.4219   -0.2462 O.3       1 ATP        -0.4138
     17 C3'         1.9404   -0.7419    0.5596 C.3       1 ATP         0.1338
     18 O3'         2.7418   -0.8086    1.7389 O.3       1 ATP        -0.5756
     19 C2'         0.7477    0.1630    0.7858 C.3       1 ATP         0.0673
     20 O2'         0.1373   -0.0577    2.0407 O.3       1 ATP        -0.5671
     21 C1'         1.3733    1.5427    0.6747 C.3       1 ATP         0.3795
     22 N9          0.4520    2.5240    0.1767 N.pl3     1 ATP        -0.4175
     23 C8          0.2216    2.8192   -1.0985 C.ar      1 ATP         0.2552
     24 N7         -0.6906    3.7763   -1.2384 N.pl3     1 ATP        -0.4731
     25 C5         -1.0575    4.1037    0.0366 C.ar      1 ATP        -0.1295
     26 C6         -2.0291    5.0943    0.5330 C.ar      1 ATP         0.7196
     27 N6         -2.7093    5.8371   -0.2800 N.2       1 ATP        -0.8094
     28 N1         -2.1051    5.1136    1.9204 N.pl3     1 ATP        -0.8312
     29 C2         -1.3354    4.2774    2.7129 C.ar      1 ATP         0.6744
     30 N3         -0.4707    3.3945    2.2944 N.2       1 ATP        -0.5937
     31 C4         -0.3734    3.3525    0.9220 C.ar      1 ATP         0.2810
     32 HOG3       -0.0099    0.9024   -8.8249 H         1 ATP         0.4152
     33 HOA2        4.9339   -1.4843   -3.6423 H         1 ATP         0.4571
     34 H5'1        1.2163   -0.0770   -2.0471 H         1 ATP         0.0465
     35 H5'2        2.4655   -1.3443   -2.1563 H         1 ATP         0.0465
     36 H4'         3.8044   -0.1397   -0.4040 H         1 ATP         0.1379
     37 H3'         1.6764   -1.7639    0.2728 H         1 ATP         0.1317
     38 HO3'        3.5554   -1.2733    1.4914 H         1 ATP         0.4175
     39 H2'        -0.0011    0.0027    0.0003 H         1 ATP         0.0669
     40 HO2'       -0.6141    0.5574    2.1082 H         1 ATP         0.4064
     41 H1'         1.7826    1.9024    1.6451 H         1 ATP         0.1285
     42 H8          0.7125    2.3429   -1.9292 H         1 ATP         0.2954
     43 HN62       -3.3217    6.4517    0.2629 H         1 ATP         0.4226
     44 H2         -1.5188    4.4223    3.7890 H         1 ATP         0.0826
     45 H45        -2.7470    5.7626    2.3665 H         1 ATP         0.4581
     46 H46        -1.0305    4.1680   -2.1054 H         1 ATP         0.5252
@<TRIPOS>BOND
     1    1    2 2
     2    1    3 1
     3    1    4 1
     4    1    8 1
     5    4   32 1
     6    5    6 2
     7    5    7 1
     8    5    8 1
     9    5   12 1
    10    9   10 2
    11    9   11 1
    12    9   12 1
    13    9   13 1
    14   11   33 1
    15   13   14 1
    16   14   15 1
    17   14   34 1
    18   14   35 1
    19   15   16 1
    20   15   17 1
    21   15   36 1
    22   16   21 1
    23   17   18 1
    24   17   19 1
    25   17   37 1
    26   18   38 1
    27   19   20 1
    28   19   21 1
    29   19   39 1
    30   20   40 1
    31   21   22 1
    32   21   41 1
    33   22   23 ar
    34   22   31 ar
    35   23   24 ar
    36   23   42 1
    37   24   25 ar
    38   24   46 1
    39   25   26 ar
    40   25   31 ar
    41   26   27 2
    42   26   28 ar
    43   27   43 1
    44   28   29 ar
    45   28   45 1
    46   29   30 ar
    47   29   44 1
    48   30   31 ar
@<TRIPOS>SUBSTRUCTURE
     1 ATP         1 GROUP 0 A     ****
@<TRIPOS>MOLECULE
[[[3,4-dihydroxy-5-(6-imino-7,8-dihydro-1~{H}-purin-8-ylium-9-yl)tetrahydrofuran-2-yl]methoxy-hydroxy-phosphoryl]oxy-oxido-phosphoryl] hydrogen phosphate
   46    48     1     0     0
SMALL
USER_CHARGES

@<TRIPOS>ATOM
      1 PG         -4.2176   -7.2527    6.2729 P.3       1 ATP         1.5644
      2 O1G        -5.3769   -6.2904    6.1395 O.co2     1 ATP        -0.8581
      3 O2G        -3.7615   -7.7371    7.6311 O.co2     1 ATP        -0.8581
      4 O3G        -4.5121   -8.5529    5.3301 O.3       1 ATP        -0.7962
      5 PB         -1.4823   -7.3197    5.1436 P.3       1 ATP         1.6830
      6 O1B        -0.7298   -7.4906    6.4444 O.co2     1 ATP        -0.8633
      7 O2B        -1.6823   -8.4842    4.1993 O.co2     1 ATP        -0.8633
      8 O3B        -2.9350   -6.6509    5.4659 O.3       1 ATP        -0.8097
      9 PA         -0.4992   -4.5557    4.7496 P.3       1 ATP         1.7610
     10 O1A         0.4335   -4.4255    5.9187 O.2       1 ATP        -0.8554
     11 O2A        -1.9724   -3.9355    5.0008 O.3       1 ATP        -0.8102
     12 O3A        -0.8105   -6.0830    4.3171 O.3       1 ATP        -0.7693
     13 O5'         0.0118   -3.8395    3.3916 O.3       1 ATP        -0.5757
     14 C5'        -0.7840   -3.8935    2.2172 C.3       1 ATP         0.1911
     15 C4'        -0.0724   -3.1466    1.1027 C.3       1 ATP         0.1218
     16 O4'        -0.8674   -3.1929   -0.0945 O.3       1 ATP        -0.4138
     17 C3'         0.1338   -1.6715    1.4027 C.3       1 ATP         0.1338
     18 O3'         1.2893   -1.4445    2.1808 O.3       1 ATP        -0.5756
     19 C2'         0.2158   -1.0724    0.0128 C.3       1 ATP         0.0673
     20 O2'         1.5141   -1.2448   -0.5513 O.3       1 ATP        -0.5671
     21 C1'        -0.7897   -1.9176   -0.7583 C.3       1 ATP         0.3795
     22 N9         -2.1040   -1.3333   -0.7704 N.pl3     1 ATP        -0.4175
     23 C8         -3.0590   -1.5123    0.1363 C.ar      1 ATP         0.2552
     24 N7         -4.1655   -0.8354   -0.1554 N.pl3     1 ATP        -0.4731
     25 C5         -3.8852   -0.1874   -1.3253 C.ar      1 ATP        -0.1295
     26 C6         -4.7113    0.7160   -2.1458 C.ar      1 ATP         0.7196
     27 N6         -5.9213    1.0209   -1.8021 N.2       1 ATP        -0.8094
     28 N1         -4.0411    1.1673   -3.2764 N.pl3     1 ATP        -0.8312
     29 C2         -2.7403    0.7865   -3.5638 C.ar      1 ATP         0.6744
     30 N3         -1.9921   -0.0108   -2.8519 N.2       1 ATP        -0.5937
     31 C4         -2.6302   -0.4747   -1.7239 C.ar      1 ATP         0.2810
     32 HOG3       -3.8467   -9.2734    5.3077 H         1 ATP         0.4152
     33 HOA2       -2.0553   -2.9813    5.2126 H         1 ATP         0.4571
     34 H5'1       -0.9348   -4.9415    1.9415 H         1 ATP         0.0465
     35 H5'2       -1.7548   -3.4350    2.4278 H         1 ATP         0.0465
     36 H4'         0.8874   -3.6466    0.8805 H         1 ATP         0.1379
     37 H3'        -0.7376   -1.2333    1.9867 H         1 ATP         0.1317
     38 HO3'        1.1626   -1.9325    3.0084 H         1 ATP         0.4175
     39 H2'        -0.0384   -0.0310    0.0096 H         1 ATP         0.0669
     40 HO2'        2.1463   -0.7958    0.0370 H         1 ATP         0.4064
     41 H1'        -0.4769   -2.1002   -1.8093 H         1 ATP         0.1285
     42 H8         -2.9569   -2.1323    1.0098 H         1 ATP         0.2954
     43 HN62       -6.3169    1.6552   -2.5012 H         1 ATP         0.4226
     44 H2         -2.3612    1.2343   -4.4957 H         1 ATP         0.0826
     45 H45        -4.5223    1.7976   -3.9117 H         1 ATP         0.4581
     46 H46        -5.0218   -0.8132    0.3804 H         1 ATP         0.5252
@<TRIPOS>BOND
     1    1    2 2
     2    1    3 1
     3    1    4 1
     4    1    8 1
     5    4   32 1
     6    5    6 2
     7    5    7 1
     8    5    8 1
     9    5   12 1
    10    9   10 2
    11    9   11 1
    12    9   12 1
    13    9   13 1
    14   11   33 1
    15   13   14 1
    16   14   15 1
    17   14   34 1
    18   14   35 1
    19   15   16 1
    20   15   17 1
    21   15   36 1
    22   16   21 1
    23   17   18 1
    24   17   19 1
    25   17   37 1
    26   18   38 1
    27   19   20 1
    28   19   21 1
    29   19   39 1
    30   20   40 1
    31   21   22 1
    32   21   41 1
    33   22   23 ar
    34   22   31 ar
    35   23   24 ar
    36   23   42 1
    37   24   25 ar
    38   24   46 1
    39   25   26 ar
    40   25   31 ar
    41   26   27 2
    42   26   28 ar
    43   27   43 1
    44   28   29 ar
    45   28   45 1
    46   29   30 ar
    47   29   44 1
    48   30   31 ar
@<TRIPOS>SUBSTRUCTURE
     1 ATP         1 GROUP 0 A     ****
@<TRIPOS>MOLECULE
[[[3,4-dihydroxy-5-(6-imino-7,8-dihydro-1~{H}-purin-8-ylium-9-yl)tetrahydrofuran-2-yl]methoxy-hydroxy-phosphoryl]oxy-oxido-phosphoryl] hydrogen phosphate
   46    48     1     0     0
SMALL
USER_CHARGES

@<TRIPOS>ATOM
      1 PG          4.7866    1.3293   -4.9555 P.3       1 ATP         1.5644
      2 O1G         5.8826    0.6864   -5.7758 O.co2     1 ATP        -0.8581
      3 O2G         5.1017    2.0409   -3.6586 O.co2     1 ATP        -0.8581
      4 O3G         3.9497    2.3495   -5.9173 O.3       1 ATP        -0.7962
      5 PB          2.7838   -0.7069   -5.7331 P.3       1 ATP         1.6830
      6 O1B         1.9126    0.1828   -6.5915 O.co2     1 ATP        -0.8633
      7 O2B         3.7382   -1.7005   -6.3573 O.co2     1 ATP        -0.8633
      8 O3B         3.6133    0.2296   -4.6859 O.3       1 ATP        -0.8097
      9 PA          2.1902   -2.4548   -3.4193 P.3       1 ATP         1.7610
     10 O1A         2.9716   -3.6811   -3.7924 O.2       1 ATP        -0.8554
     11 O2A         0.7452   -2.7614   -2.7590 O.3       1 ATP        -0.8102
     12 O3A         1.8285   -1.4938   -4.6692 O.3       1 ATP        -0.7693
     13 O5'         2.9216   -1.4836   -2.3516 O.3       1 ATP        -0.5757
     14 C5'         2.2816   -0.2918   -1.9206 C.3       1 ATP         0.1911
     15 C4'         2.7248    0.0226   -0.4980 C.3       1 ATP         0.1218
     16 O4'         2.4697    1.4219   -0.2462 O.3       1 ATP        -0.4138
     17 C3'         1.9404   -0.7419    0.5596 C.3       1 ATP         0.1338
     18 O3'         2.7418   -0.8086    1.7389 O.3       1 ATP        -0.5756
     19 C2'         0.7477    0.1630    0.7858 C.3       1 ATP         0.0673
     20 O2'         0.1373   -0.0577    2.0407 O.3       1 ATP        -0.5671
     21 C1'         1.3733    1.5427    0.6747 C.3       1 ATP         0.3795
     22 N9          0.4520    2.5240    0.1767 N.pl3     1 ATP        -0.4175
     23 C8         -0.2004    2.4829   -0.9804 C.ar      1 ATP         0.2552
     24 N7         -0.9830    3.5431   -1.1568 N.pl3     1 ATP        -0.4731
     25 C5         -0.8095    4.3012   -0.0331 C.ar      1 ATP        -0.1295
     26 C6         -1.4065    5.5904    0.3585 C.ar      1 ATP         0.7196
     27 N6         -2.2501    6.2030   -0.4084 N.2       1 ATP        -0.8094
     28 N1         -0.9585    6.0272    1.5994 N.pl3     1 ATP        -0.8312
     29 C2         -0.0508    5.3009    2.3532 C.ar      1 ATP         0.6744
     30 N3          0.4890    4.1592    2.0257 N.2       1 ATP        -0.5937
     31 C4          0.0637    3.7006    0.7995 C.ar      1 ATP         0.2810
     32 HOG3        3.1992    2.8474   -5.5284 H         1 ATP         0.4152
     33 HOA2        0.7043   -3.2806   -1.9277 H         1 ATP         0.4571
     34 H5'1        2.5589    0.5217   -2.5976 H         1 ATP         0.0465
     35 H5'2        1.1982   -0.4388   -1.9617 H         1 ATP         0.0465
     36 H4'         3.8044   -0.1397   -0.4040 H         1 ATP         0.1379
     37 H3'         1.6764   -1.7639    0.2728 H         1 ATP         0.1317
     38 HO3'        2.2232   -1.2979    2.3953 H         1 ATP         0.4175
     39 H2'        -0.0011    0.0027    0.0003 H         1 ATP         0.0669
     40 HO2'       -0.6141    0.5574    2.1082 H         1 ATP         0.4064
     41 H1'         1.7826    1.9024    1.6451 H         1 ATP         0.1285
     42 H8         -0.1116    1.6863   -1.6984 H         1 ATP         0.2954
     43 HN62       -2.5420    7.0730    0.0447 H         1 ATP         0.4226
     44 H2          0.1969    5.7893    3.3086 H         1 ATP         0.0826
     45 H45        -1.3097    6.9080    1.9642 H         1 ATP         0.4581
     46 H46        -1.5735    3.7351   -1.9538 H         1 ATP         0.5252
@<TRIPOS>BOND
     1    1    2 2
     2    1    3 1
     3    1    4 1
     4    1    8 1
     5    4   32 1
     6    5    6 2
     7    5    7 1
     8    5    8 1
     9    5   12 1
    10    9   10 2
    11    9   11 1
    12    9   12 1
    13    9   13 1
    14   11   33 1
    15   13   14 1
    16   14   15 1
    17   14   34 1
    18   14   35 1
    19   15   16 1
    20   15   17 1
    21   15   36 1
    22   16   21 1
    23   17   18 1
    24   17   19 1
    25   17   37 1
    26   18   38 1
    27   19   20 1
    28   19   21 1
    29   19   39 1
    30   20   40 1
    31   21   22 1
    32   21   41 1
    33   22   23 ar
    34   22   31 ar
    35   23   24 ar
    36   23   42 1
    37   24   25 ar
    38   24   46 1
    39   25   26 ar
    40   25   31 ar
    41   26   27 2
    42   26   28 ar
    43   27   43 1
    44   28   29 ar
    45   28   45 1
    46   29   30 ar
    47   29   44 1
    48   30   31 ar
@<TRIPOS>SUBSTRUCTURE
     1 ATP         1 GROUP 0 A     ****
@<TRIPOS>MOLECULE
[[[3,4-dihydroxy-5-(6-imino-7,8-dihydro-1~{H}-purin-8-ylium-9-yl)tetrahydrofuran-2-yl]methoxy-hydroxy-phosphoryl]oxy-oxido-phosphoryl] hydrogen phosphate
   46    48     1     0     0
SMALL
USER_CHARGES

@<TRIPOS>ATOM
      1 PG         -1.9696   -9.1373    4.6590 P.3       1 ATP         1.5644
      2 O1G        -2.6690  -10.2968    3.9853 O.co2     1 ATP        -0.8581
      3 O2G        -2.7594   -8.0470    5.3482 O.co2     1 ATP        -0.8581
      4 O3G        -0.8772   -9.7340    5.7158 O.3       1 ATP        -0.7962
      5 PB          0.1770   -7.2818    3.8156 P.3       1 ATP         1.6830
      6 O1B         1.0750   -7.6753    4.9673 O.co2     1 ATP        -0.8633
      7 O2B         0.7548   -6.9052    2.4695 O.co2     1 ATP        -0.8633
      8 O3B        -0.9362   -8.4545    3.5985 O.3       1 ATP        -0.8097
      9 PA         -0.4992   -4.5557    4.7496 P.3       1 ATP         1.7610
     10 O1A         0.4335   -4.4255    5.9187 O.2       1 ATP        -0.8554
     11 O2A        -1.9724   -3.9355    5.0008 O.3       1 ATP        -0.8102
     12 O3A        -0.8105   -6.0830    4.3171 O.3       1 ATP        -0.7693
     13 O5'         0.0118   -3.8395    3.3916 O.3       1 ATP        -0.5757
     14 C5'        -0.7840   -3.8935    2.2172 C.3       1 ATP         0.1911
     15 C4'        -0.0724   -3.1466    1.1027 C.3       1 ATP         0.1218
     16 O4'        -0.8674   -3.1929   -0.0945 O.3       1 ATP        -0.4138
     17 C3'         0.1338   -1.6715    1.4027 C.3       1 ATP         0.1338
     18 O3'         1.2893   -1.4445    2.1808 O.3       1 ATP        -0.5756
     19 C2'         0.2158   -1.0724    0.0128 C.3       1 ATP         0.0673
     20 O2'         1.5141   -1.2448   -0.5513 O.3       1 ATP        -0.5671
     21 C1'        -0.7897   -1.9176   -0.7583 C.3       1 ATP         0.3795
     22 N9         -2.1040   -1.3333   -0.7704 N.pl3     1 ATP        -0.4175
     23 C8         -3.0590   -1.5123    0.1363 C.ar      1 ATP         0.2552
     24 N7         -4.1655   -0.8354   -0.1554 N.pl3     1 ATP        -0.4731
     25 C5         -3.8852   -0.1874   -1.3253 C.ar      1 ATP        -0.1295
     26 C6         -4.7113    0.7160   -2.1458 C.ar      1 ATP         0.7196
     27 N6         -5.9213    1.0209   -1.8021 N.2       1 ATP        -0.8094
     28 N1         -4.0411    1.1673   -3.2764 N.pl3     1 ATP        -0.8312
     29 C2         -2.7403    0.7865   -3.5638 C.ar      1 ATP         0.6744
     30 N3         -1.9921   -0.0108   -2.8519 N.2       1 ATP        -0.5937
     31 C4         -2.6302   -0.4747   -1.7239 C.ar      1 ATP         0.2810
     32 HOG3       -0.3374   -9.1014    6.2362 H         1 ATP         0.4152
     33 HOA2       -2.5205   -4.2958    5.7301 H         1 ATP         0.4571
     34 H5'1       -0.9348   -4.9415    1.9415 H         1 ATP         0.0465
     35 H5'2       -1.7548   -3.4350    2.4278 H         1 ATP         0.0465
     36 H4'         0.8874   -3.6466    0.8805 H         1 ATP         0.1379
     37 H3'        -0.7376   -1.2333    1.9867 H         1 ATP         0.1317
     38 HO3'        1.1626   -1.9325    3.0084 H         1 ATP         0.4175
     39 H2'        -0.0384   -0.0310    0.0096 H         1 ATP         0.0669
     40 HO2'        2.1463   -0.7958    0.0370 H         1 ATP         0.4064
     41 H1'        -0.4769   -2.1002   -1.8093 H         1 ATP         0.1285
     42 H8         -2.9569   -2.1323    1.0098 H         1 ATP         0.2954
     43 HN62       -6.3169    1.6552   -2.5012 H         1 ATP         0.4226
     44 H2         -2.3612    1.2343   -4.4957 H         1 ATP         0.0826
     45 H45        -4.5223    1.7976   -3.9117 H         1 ATP         0.4581
     46 H46        -5.0218   -0.8132    0.3804 H         1 ATP         0.5252
@<TRIPOS>BOND
     1    1    2 2
     2    1    3 1
     3    1    4 1
     4    1    8 1
     5    4   32 1
     6    5    6 2
     7    5    7 1
     8    5    8 1
     9    5   12 1
    10    9   10 2
    11    9   11 1
    12    9   12 1
    13    9   13 1
    14   11   33 1
    15   13   14 1
    16   14   15 1
    17   14   34 1
    18   14   35 1
    19   15   16 1
    20   15   17 1
    21   15   36 1
    22   16   21 1
    23   17   18 1
    24   17   19 1
    25   17   37 1
    26   18   38 1
    27   19   20 1
    28   19   21 1
    29   19   39 1
    30   20   40 1
    31   21   22 1
    32   21   41 1
    33   22   23 ar
    34   22   31 ar
    35   23   24 ar
    36   23   42 1
    37   24   25 ar
    38   24   46 1
    39   25   26 ar
    40   25   31 ar
    41   26   27 2
    42   26   28 ar
    43   27   43 1
    44   28   29 ar
    45   28   45 1
    46   29   30 ar
    47   29   44 1
    48   30   31 ar
@<TRIPOS>SUBSTRUCTURE
     1 ATP         1 GROUP 0 A     ****
@<TRIPOS>MOLECULE
[[[3,4-dihydroxy-5-(6-imino-7,8-dihydro-1~{H}-purin-8-ylium-9-yl)tetrahydrofuran-2-yl]methoxy-hydroxy-phosphoryl]oxy-oxido-phosphoryl] hydrogen phosphate
   46    48     1     0     0
SMALL
USER_CHARGES

@<TRIPOS>ATOM
      1 PG          7.5874   -0.4558   -1.4174 P.3       1 ATP         1.5644
      2 O1G         8.2039    0.8147   -0.8759 O.co2     1 ATP        -0.8581
      3 O2G         8.3279   -1.7724   -1.3432 O.co2     1 ATP        -0.8581
      4 O3G         6.1157   -0.6489   -0.7368 O.3       1 ATP        -0.7962
      5 PB          6.2623   -1.1522   -3.9711 P.3       1 ATP         1.6830
      6 O1B         5.9495   -0.3653   -5.2243 O.co2     1 ATP        -0.8633
      7 O2B         6.9353   -2.5047   -4.0469 O.co2     1 ATP        -0.8633
      8 O3B         7.1133   -0.1995   -2.9563 O.3       1 ATP        -0.8097
      9 PA          3.5156   -2.0921   -3.3934 P.3       1 ATP         1.7610
     10 O1A         3.6877   -3.5728   -3.5714 O.2       1 ATP        -0.8554
     11 O2A         2.9211   -1.3302   -4.6911 O.3       1 ATP        -0.8102
     12 O3A         4.8921   -1.2960   -3.0962 O.3       1 ATP        -0.7693
     13 O5'         2.5245   -1.6648   -2.1878 O.3       1 ATP        -0.5757
     14 C5'         2.2816   -0.2918   -1.9206 C.3       1 ATP         0.1911
     15 C4'         2.7248    0.0226   -0.4980 C.3       1 ATP         0.1218
     16 O4'         2.4697    1.4219   -0.2462 O.3       1 ATP        -0.4138
     17 C3'         1.9404   -0.7419    0.5596 C.3       1 ATP         0.1338
     18 O3'         2.7418   -0.8086    1.7389 O.3       1 ATP        -0.5756
     19 C2'         0.7477    0.1630    0.7858 C.3       1 ATP         0.0673
     20 O2'         0.1373   -0.0577    2.0407 O.3       1 ATP        -0.5671
     21 C1'         1.3733    1.5427    0.6747 C.3       1 ATP         0.3795
     22 N9          0.4520    2.5240    0.1767 N.pl3     1 ATP        -0.4175
     23 C8          0.2216    2.8192   -1.0985 C.ar      1 ATP         0.2552
     24 N7         -0.6906    3.7763   -1.2384 N.pl3     1 ATP        -0.4731
     25 C5         -1.0575    4.1037    0.0366 C.ar      1 ATP        -0.1295
     26 C6         -2.0291    5.0943    0.5330 C.ar      1 ATP         0.7196
     27 N6         -2.7093    5.8371   -0.2800 N.2       1 ATP        -0.8094
     28 N1         -2.1051    5.1136    1.9204 N.pl3     1 ATP        -0.8312
     29 C2         -1.3354    4.2774    2.7129 C.ar      1 ATP         0.6744
     30 N3         -0.4707    3.3945    2.2944 N.2       1 ATP        -0.5937
     31 C4         -0.3734    3.3525    0.9220 C.ar      1 ATP         0.2810
     32 HOG3        5.5846   -1.4343   -0.9885 H         1 ATP         0.4152
     33 HOA2        3.4207   -1.3697   -5.5343 H         1 ATP         0.4571
     34 H5'1        2.8432    0.3119   -2.6398 H         1 ATP         0.0465
     35 H5'2        1.2128   -0.0927   -2.0428 H         1 ATP         0.0465
     36 H4'         3.8044   -0.1397   -0.4040 H         1 ATP         0.1379
     37 H3'         1.6764   -1.7639    0.2728 H         1 ATP         0.1317
     38 HO3'        3.5554   -1.2733    1.4914 H         1 ATP         0.4175
     39 H2'        -0.0011    0.0027    0.0003 H         1 ATP         0.0669
     40 HO2'        0.8082    0.1199    2.7232 H         1 ATP         0.4064
     41 H1'         1.7826    1.9024    1.6451 H         1 ATP         0.1285
     42 H8          0.7125    2.3429   -1.9292 H         1 ATP         0.2954
     43 HN62       -3.3217    6.4517    0.2629 H         1 ATP         0.4226
     44 H2         -1.5188    4.4223    3.7890 H         1 ATP         0.0826
     45 H45        -2.7470    5.7626    2.3665 H         1 ATP         0.4581
     46 H46        -1.0305    4.1680   -2.1054 H         1 ATP         0.5252
@<TRIPOS>BOND
     1    1    2 2
     2    1    3 1
     3    1    4 1
     4    1    8 1
     5    4   32 1
     6    5    6 2
     7    5    7 1
     8    5    8 1
     9    5   12 1
    10    9   10 2
    11    9   11 1
    12    9   12 1
    13    9   13 1
    14   11   33 1
    15   13   14 1
    16   14   15 1
    17   14   34 1
    18   14   35 1
    19   15   16 1
    20   15   17 1
    21   15   36 1
    22   16   21 1
    23   17   18 1
    24   17   19 1
    25   17   37 1
    26   18   38 1
    27   19   20 1
    28   19   21 1
    29   19   39 1
    30   20   40 1
    31   21   22 1
    32   21   41 1
    33   22   23 ar
    34   22   31 ar
    35   23   24 ar
    36   23   42 1
    37   24   25 ar
    38   24   46 1
    39   25   26 ar
    40   25   31 ar
    41   26   27 2
    42   26   28 ar
    43   27   43 1
    44   28   29 ar
    45   28   45 1
    46   29   30 ar
    47   29   44 1
    48   30   31 ar
@<TRIPOS>SUBSTRUCTURE
     1 ATP         1 GROUP 0 A     ****
@<TRIPOS>MOLECULE
[[[3,4-dihydroxy-5-(6-imino-7,8-dihydro-1~{H}-purin-8-ylium-9-yl)tetrahydrofuran-2-yl]methoxy-hydroxy-phosphoryl]oxy-oxido-phosphoryl] hydrogen phosphate
   46    48     1     0     0
SMALL
USER_CHARGES

@<TRIPOS>ATOM
      1 PG         -5.1079   -3.1491    4.1562 P.3       1 ATP         1.5644
      2 O1G        -6.4329   -2.4518    3.9425 O.co2     1 ATP        -0.8581
      3 O2G        -3.8748   -2.7278    3.3887 O.co2     1 ATP        -0.8581
      4 O3G        -4.7603   -3.1239    5.7515 O.3       1 ATP        -0.7962
      5 PB         -4.2899   -5.9927    4.2401 P.3       1 ATP         1.6830
      6 O1B        -3.7374   -5.8719    5.6430 O.co2     1 ATP        -0.8633
      7 O2B        -4.9374   -7.2742    3.7645 O.co2     1 ATP        -0.8633
      8 O3B        -5.3209   -4.7558    3.9778 O.3       1 ATP        -0.8097
      9 PA         -1.7101   -6.2838    2.8184 P.3       1 ATP         1.7610
     10 O1A        -1.8467   -7.6794    2.2823 O.2       1 ATP        -0.8554
     11 O2A        -0.8728   -6.1797    4.1989 O.3       1 ATP        -0.8102
     12 O3A        -3.1168   -5.5743    3.1854 O.3       1 ATP        -0.7693
     13 O5'        -0.9724   -5.2440    1.8220 O.3       1 ATP        -0.5757
     14 C5'        -0.7840   -3.8935    2.2172 C.3       1 ATP         0.1911
     15 C4'        -0.0724   -3.1466    1.1027 C.3       1 ATP         0.1218
     16 O4'        -0.8674   -3.1929   -0.0945 O.3       1 ATP        -0.4138
     17 C3'         0.1338   -1.6715    1.4027 C.3       1 ATP         0.1338
     18 O3'         1.2893   -1.4445    2.1808 O.3       1 ATP        -0.5756
     19 C2'         0.2158   -1.0724    0.0128 C.3       1 ATP         0.0673
     20 O2'         1.5141   -1.2448   -0.5513 O.3       1 ATP        -0.5671
     21 C1'        -0.7897   -1.9176   -0.7583 C.3       1 ATP         0.3795
     22 N9         -2.1040   -1.3333   -0.7704 N.pl3     1 ATP        -0.4175
     23 C8         -3.0590   -1.5123    0.1363 C.ar      1 ATP         0.2552
     24 N7         -4.1655   -0.8354   -0.1554 N.pl3     1 ATP        -0.4731
     25 C5         -3.8852   -0.1874   -1.3253 C.ar      1 ATP        -0.1295
     26 C6         -4.7113    0.7160   -2.1458 C.ar      1 ATP         0.7196
     27 N6         -5.9213    1.0209   -1.8021 N.2       1 ATP        -0.8094
     28 N1         -4.0411    1.1673   -3.2764 N.pl3     1 ATP        -0.8312
     29 C2         -2.7403    0.7865   -3.5638 C.ar      1 ATP         0.6744
     30 N3         -1.9921   -0.0108   -2.8519 N.2       1 ATP        -0.5937
     31 C4         -2.6302   -0.4747   -1.7239 C.ar      1 ATP         0.2810
     32 HOG3       -3.9252   -3.5407    6.0538 H         1 ATP         0.4152
     33 HOA2        0.0586   -6.4873    4.2129 H         1 ATP         0.4571
     34 H5'1       -1.7618   -3.4448    2.4164 H         1 ATP         0.0465
     35 H5'2       -0.1874   -3.8744    3.1341 H         1 ATP         0.0465
     36 H4'         0.8874   -3.6466    0.8805 H         1 ATP         0.1379
     37 H3'        -0.7376   -1.2333    1.9867 H         1 ATP         0.1317
     38 HO3'        1.1626   -1.9325    3.0084 H         1 ATP         0.4175
     39 H2'        -0.0384   -0.0310    0.0096 H         1 ATP         0.0669
     40 HO2'        1.4998   -0.8412   -1.4369 H         1 ATP         0.4064
     41 H1'        -0.4769   -2.1002   -1.8093 H         1 ATP         0.1285
     42 H8         -2.9569   -2.1323    1.0098 H         1 ATP         0.2954
     43 HN62       -6.3169    1.6552   -2.5012 H         1 ATP         0.4226
     44 H2         -2.3612    1.2343   -4.4957 H         1 ATP         0.0826
     45 H45        -4.5223    1.7976   -3.9117 H         1 ATP         0.4581
     46 H46        -5.0218   -0.8132    0.3804 H         1 ATP         0.5252
@<TRIPOS>BOND
     1    1    2 2
     2    1    3 1
     3    1    4 1
     4    1    8 1
     5    4   32 1
     6    5    6 2
     7    5    7 1
     8    5    8 1
     9    5   12 1
    10    9   10 2
    11    9   11 1
    12    9   12 1
    13    9   13 1
    14   11   33 1
    15   13   14 1
    16   14   15 1
    17   14   34 1
    18   14   35 1
    19   15   16 1
    20   15   17 1
    21   15   36 1
    22   16   21 1
    23   17   18 1
    24   17   19 1
    25   17   37 1
    26   18   38 1
    27   19   20 1
    28   19   21 1
    29   19   39 1
    30   20   40 1
    31   21   22 1
    32   21   41 1
    33   22   23 ar
    34   22   31 ar
    35   23   24 ar
    36   23   42 1
    37   24   25 ar
    38   24   46 1
    39   25   26 ar
    40   25   31 ar
    41   26   27 2
    42   26   28 ar
    43   27   43 1
    44   28   29 ar
    45   28   45 1
    46   29   30 ar
    47   29   44 1
    48   30   31 ar
@<TRIPOS>SUBSTRUCTURE
     1 ATP         1 GROUP 0 A     ****
@<TRIPOS>MOLECULE
[[[3,4-dihydroxy-5-(6-imino-7,8-dihydro-1~{H}-purin-8-ylium-9-yl)tetrahydrofuran-2-yl]methoxy-hydroxy-phosphoryl]oxy-oxido-phosphoryl] hydrogen phosphate
   46    48     1     0     0
SMALL
USER_CHARGES

@<TRIPOS>ATOM
      1 PG          2.3216   -2.8207   -7.0617 P.3       1 ATP         1.5644
      2 O1G         2.3964   -4.0994   -7.8660 O.co2     1 ATP        -0.8581
      3 O2G         3.3443   -2.5151   -5.9902 O.co2     1 ATP        -0.8581
      4 O3G         2.2620   -1.5596   -8.0971 O.3       1 ATP        -0.7962
      5 PB          0.1382   -1.4527   -5.6045 P.3       1 ATP         1.6830
      6 O1B         0.2807   -0.1885   -6.4227 O.co2     1 ATP        -0.8633
      7 O2B        -1.2126   -1.9039   -5.0951 O.co2     1 ATP        -0.8633
      8 O3B         0.8274   -2.6839   -6.4235 O.3       1 ATP        -0.8097
      9 PA          1.5776   -2.4676   -3.2256 P.3       1 ATP         1.7610
     10 O1A         2.1795   -3.7248   -3.7832 O.2       1 ATP        -0.8554
     11 O2A         0.1953   -2.6937   -2.4155 O.3       1 ATP        -0.8102
     12 O3A         1.1741   -1.3727   -4.3459 O.3       1 ATP        -0.7693
     13 O5'         2.5245   -1.6648   -2.1878 O.3       1 ATP        -0.5757
     14 C5'         2.2816   -0.2918   -1.9206 C.3       1 ATP         0.1911
     15 C4'         2.7248    0.0226   -0.4980 C.3       1 ATP         0.1218
     16 O4'         2.4697    1.4219   -0.2462 O.3       1 ATP        -0.4138
     17 C3'         1.9404   -0.7419    0.5596 C.3       1 ATP         0.1338
     18 O3'         2.7418   -0.8086    1.7389 O.3       1 ATP        -0.5756
     19 C2'         0.7477    0.1630    0.7858 C.3       1 ATP         0.0673
     20 O2'         0.1373   -0.0577    2.0407 O.3       1 ATP        -0.5671
     21 C1'         1.3733    1.5427    0.6747 C.3       1 ATP         0.3795
     22 N9          0.4520    2.5240    0.1767 N.pl3     1 ATP        -0.4175
     23 C8          0.2216    2.8192   -1.0985 C.ar      1 ATP         0.2552
     24 N7         -0.6906    3.7763   -1.2384 N.pl3     1 ATP        -0.4731
     25 C5         -1.0575    4.1037    0.0366 C.ar      1 ATP        -0.1295
     26 C6         -2.0291    5.0943    0.5330 C.ar      1 ATP         0.7196
     27 N6         -2.7093    5.8371   -0.2800 N.2       1 ATP        -0.8094
     28 N1         -2.1051    5.1136    1.9204 N.pl3     1 ATP        -0.8312
     29 C2         -1.3354    4.2774    2.7129 C.ar      1 ATP         0.6744
     30 N3         -0.4707    3.3945    2.2944 N.2       1 ATP        -0.5937
     31 C4         -0.3734    3.3525    0.9220 C.ar      1 ATP         0.2810
     32 HOG3        2.2105   -0.6530   -7.7260 H         1 ATP         0.4152
     33 HOA2       -0.5709   -3.0865   -2.8854 H         1 ATP         0.4571
     34 H5'1        2.8432    0.3119   -2.6398 H         1 ATP         0.0465
     35 H5'2        1.2128   -0.0927   -2.0428 H         1 ATP         0.0465
     36 H4'         3.8044   -0.1397   -0.4040 H         1 ATP         0.1379
     37 H3'         1.6764   -1.7639    0.2728 H         1 ATP         0.1317
     38 HO3'        3.5554   -1.2733    1.4914 H         1 ATP         0.4175
     39 H2'        -0.0011    0.0027    0.0003 H         1 ATP         0.0669
     40 HO2'       -0.1563   -0.9855    2.0596 H         1 ATP         0.4064
     41 H1'         1.7826    1.9024    1.6451 H         1 ATP         0.1285
     42 H8          0.7125    2.3429   -1.9292 H         1 ATP         0.2954
     43 HN62       -3.3217    6.4517    0.2629 H         1 ATP         0.4226
     44 H2         -1.5188    4.4223    3.7890 H         1 ATP         0.0826
     45 H45        -2.7470    5.7626    2.3665 H         1 ATP         0.4581
     46 H46        -1.0305    4.1680   -2.1054 H         1 ATP         0.5252
@<TRIPOS>BOND
     1    1    2 2
     2    1    3 1
     3    1    4 1
     4    1    8 1
     5    4   32 1
     6    5    6 2
     7    5    7 1
     8    5    8 1
     9    5   12 1
    10    9   10 2
    11    9   11 1
    12    9   12 1
    13    9   13 1
    14   11   33 1
    15   13   14 1
    16   14   15 1
    17   14   34 1
    18   14   35 1
    19   15   16 1
    20   15   17 1
    21   15   36 1
    22   16   21 1
    23   17   18 1
    24   17   19 1
    25   17   37 1
    26   18   38 1
    27   19   20 1
    28   19   21 1
    29   19   39 1
    30   20   40 1
    31   21   22 1
    32   21   41 1
    33   22   23 ar
    34   22   31 ar
    35   23   24 ar
    36   23   42 1
    37   24   25 ar
    38   24   46 1
    39   25   26 ar
    40   25   31 ar
    41   26   27 2
    42   26   28 ar
    43   27   43 1
    44   28   29 ar
    45   28   45 1
    46   29   30 ar
    47   29   44 1
    48   30   31 ar
@<TRIPOS>SUBSTRUCTURE
     1 ATP         1 GROUP 0 A     ****
@<TRIPOS>MOLECULE
[[[3,4-dihydroxy-5-(6-imino-7,8-dihydro-1~{H}-purin-8-ylium-9-yl)tetrahydrofuran-2-yl]methoxy-hydroxy-phosphoryl]oxy-oxido-phosphoryl] hydrogen phosphate
   46    48     1     0     0
SMALL
USER_CHARGES

@<TRIPOS>ATOM
      1 PG          2.1468    1.5421   -7.8649 P.3       1 ATP         1.5644
      2 O1G         2.2539    0.0597   -7.5848 O.co2     1 ATP        -0.8581
      3 O2G         3.0792    2.2175   -8.8456 O.co2     1 ATP        -0.8581
      4 O3G         0.6081    1.8784   -8.2957 O.3       1 ATP        -0.7962
      5 PB          1.2852    2.1689   -5.1032 P.3       1 ATP         1.6830
      6 O1B         1.8473    3.0628   -4.0203 O.co2     1 ATP        -0.8633
      7 O2B        -0.1769    2.2314   -5.4853 O.co2     1 ATP        -0.8633
      8 O3B         2.1872    2.3520   -6.4503 O.3       1 ATP        -0.8097
      9 PA          3.0915   -0.0732   -4.4165 P.3       1 ATP         1.7610
     10 O1A         4.2296    0.4201   -5.2621 O.2       1 ATP        -0.8554
     11 O2A         2.7765   -1.6519   -4.5791 O.3       1 ATP        -0.8102
     12 O3A         1.6695    0.6231   -4.7478 O.3       1 ATP        -0.7693
     13 O5'         3.2903    0.1346   -2.8241 O.3       1 ATP        -0.5757
     14 C5'         2.2816   -0.2918   -1.9206 C.3       1 ATP         0.1911
     15 C4'         2.7248    0.0226   -0.4980 C.3       1 ATP         0.1218
     16 O4'         2.4697    1.4219   -0.2462 O.3       1 ATP        -0.4138
     17 C3'         1.9404   -0.7419    0.5596 C.3       1 ATP         0.1338
     18 O3'         2.7418   -0.8086    1.7389 O.3       1 ATP        -0.5756
     19 C2'         0.7477    0.1630    0.7858 C.3       1 ATP         0.0673
     20 O2'         0.1373   -0.0577    2.0407 O.3       1 ATP        -0.5671
     21 C1'         1.3733    1.5427    0.6747 C.3       1 ATP         0.3795
     22 N9          0.4520    2.5240    0.1767 N.pl3     1 ATP        -0.4175
     23 C8          0.5691    3.2215   -0.9485 C.ar      1 ATP         0.2552
     24 N7         -0.4499    4.0551   -1.1342 N.pl3     1 ATP        -0.4731
     25 C5         -1.2618    3.8674   -0.0512 C.ar      1 ATP        -0.1295
     26 C6         -2.5420    4.5007    0.3120 C.ar      1 ATP         0.7196
     27 N6         -3.0874    5.3993   -0.4432 N.2       1 ATP        -0.8094
     28 N1         -3.0494    4.0205    1.5133 N.pl3     1 ATP        -0.8312
     29 C2         -2.3933    3.0527    2.2567 C.ar      1 ATP         0.6744
     30 N3         -1.2611    2.4796    1.9536 N.2       1 ATP        -0.5937
     31 C4         -0.7334    2.9358    0.7669 C.ar      1 ATP         0.2810
     32 HOG3        0.3761    2.8069   -8.5112 H         1 ATP         0.4152
     33 HOA2        2.5282   -1.9972   -5.4631 H         1 ATP         0.4571
     34 H5'1        1.3514    0.2330   -2.1577 H         1 ATP         0.0465
     35 H5'2        2.1280   -1.3678   -2.0460 H         1 ATP         0.0465
     36 H4'         3.8044   -0.1397   -0.4040 H         1 ATP         0.1379
     37 H3'         1.6764   -1.7639    0.2728 H         1 ATP         0.1317
     38 HO3'        3.5554   -1.2733    1.4914 H         1 ATP         0.4175
     39 H2'        -0.0011    0.0027    0.0003 H         1 ATP         0.0669
     40 HO2'       -0.1563   -0.9855    2.0596 H         1 ATP         0.4064
     41 H1'         1.7826    1.9024    1.6451 H         1 ATP         0.1285
     42 H8          1.3912    3.1285   -1.6365 H         1 ATP         0.2954
     43 HN62       -3.9637    5.7084   -0.0142 H         1 ATP         0.4226
     44 H2         -2.9317    2.7866    3.1796 H         1 ATP         0.0826
     45 H45        -3.9307    4.3923    1.8559 H         1 ATP         0.4581
     46 H46        -0.5835    4.6857   -1.9122 H         1 ATP         0.5252
@<TRIPOS>BOND
     1    1    2 2
     2    1    3 1
     3    1    4 1
     4    1    8 1
     5    4   32 1
     6    5    6 2
     7    5    7 1
     8    5    8 1
     9    5   12 1
    10    9   10 2
    11    9   11 1
    12    9   12 1
    13    9   13 1
    14   11   33 1
    15   13   14 1
    16   14   15 1
    17   14   34 1
    18   14   35 1
    19   15   16 1
    20   15   17 1
    21   15   36 1
    22   16   21 1
    23   17   18 1
    24   17   19 1
    25   17   37 1
    26   18   38 1
    27   19   20 1
    28   19   21 1
    29   19   39 1
    30   20   40 1
    31   21   22 1
    32   21   41 1
    33   22   23 ar
    34   22   31 ar
    35   23   24 ar
    36   23   42 1
    37   24   25 ar
    38   24   46 1
    39   25   26 ar
    40   25   31 ar
    41   26   27 2
    42   26   28 ar
    43   27   43 1
    44   28   29 ar
    45   28   45 1
    46   29   30 ar
    47   29   44 1
    48   30   31 ar
@<TRIPOS>SUBSTRUCTURE
     1 ATP         1 GROUP 0 A     ****
@<TRIPOS>MOLECULE
[[[3,4-dihydroxy-5-(6-imino-7,8-dihydro-1~{H}-purin-8-ylium-9-yl)tetrahydrofuran-2-yl]methoxy-hydroxy-phosphoryl]oxy-oxido-phosphoryl] hydrogen phosphate
   46    48     1     0     0
SMALL
USER_CHARGES

@<TRIPOS>ATOM
      1 PG         -1.4602    1.4796   -4.2375 P.3       1 ATP         1.5644
      2 O1G        -1.5883    2.4914   -3.1206 O.co2     1 ATP        -0.8581
      3 O2G        -1.2255    0.0159   -3.9376 O.co2     1 ATP        -0.8581
      4 O3G        -2.7688    1.6078   -5.2057 O.3       1 ATP        -0.7962
      5 PB          1.2852    2.1689   -5.1032 P.3       1 ATP         1.6830
      6 O1B         1.8921    2.5166   -6.4443 O.co2     1 ATP        -0.8633
      7 O2B         1.5429    3.0269   -3.8845 O.co2     1 ATP        -0.8633
      8 O3B        -0.3260    1.9942   -5.2899 O.3       1 ATP        -0.8097
      9 PA          3.0915   -0.0732   -4.4165 P.3       1 ATP         1.7610
     10 O1A         4.2296    0.4201   -5.2621 O.2       1 ATP        -0.8554
     11 O2A         2.7765   -1.6519   -4.5791 O.3       1 ATP        -0.8102
     12 O3A         1.6695    0.6231   -4.7478 O.3       1 ATP        -0.7693
     13 O5'         3.2903    0.1346   -2.8241 O.3       1 ATP        -0.5757
     14 C5'         2.2816   -0.2918   -1.9206 C.3       1 ATP         0.1911
     15 C4'         2.7248    0.0226   -0.4980 C.3       1 ATP         0.1218
     16 O4'         2.4697    1.4219   -0.2462 O.3       1 ATP        -0.4138
     17 C3'         1.9404   -0.7419    0.5596 C.3       1 ATP         0.1338
     18 O3'         2.7418   -0.8086    1.7389 O.3       1 ATP        -0.5756
     19 C2'         0.7477    0.1630    0.7858 C.3       1 ATP         0.0673
     20 O2'         0.1373   -0.0577    2.0407 O.3       1 ATP        -0.5671
     21 C1'         1.3733    1.5427    0.6747 C.3       1 ATP         0.3795
     22 N9          0.4520    2.5240    0.1767 N.pl3     1 ATP        -0.4175
     23 C8          0.5691    3.2215   -0.9485 C.ar      1 ATP         0.2552
     24 N7         -0.4499    4.0551   -1.1342 N.pl3     1 ATP        -0.4731
     25 C5         -1.2618    3.8674   -0.0512 C.ar      1 ATP        -0.1295
     26 C6         -2.5420    4.5007    0.3120 C.ar      1 ATP         0.7196
     27 N6         -3.0874    5.3993   -0.4432 N.2       1 ATP        -0.8094
     28 N1         -3.0494    4.0205    1.5133 N.pl3     1 ATP        -0.8312
     29 C2         -2.3933    3.0527    2.2567 C.ar      1 ATP         0.6744
     30 N3         -1.2611    2.4796    1.9536 N.2       1 ATP        -0.5937
     31 C4         -0.7334    2.9358    0.7669 C.ar      1 ATP         0.2810
     32 HOG3       -2.8342    1.0130   -5.9831 H         1 ATP         0.4152
     33 HOA2        3.4791   -2.3005   -4.3603 H         1 ATP         0.4571
     34 H5'1        1.3514    0.2330   -2.1577 H         1 ATP         0.0465
     35 H5'2        2.1280   -1.3678   -2.0460 H         1 ATP         0.0465
     36 H4'         3.8044   -0.1397   -0.4040 H         1 ATP         0.1379
     37 H3'         1.6764   -1.7639    0.2728 H         1 ATP         0.1317
     38 HO3'        2.2232   -1.2979    2.3953 H         1 ATP         0.4175
     39 H2'        -0.0011    0.0027    0.0003 H         1 ATP         0.0669
     40 HO2'       -0.1563   -0.9855    2.0596 H         1 ATP         0.4064
     41 H1'         1.7826    1.9024    1.6451 H         1 ATP         0.1285
     42 H8          1.3912    3.1285   -1.6365 H         1 ATP         0.2954
     43 HN62       -3.9637    5.7084   -0.0142 H         1 ATP         0.4226
     44 H2         -2.9317    2.7866    3.1796 H         1 ATP         0.0826
     45 H45        -3.9307    4.3923    1.8559 H         1 ATP         0.4581
     46 H46        -0.5835    4.6857   -1.9122 H         1 ATP         0.5252
@<TRIPOS>BOND
     1    1    2 2
     2    1    3 1
     3    1    4 1
     4    1    8 1
     5    4   32 1
     6    5    6 2
     7    5    7 1
     8    5    8 1
     9    5   12 1
    10    9   10 2
    11    9   11 1
    12    9   12 1
    13    9   13 1
    14   11   33 1
    15   13   14 1
    16   14   15 1
    17   14   34 1
    18   14   35 1
    19   15   16 1
    20   15   17 1
    21   15   36 1
    22   16   21 1
    23   17   18 1
    24   17   19 1
    25   17   37 1
    26   18   38 1
    27   19   20 1
    28   19   21 1
    29   19   39 1
    30   20   40 1
    31   21   22 1
    32   21   41 1
    33   22   23 ar
    34   22   31 ar
    35   23   24 ar
    36   23   42 1
    37   24   25 ar
    38   24   46 1
    39   25   26 ar
    40   25   31 ar
    41   26   27 2
    42   26   28 ar
    43   27   43 1
    44   28   29 ar
    45   28   45 1
    46   29   30 ar
    47   29   44 1
    48   30   31 ar
@<TRIPOS>SUBSTRUCTURE
     1 ATP         1 GROUP 0 A     ****
@<TRIPOS>MOLECULE
[[[3,4-dihydroxy-5-(6-imino-7,8-dihydro-1~{H}-purin-8-ylium-9-yl)tetrahydrofuran-2-yl]methoxy-hydroxy-phosphoryl]oxy-oxido-phosphoryl] hydrogen phosphate
   46    48     1     0     0
SMALL
USER_CHARGES

@<TRIPOS>ATOM
      1 PG         -5.9466   -5.1430    4.7962 P.3       1 ATP         1.5644
      2 O1G        -4.7967   -5.4010    5.7442 O.co2     1 ATP        -0.8581
      3 O2G        -6.9463   -6.2308    4.4723 O.co2     1 ATP        -0.8581
      4 O3G        -6.7617   -3.8271    5.3159 O.3       1 ATP        -0.7962
      5 PB         -4.4164   -5.2211    2.2635 P.3       1 ATP         1.6830
      6 O1B        -5.0594   -6.5183    1.8258 O.co2     1 ATP        -0.8633
      7 O2B        -4.0244   -4.1653    1.2540 O.co2     1 ATP        -0.8633
      8 O3B        -5.3576   -4.5319    3.4041 O.3       1 ATP        -0.8097
      9 PA         -1.7101   -6.2838    2.8184 P.3       1 ATP         1.7610
     10 O1A        -1.8467   -7.6794    2.2823 O.2       1 ATP        -0.8554
     11 O2A        -0.8728   -6.1797    4.1989 O.3       1 ATP        -0.8102
     12 O3A        -3.1168   -5.5743    3.1854 O.3       1 ATP        -0.7693
     13 O5'        -0.9724   -5.2440    1.8220 O.3       1 ATP        -0.5757
     14 C5'        -0.7840   -3.8935    2.2172 C.3       1 ATP         0.1911
     15 C4'        -0.0724   -3.1466    1.1027 C.3       1 ATP         0.1218
     16 O4'        -0.8674   -3.1929   -0.0945 O.3       1 ATP        -0.4138
     17 C3'         0.1338   -1.6715    1.4027 C.3       1 ATP         0.1338
     18 O3'         1.2893   -1.4445    2.1808 O.3       1 ATP        -0.5756
     19 C2'         0.2158   -1.0724    0.0128 C.3       1 ATP         0.0673
     20 O2'         1.5141   -1.2448   -0.5513 O.3       1 ATP        -0.5671
     21 C1'        -0.7897   -1.9176   -0.7583 C.3       1 ATP         0.3795
     22 N9         -2.1040   -1.3333   -0.7704 N.pl3     1 ATP        -0.4175
     23 C8         -3.0590   -1.5123    0.1363 C.ar      1 ATP         0.2552
     24 N7         -4.1655   -0.8354   -0.1554 N.pl3     1 ATP        -0.4731
     25 C5         -3.8852   -0.1874   -1.3253 C.ar      1 ATP        -0.1295
     26 C6         -4.7113    0.7160   -2.1458 C.ar      1 ATP         0.7196
     27 N6         -5.9213    1.0209   -1.8021 N.2       1 ATP        -0.8094
     28 N1         -4.0411    1.1673   -3.2764 N.pl3     1 ATP        -0.8312
     29 C2         -2.7403    0.7865   -3.5638 C.ar      1 ATP         0.6744
     30 N3         -1.9921   -0.0108   -2.8519 N.2       1 ATP        -0.5937
     31 C4         -2.6302   -0.4747   -1.7239 C.ar      1 ATP         0.2810
     32 HOG3       -7.5423   -3.5285    4.8022 H         1 ATP         0.4152
     33 HOA2        0.0586   -6.4873    4.2129 H         1 ATP         0.4571
     34 H5'1       -1.7618   -3.4448    2.4164 H         1 ATP         0.0465
     35 H5'2       -0.1874   -3.8744    3.1341 H         1 ATP         0.0465
     36 H4'         0.8874   -3.6466    0.8805 H         1 ATP         0.1379
     37 H3'        -0.7376   -1.2333    1.9867 H         1 ATP         0.1317
     38 HO3'        1.1626   -1.9325    3.0084 H         1 ATP         0.4175
     39 H2'        -0.0384   -0.0310    0.0096 H         1 ATP         0.0669
     40 HO2'        2.1463   -0.7958    0.0370 H         1 ATP         0.4064
     41 H1'        -0.4769   -2.1002   -1.8093 H         1 ATP         0.1285
     42 H8         -2.9569   -2.1323    1.0098 H         1 ATP         0.2954
     43 HN62       -6.3169    1.6552   -2.5012 H         1 ATP         0.4226
     44 H2         -2.3612    1.2343   -4.4957 H         1 ATP         0.0826
     45 H45        -4.5223    1.7976   -3.9117 H         1 ATP         0.4581
     46 H46        -5.0218   -0.8132    0.3804 H         1 ATP         0.5252
@<TRIPOS>BOND
     1    1    2 2
     2    1    3 1
     3    1    4 1
     4    1    8 1
     5    4   32 1
     6    5    6 2
     7    5    7 1
     8    5    8 1
     9    5   12 1
    10    9   10 2
    11    9   11 1
    12    9   12 1
    13    9   13 1
    14   11   33 1
    15   13   14 1
    16   14   15 1
    17   14   34 1
    18   14   35 1
    19   15   16 1
    20   15   17 1
    21   15   36 1
    22   16   21 1
    23   17   18 1
    24   17   19 1
    25   17   37 1
    26   18   38 1
    27   19   20 1
    28   19   21 1
    29   19   39 1
    30   20   40 1
    31   21   22 1
    32   21   41 1
    33   22   23 ar
    34   22   31 ar
    35   23   24 ar
    36   23   42 1
    37   24   25 ar
    38   24   46 1
    39   25   26 ar
    40   25   31 ar
    41   26   27 2
    42   26   28 ar
    43   27   43 1
    44   28   29 ar
    45   28   45 1
    46   29   30 ar
    47   29   44 1
    48   30   31 ar
@<TRIPOS>SUBSTRUCTURE
     1 ATP         1 GROUP 0 A     ****
@<TRIPOS>MOLECULE
[[[3,4-dihydroxy-5-(6-imino-7,8-dihydro-1~{H}-purin-8-ylium-9-yl)tetrahydrofuran-2-yl]methoxy-hydroxy-phosphoryl]oxy-oxido-phosphoryl] hydrogen phosphate
   46    48     1     0     0
SMALL
USER_CHARGES

@<TRIPOS>ATOM
      1 PG         -5.2433   -7.8495    2.1412 P.3       1 ATP         1.5644
      2 O1G        -5.6088   -9.3171    2.1360 O.co2     1 ATP        -0.8581
      3 O2G        -4.3184   -7.2747    1.0917 O.co2     1 ATP        -0.8581
      4 O3G        -6.6205   -6.9724    2.1560 O.3       1 ATP        -0.7962
      5 PB         -4.2899   -5.9927    4.2401 P.3       1 ATP         1.6830
      6 O1B        -5.4611   -5.0546    4.0501 O.co2     1 ATP        -0.8633
      7 O2B        -3.6679   -6.1975    5.6036 O.co2     1 ATP        -0.8633
      8 O3B        -4.6827   -7.4493    3.6192 O.3       1 ATP        -0.8097
      9 PA         -1.7101   -6.2838    2.8184 P.3       1 ATP         1.7610
     10 O1A        -1.8467   -7.6794    2.2823 O.2       1 ATP        -0.8554
     11 O2A        -0.8728   -6.1797    4.1989 O.3       1 ATP        -0.8102
     12 O3A        -3.1168   -5.5743    3.1854 O.3       1 ATP        -0.7693
     13 O5'        -0.9724   -5.2440    1.8220 O.3       1 ATP        -0.5757
     14 C5'        -0.7840   -3.8935    2.2172 C.3       1 ATP         0.1911
     15 C4'        -0.0724   -3.1466    1.1027 C.3       1 ATP         0.1218
     16 O4'        -0.8674   -3.1929   -0.0945 O.3       1 ATP        -0.4138
     17 C3'         0.1338   -1.6715    1.4027 C.3       1 ATP         0.1338
     18 O3'         1.2893   -1.4445    2.1808 O.3       1 ATP        -0.5756
     19 C2'         0.2158   -1.0724    0.0128 C.3       1 ATP         0.0673
     20 O2'         1.5141   -1.2448   -0.5513 O.3       1 ATP        -0.5671
     21 C1'        -0.7897   -1.9176   -0.7583 C.3       1 ATP         0.3795
     22 N9         -2.1040   -1.3333   -0.7704 N.pl3     1 ATP        -0.4175
     23 C8         -3.0590   -1.5123    0.1363 C.ar      1 ATP         0.2552
     24 N7         -4.1655   -0.8354   -0.1554 N.pl3     1 ATP        -0.4731
     25 C5         -3.8852   -0.1874   -1.3253 C.ar      1 ATP        -0.1295
     26 C6         -4.7113    0.7160   -2.1458 C.ar      1 ATP         0.7196
     27 N6         -5.9213    1.0209   -1.8021 N.2       1 ATP        -0.8094
     28 N1         -4.0411    1.1673   -3.2764 N.pl3     1 ATP        -0.8312
     29 C2         -2.7403    0.7865   -3.5638 C.ar      1 ATP         0.6744
     30 N3         -1.9921   -0.0108   -2.8519 N.2       1 ATP        -0.5937
     31 C4         -2.6302   -0.4747   -1.7239 C.ar      1 ATP         0.2810
     32 HOG3       -6.5506   -5.9939    2.1608 H         1 ATP         0.4152
     33 HOA2        0.0586   -6.4873    4.2129 H         1 ATP         0.4571
     34 H5'1       -1.7618   -3.4448    2.4164 H         1 ATP         0.0465
     35 H5'2       -0.1874   -3.8744    3.1341 H         1 ATP         0.0465
     36 H4'         0.8874   -3.6466    0.8805 H         1 ATP         0.1379
     37 H3'        -0.7376   -1.2333    1.9867 H         1 ATP         0.1317
     38 HO3'        1.3408   -0.4870    2.3219 H         1 ATP         0.4175
     39 H2'        -0.0384   -0.0310    0.0096 H         1 ATP         0.0669
     40 HO2'        2.1463   -0.7958    0.0370 H         1 ATP         0.4064
     41 H1'        -0.4769   -2.1002   -1.8093 H         1 ATP         0.1285
     42 H8         -2.9569   -2.1323    1.0098 H         1 ATP         0.2954
     43 HN62       -6.3169    1.6552   -2.5012 H         1 ATP         0.4226
     44 H2         -2.3612    1.2343   -4.4957 H         1 ATP         0.0826
     45 H45        -4.5223    1.7976   -3.9117 H         1 ATP         0.4581
     46 H46        -5.0218   -0.8132    0.3804 H         1 ATP         0.5252
@<TRIPOS>BOND
     1    1    2 2
     2    1    3 1
     3    1    4 1
     4    1    8 1
     5    4   32 1
     6    5    6 2
     7    5    7 1
     8    5    8 1
     9    5   12 1
    10    9   10 2
    11    9   11 1
    12    9   12 1
    13    9   13 1
    14   11   33 1
    15   13   14 1
    16   14   15 1
    17   14   34 1
    18   14   35 1
    19   15   16 1
    20   15   17 1
    21   15   36 1
    22   16   21 1
    23   17   18 1
    24   17   19 1
    25   17   37 1
    26   18   38 1
    27   19   20 1
    28   19   21 1
    29   19   39 1
    30   20   40 1
    31   21   22 1
    32   21   41 1
    33   22   23 ar
    34   22   31 ar
    35   23   24 ar
    36   23   42 1
    37   24   25 ar
    38   24   46 1
    39   25   26 ar
    40   25   31 ar
    41   26   27 2
    42   26   28 ar
    43   27   43 1
    44   28   29 ar
    45   28   45 1
    46   29   30 ar
    47   29   44 1
    48   30   31 ar
@<TRIPOS>SUBSTRUCTURE
     1 ATP         1 GROUP 0 A     ****
@<TRIPOS>MOLECULE
[[[3,4-dihydroxy-5-(6-imino-7,8-dihydro-1~{H}-purin-8-ylium-9-yl)tetrahydrofuran-2-yl]methoxy-hydroxy-phosphoryl]oxy-oxido-phosphoryl] hydrogen phosphate
   46    48     1     0     0
SMALL
USER_CHARGES

@<TRIPOS>ATOM
      1 PG         -5.0965   -3.2189    4.3349 P.3       1 ATP         1.5644
      2 O1G        -6.2122   -3.1073    5.3500 O.co2     1 ATP        -0.8581
      3 O2G        -4.7338   -2.0498    3.4465 O.co2     1 ATP        -0.8581
      4 O3G        -3.7471   -3.7266    5.1014 O.3       1 ATP        -0.7962
      5 PB         -4.4164   -5.2211    2.2635 P.3       1 ATP         1.6830
      6 O1B        -5.0594   -6.5183    1.8258 O.co2     1 ATP        -0.8633
      7 O2B        -4.0244   -4.1653    1.2540 O.co2     1 ATP        -0.8633
      8 O3B        -5.3576   -4.5319    3.4041 O.3       1 ATP        -0.8097
      9 PA         -1.7101   -6.2838    2.8184 P.3       1 ATP         1.7610
     10 O1A        -1.8467   -7.6794    2.2823 O.2       1 ATP        -0.8554
     11 O2A        -0.8728   -6.1797    4.1989 O.3       1 ATP        -0.8102
     12 O3A        -3.1168   -5.5743    3.1854 O.3       1 ATP        -0.7693
     13 O5'        -0.9724   -5.2440    1.8220 O.3       1 ATP        -0.5757
     14 C5'        -0.7840   -3.8935    2.2172 C.3       1 ATP         0.1911
     15 C4'        -0.0724   -3.1466    1.1027 C.3       1 ATP         0.1218
     16 O4'        -0.8674   -3.1929   -0.0945 O.3       1 ATP        -0.4138
     17 C3'         0.1338   -1.6715    1.4027 C.3       1 ATP         0.1338
     18 O3'         1.2893   -1.4445    2.1808 O.3       1 ATP        -0.5756
     19 C2'         0.2158   -1.0724    0.0128 C.3       1 ATP         0.0673
     20 O2'         1.5141   -1.2448   -0.5513 O.3       1 ATP        -0.5671
     21 C1'        -0.7897   -1.9176   -0.7583 C.3       1 ATP         0.3795
     22 N9         -2.1040   -1.3333   -0.7704 N.pl3     1 ATP        -0.4175
     23 C8         -3.0590   -1.5123    0.1363 C.ar      1 ATP         0.2552
     24 N7         -4.1655   -0.8354   -0.1554 N.pl3     1 ATP        -0.4731
     25 C5         -3.8852   -0.1874   -1.3253 C.ar      1 ATP        -0.1295
     26 C6         -4.7113    0.7160   -2.1458 C.ar      1 ATP         0.7196
     27 N6         -5.9213    1.0209   -1.8021 N.2       1 ATP        -0.8094
     28 N1         -4.0411    1.1673   -3.2764 N.pl3     1 ATP        -0.8312
     29 C2         -2.7403    0.7865   -3.5638 C.ar      1 ATP         0.6744
     30 N3         -1.9921   -0.0108   -2.8519 N.2       1 ATP        -0.5937
     31 C4         -2.6302   -0.4747   -1.7239 C.ar      1 ATP         0.2810
     32 HOG3       -2.9289   -3.8490    4.5742 H         1 ATP         0.4152
     33 HOA2       -1.1984   -6.6622    4.9885 H         1 ATP         0.4571
     34 H5'1       -1.7618   -3.4448    2.4164 H         1 ATP         0.0465
     35 H5'2       -0.1874   -3.8744    3.1341 H         1 ATP         0.0465
     36 H4'         0.8874   -3.6466    0.8805 H         1 ATP         0.1379
     37 H3'        -0.7376   -1.2333    1.9867 H         1 ATP         0.1317
     38 HO3'        1.1626   -1.9325    3.0084 H         1 ATP         0.4175
     39 H2'        -0.0384   -0.0310    0.0096 H         1 ATP         0.0669
     40 HO2'        1.4998   -0.8412   -1.4369 H         1 ATP         0.4064
     41 H1'        -0.4769   -2.1002   -1.8093 H         1 ATP         0.1285
     42 H8         -2.9569   -2.1323    1.0098 H         1 ATP         0.2954
     43 HN62       -6.3169    1.6552   -2.5012 H         1 ATP         0.4226
     44 H2         -2.3612    1.2343   -4.4957 H         1 ATP         0.0826
     45 H45        -4.5223    1.7976   -3.9117 H         1 ATP         0.4581
     46 H46        -5.0218   -0.8132    0.3804 H         1 ATP         0.5252
@<TRIPOS>BOND
     1    1    2 2
     2    1    3 1
     3    1    4 1
     4    1    8 1
     5    4   32 1
     6    5    6 2
     7    5    7 1
     8    5    8 1
     9    5   12 1
    10    9   10 2
    11    9   11 1
    12    9   12 1
    13    9   13 1
    14   11   33 1
    15   13   14 1
    16   14   15 1
    17   14   34 1
    18   14   35 1
    19   15   16 1
    20   15   17 1
    21   15   36 1
    22   16   21 1
    23   17   18 1
    24   17   19 1
    25   17   37 1
    26   18   38 1
    27   19   20 1
    28   19   21 1
    29   19   39 1
    30   20   40 1
    31   21   22 1
    32   21   41 1
    33   22   23 ar
    34   22   31 ar
    35   23   24 ar
    36   23   42 1
    37   24   25 ar
    38   24   46 1
    39   25   26 ar
    40   25   31 ar
    41   26   27 2
    42   26   28 ar
    43   27   43 1
    44   28   29 ar
    45   28   45 1
    46   29   30 ar
    47   29   44 1
    48   30   31 ar
@<TRIPOS>SUBSTRUCTURE
     1 ATP         1 GROUP 0 A     ****
@<TRIPOS>MOLECULE
[[[3,4-dihydroxy-5-(6-imino-7,8-dihydro-1~{H}-purin-8-ylium-9-yl)tetrahydrofuran-2-yl]methoxy-hydroxy-phosphoryl]oxy-oxido-phosphoryl] hydrogen phosphate
   46    48     1     0     0
SMALL
USER_CHARGES

@<TRIPOS>ATOM
      1 PG         -0.6732    1.0052   -5.1486 P.3       1 ATP         1.5644
      2 O1G        -0.9387    2.1760   -6.0686 O.co2     1 ATP        -0.8581
      3 O2G         0.1327    1.1798   -3.8807 O.co2     1 ATP        -0.8581
      4 O3G        -2.1015    0.3133   -4.7646 O.3       1 ATP        -0.7962
      5 PB          0.3026   -1.7545   -5.5891 P.3       1 ATP         1.6830
      6 O1B        -0.9396   -2.3719   -4.9862 O.co2     1 ATP        -0.8633
      7 O2B         1.0339   -2.4280   -6.7290 O.co2     1 ATP        -0.8633
      8 O3B        -0.0354   -0.2173   -6.0187 O.3       1 ATP        -0.8097
      9 PA          2.1902   -2.4548   -3.4193 P.3       1 ATP         1.7610
     10 O1A         3.1075   -3.3959   -4.1450 O.2       1 ATP        -0.8554
     11 O2A         1.0262   -3.1857   -2.5656 O.3       1 ATP        -0.8102
     12 O3A         1.3656   -1.4550   -4.3874 O.3       1 ATP        -0.7693
     13 O5'         2.9216   -1.4836   -2.3516 O.3       1 ATP        -0.5757
     14 C5'         2.2816   -0.2918   -1.9206 C.3       1 ATP         0.1911
     15 C4'         2.7248    0.0226   -0.4980 C.3       1 ATP         0.1218
     16 O4'         2.4697    1.4219   -0.2462 O.3       1 ATP        -0.4138
     17 C3'         1.9404   -0.7419    0.5596 C.3       1 ATP         0.1338
     18 O3'         2.7418   -0.8086    1.7389 O.3       1 ATP        -0.5756
     19 C2'         0.7477    0.1630    0.7858 C.3       1 ATP         0.0673
     20 O2'         0.1373   -0.0577    2.0407 O.3       1 ATP        -0.5671
     21 C1'         1.3733    1.5427    0.6747 C.3       1 ATP         0.3795
     22 N9          0.4520    2.5240    0.1767 N.pl3     1 ATP        -0.4175
     23 C8          0.2216    2.8192   -1.0985 C.ar      1 ATP         0.2552
     24 N7         -0.6906    3.7763   -1.2384 N.pl3     1 ATP        -0.4731
     25 C5         -1.0575    4.1037    0.0366 C.ar      1 ATP        -0.1295
     26 C6         -2.0291    5.0943    0.5330 C.ar      1 ATP         0.7196
     27 N6         -2.7093    5.8371   -0.2800 N.2       1 ATP        -0.8094
     28 N1         -2.1051    5.1136    1.9204 N.pl3     1 ATP        -0.8312
     29 C2         -1.3354    4.2774    2.7129 C.ar      1 ATP         0.6744
     30 N3         -0.4707    3.3945    2.2944 N.2       1 ATP        -0.5937
     31 C4         -0.3734    3.3525    0.9220 C.ar      1 ATP         0.2810
     32 HOG3       -2.0973   -0.4664   -4.1693 H         1 ATP         0.4152
     33 HOA2        0.3854   -3.7621   -3.0340 H         1 ATP         0.4571
     34 H5'1        2.5589    0.5217   -2.5976 H         1 ATP         0.0465
     35 H5'2        1.1982   -0.4388   -1.9617 H         1 ATP         0.0465
     36 H4'         3.8044   -0.1397   -0.4040 H         1 ATP         0.1379
     37 H3'         1.6764   -1.7639    0.2728 H         1 ATP         0.1317
     38 HO3'        2.2232   -1.2979    2.3953 H         1 ATP         0.4175
     39 H2'        -0.0011    0.0027    0.0003 H         1 ATP         0.0669
     40 HO2'       -0.6141    0.5574    2.1082 H         1 ATP         0.4064
     41 H1'         1.7826    1.9024    1.6451 H         1 ATP         0.1285
     42 H8          0.7125    2.3429   -1.9292 H         1 ATP         0.2954
     43 HN62       -3.3217    6.4517    0.2629 H         1 ATP         0.4226
     44 H2         -1.5188    4.4223    3.7890 H         1 ATP         0.0826
     45 H45        -2.7470    5.7626    2.3665 H         1 ATP         0.4581
     46 H46        -1.0305    4.1680   -2.1054 H         1 ATP         0.5252
@<TRIPOS>BOND
     1    1    2 2
     2    1    3 1
     3    1    4 1
     4    1    8 1
     5    4   32 1
     6    5    6 2
     7    5    7 1
     8    5    8 1
     9    5   12 1
    10    9   10 2
    11    9   11 1
    12    9   12 1
    13    9   13 1
    14   11   33 1
    15   13   14 1
    16   14   15 1
    17   14   34 1
    18   14   35 1
    19   15   16 1
    20   15   17 1
    21   15   36 1
    22   16   21 1
    23   17   18 1
    24   17   19 1
    25   17   37 1
    26   18   38 1
    27   19   20 1
    28   19   21 1
    29   19   39 1
    30   20   40 1
    31   21   22 1
    32   21   41 1
    33   22   23 ar
    34   22   31 ar
    35   23   24 ar
    36   23   42 1
    37   24   25 ar
    38   24   46 1
    39   25   26 ar
    40   25   31 ar
    41   26   27 2
    42   26   28 ar
    43   27   43 1
    44   28   29 ar
    45   28   45 1
    46   29   30 ar
    47   29   44 1
    48   30   31 ar
@<TRIPOS>SUBSTRUCTURE
     1 ATP         1 GROUP 0 A     ****
@<TRIPOS>MOLECULE
[[[3,4-dihydroxy-5-(6-imino-7,8-dihydro-1~{H}-purin-8-ylium-9-yl)tetrahydrofuran-2-yl]methoxy-hydroxy-phosphoryl]oxy-oxido-phosphoryl] hydrogen phosphate
   46    48     1     0     0
SMALL
USER_CHARGES

@<TRIPOS>ATOM
      1 PG          3.8357   -1.4697   -7.6852 P.3       1 ATP         1.5644
      2 O1G         3.1002   -2.4376   -8.5851 O.co2     1 ATP        -0.8581
      3 O2G         4.9289   -1.9489   -6.7564 O.co2     1 ATP        -0.8581
      4 O3G         4.4292   -0.2569   -8.6033 O.3       1 ATP        -0.7962
      5 PB          1.7091   -1.0947   -5.6606 P.3       1 ATP         1.6830
      6 O1B         1.0427    0.1291   -5.0724 O.co2     1 ATP        -0.8633
      7 O2B         0.8896   -2.2521   -6.1866 O.co2     1 ATP        -0.8633
      8 O3B         2.7458   -0.6146   -6.8252 O.3       1 ATP        -0.8097
      9 PA          4.0072   -0.9371   -3.8018 P.3       1 ATP         1.7610
     10 O1A         5.0554   -0.3590   -4.7078 O.2       1 ATP        -0.8554
     11 O2A         4.5510   -2.0894   -2.8046 O.3       1 ATP        -0.8102
     12 O3A         2.7889   -1.6652   -4.5779 O.3       1 ATP        -0.7693
     13 O5'         3.2903    0.1346   -2.8241 O.3       1 ATP        -0.5757
     14 C5'         2.2816   -0.2918   -1.9206 C.3       1 ATP         0.1911
     15 C4'         2.7248    0.0226   -0.4980 C.3       1 ATP         0.1218
     16 O4'         2.4697    1.4219   -0.2462 O.3       1 ATP        -0.4138
     17 C3'         1.9404   -0.7419    0.5596 C.3       1 ATP         0.1338
     18 O3'         2.7418   -0.8086    1.7389 O.3       1 ATP        -0.5756
     19 C2'         0.7477    0.1630    0.7858 C.3       1 ATP         0.0673
     20 O2'         0.1373   -0.0577    2.0407 O.3       1 ATP        -0.5671
     21 C1'         1.3733    1.5427    0.6747 C.3       1 ATP         0.3795
     22 N9          0.4520    2.5240    0.1767 N.pl3     1 ATP        -0.4175
     23 C8          0.2216    2.8192   -1.0985 C.ar      1 ATP         0.2552
     24 N7         -0.6906    3.7763   -1.2384 N.pl3     1 ATP        -0.4731
     25 C5         -1.0575    4.1037    0.0366 C.ar      1 ATP        -0.1295
     26 C6         -2.0291    5.0943    0.5330 C.ar      1 ATP         0.7196
     27 N6         -2.7093    5.8371   -0.2800 N.2       1 ATP        -0.8094
     28 N1         -2.1051    5.1136    1.9204 N.pl3     1 ATP        -0.8312
     29 C2         -1.3354    4.2774    2.7129 C.ar      1 ATP         0.6744
     30 N3         -0.4707    3.3945    2.2944 N.2       1 ATP        -0.5937
     31 C4         -0.3734    3.3525    0.9220 C.ar      1 ATP         0.2810
     32 HOG3        4.9363    0.4575   -8.1618 H         1 ATP         0.4152
     33 HOA2        4.9474   -2.9003   -3.1885 H         1 ATP         0.4571
     34 H5'1        1.3514    0.2330   -2.1577 H         1 ATP         0.0465
     35 H5'2        2.1280   -1.3678   -2.0460 H         1 ATP         0.0465
     36 H4'         3.8044   -0.1397   -0.4040 H         1 ATP         0.1379
     37 H3'         1.6764   -1.7639    0.2728 H         1 ATP         0.1317
     38 HO3'        3.5554   -1.2733    1.4914 H         1 ATP         0.4175
     39 H2'        -0.0011    0.0027    0.0003 H         1 ATP         0.0669
     40 HO2'       -0.6141    0.5574    2.1082 H         1 ATP         0.4064
     41 H1'         1.7826    1.9024    1.6451 H         1 ATP         0.1285
     42 H8          0.7125    2.3429   -1.9292 H         1 ATP         0.2954
     43 HN62       -3.3217    6.4517    0.2629 H         1 ATP         0.4226
     44 H2         -1.5188    4.4223    3.7890 H         1 ATP         0.0826
     45 H45        -2.7470    5.7626    2.3665 H         1 ATP         0.4581
     46 H46        -1.0305    4.1680   -2.1054 H         1 ATP         0.5252
@<TRIPOS>BOND
     1    1    2 2
     2    1    3 1
     3    1    4 1
     4    1    8 1
     5    4   32 1
     6    5    6 2
     7    5    7 1
     8    5    8 1
     9    5   12 1
    10    9   10 2
    11    9   11 1
    12    9   12 1
    13    9   13 1
    14   11   33 1
    15   13   14 1
    16   14   15 1
    17   14   34 1
    18   14   35 1
    19   15   16 1
    20   15   17 1
    21   15   36 1
    22   16   21 1
    23   17   18 1
    24   17   19 1
    25   17   37 1
    26   18   38 1
    27   19   20 1
    28   19   21 1
    29   19   39 1
    30   20   40 1
    31   21   22 1
    32   21   41 1
    33   22   23 ar
    34   22   31 ar
    35   23   24 ar
    36   23   42 1
    37   24   25 ar
    38   24   46 1
    39   25   26 ar
    40   25   31 ar
    41   26   27 2
    42   26   28 ar
    43   27   43 1
    44   28   29 ar
    45   28   45 1
    46   29   30 ar
    47   29   44 1
    48   30   31 ar
@<TRIPOS>SUBSTRUCTURE
     1 ATP         1 GROUP 0 A     ****
@<TRIPOS>MOLECULE
[[[3,4-dihydroxy-5-(6-imino-7,8-dihydro-1~{H}-purin-8-ylium-9-yl)tetrahydrofuran-2-yl]methoxy-hydroxy-phosphoryl]oxy-oxido-phosphoryl] hydrogen phosphate
   46    48     1     0     0
SMALL
USER_CHARGES

@<TRIPOS>ATOM
      1 PG          0.7711   -7.7256    6.6813 P.3       1 ATP         1.5644
      2 O1G        -0.3294   -6.7949    7.1401 O.co2     1 ATP        -0.8581
      3 O2G         2.0530   -7.8632    7.4720 O.co2     1 ATP        -0.8581
      4 O3G         0.1342   -9.2131    6.4621 O.3       1 ATP        -0.7962
      5 PB          0.1770   -7.2818    3.8156 P.3       1 ATP         1.6830
      6 O1B         0.9997   -6.7698    2.6542 O.co2     1 ATP        -0.8633
      7 O2B        -0.6267   -8.5578    3.6996 O.co2     1 ATP        -0.8633
      8 O3B         1.1386   -7.3858    5.1295 O.3       1 ATP        -0.8097
      9 PA         -0.4992   -4.5557    4.7496 P.3       1 ATP         1.7610
     10 O1A         0.4335   -4.4255    5.9187 O.2       1 ATP        -0.8554
     11 O2A        -1.9724   -3.9355    5.0008 O.3       1 ATP        -0.8102
     12 O3A        -0.8105   -6.0830    4.3171 O.3       1 ATP        -0.7693
     13 O5'         0.0118   -3.8395    3.3916 O.3       1 ATP        -0.5757
     14 C5'        -0.7840   -3.8935    2.2172 C.3       1 ATP         0.1911
     15 C4'        -0.0724   -3.1466    1.1027 C.3       1 ATP         0.1218
     16 O4'        -0.8674   -3.1929   -0.0945 O.3       1 ATP        -0.4138
     17 C3'         0.1338   -1.6715    1.4027 C.3       1 ATP         0.1338
     18 O3'         1.2893   -1.4445    2.1808 O.3       1 ATP        -0.5756
     19 C2'         0.2158   -1.0724    0.0128 C.3       1 ATP         0.0673
     20 O2'         1.5141   -1.2448   -0.5513 O.3       1 ATP        -0.5671
     21 C1'        -0.7897   -1.9176   -0.7583 C.3       1 ATP         0.3795
     22 N9         -2.1040   -1.3333   -0.7704 N.pl3     1 ATP        -0.4175
     23 C8         -3.0590   -1.5123    0.1363 C.ar      1 ATP         0.2552
     24 N7         -4.1655   -0.8354   -0.1554 N.pl3     1 ATP        -0.4731
     25 C5         -3.8852   -0.1874   -1.3253 C.ar      1 ATP        -0.1295
     26 C6         -4.7113    0.7160   -2.1458 C.ar      1 ATP         0.7196
     27 N6         -5.9213    1.0209   -1.8021 N.2       1 ATP        -0.8094
     28 N1         -4.0411    1.1673   -3.2764 N.pl3     1 ATP        -0.8312
     29 C2         -2.7403    0.7865   -3.5638 C.ar      1 ATP         0.6744
     30 N3         -1.9921   -0.0108   -2.8519 N.2       1 ATP        -0.5937
     31 C4         -2.6302   -0.4747   -1.7239 C.ar      1 ATP         0.2810
     32 HOG3        0.7269   -9.9349    6.1622 H         1 ATP         0.4152
     33 HOA2       -2.0553   -2.9813    5.2126 H         1 ATP         0.4571
     34 H5'1       -0.9348   -4.9415    1.9415 H         1 ATP         0.0465
     35 H5'2       -1.7548   -3.4350    2.4278 H         1 ATP         0.0465
     36 H4'         0.8874   -3.6466    0.8805 H         1 ATP         0.1379
     37 H3'        -0.7376   -1.2333    1.9867 H         1 ATP         0.1317
     38 HO3'        1.1626   -1.9325    3.0084 H         1 ATP         0.4175
     39 H2'        -0.0384   -0.0310    0.0096 H         1 ATP         0.0669
     40 HO2'        2.1463   -0.7958    0.0370 H         1 ATP         0.4064
     41 H1'        -0.4769   -2.1002   -1.8093 H         1 ATP         0.1285
     42 H8         -2.9569   -2.1323    1.0098 H         1 ATP         0.2954
     43 HN62       -6.3169    1.6552   -2.5012 H         1 ATP         0.4226
     44 H2         -2.3612    1.2343   -4.4957 H         1 ATP         0.0826
     45 H45        -4.5223    1.7976   -3.9117 H         1 ATP         0.4581
     46 H46        -5.0218   -0.8132    0.3804 H         1 ATP         0.5252
@<TRIPOS>BOND
     1    1    2 2
     2    1    3 1
     3    1    4 1
     4    1    8 1
     5    4   32 1
     6    5    6 2
     7    5    7 1
     8    5    8 1
     9    5   12 1
    10    9   10 2
    11    9   11 1
    12    9   12 1
    13    9   13 1
    14   11   33 1
    15   13   14 1
    16   14   15 1
    17   14   34 1
    18   14   35 1
    19   15   16 1
    20   15   17 1
    21   15   36 1
    22   16   21 1
    23   17   18 1
    24   17   19 1
    25   17   37 1
    26   18   38 1
    27   19   20 1
    28   19   21 1
    29   19   39 1
    30   20   40 1
    31   21   22 1
    32   21   41 1
    33   22   23 ar
    34   22   31 ar
    35   23   24 ar
    36   23   42 1
    37   24   25 ar
    38   24   46 1
    39   25   26 ar
    40   25   31 ar
    41   26   27 2
    42   26   28 ar
    43   27   43 1
    44   28   29 ar
    45   28   45 1
    46   29   30 ar
    47   29   44 1
    48   30   31 ar
@<TRIPOS>SUBSTRUCTURE
     1 ATP         1 GROUP 0 A     ****
@<TRIPOS>MOLECULE
[[[3,4-dihydroxy-5-(6-imino-7,8-dihydro-1~{H}-purin-8-ylium-9-yl)tetrahydrofuran-2-yl]methoxy-hydroxy-phosphoryl]oxy-oxido-phosphoryl] hydrogen phosphate
   46    48     1     0     0
SMALL
USER_CHARGES

@<TRIPOS>ATOM
      1 PG          6.6536   -1.7745   -5.8854 P.3       1 ATP         1.5644
      2 O1G         5.2880   -2.0552   -6.4717 O.co2     1 ATP        -0.8581
      3 O2G         7.7157   -2.8503   -5.8381 O.co2     1 ATP        -0.8581
      4 O3G         7.2774   -0.4617   -6.6295 O.3       1 ATP        -0.7962
      5 PB          5.5856    0.1299   -3.8867 P.3       1 ATP         1.6830
      6 O1B         5.6307    0.1797   -2.3757 O.co2     1 ATP        -0.8633
      7 O2B         5.9552    1.3380   -4.7183 O.co2     1 ATP        -0.8633
      8 O3B         6.4692   -1.1448   -4.3927 O.3       1 ATP        -0.8097
      9 PA          3.2593   -1.7000   -3.9192 P.3       1 ATP         1.7610
     10 O1A         3.9358   -3.0003   -4.2432 O.2       1 ATP        -0.8554
     11 O2A         1.8422   -1.4817   -4.6690 O.3       1 ATP        -0.8102
     12 O3A         4.1067   -0.3886   -4.3423 O.3       1 ATP        -0.7693
     13 O5'         2.9216   -1.4836   -2.3516 O.3       1 ATP        -0.5757
     14 C5'         2.2816   -0.2918   -1.9206 C.3       1 ATP         0.1911
     15 C4'         2.7248    0.0226   -0.4980 C.3       1 ATP         0.1218
     16 O4'         2.4697    1.4219   -0.2462 O.3       1 ATP        -0.4138
     17 C3'         1.9404   -0.7419    0.5596 C.3       1 ATP         0.1338
     18 O3'         2.7418   -0.8086    1.7389 O.3       1 ATP        -0.5756
     19 C2'         0.7477    0.1630    0.7858 C.3       1 ATP         0.0673
     20 O2'         0.1373   -0.0577    2.0407 O.3       1 ATP        -0.5671
     21 C1'         1.3733    1.5427    0.6747 C.3       1 ATP         0.3795
     22 N9          0.4520    2.5240    0.1767 N.pl3     1 ATP        -0.4175
     23 C8         -0.2004    2.4829   -0.9804 C.ar      1 ATP         0.2552
     24 N7         -0.9830    3.5431   -1.1568 N.pl3     1 ATP        -0.4731
     25 C5         -0.8095    4.3012   -0.0331 C.ar      1 ATP        -0.1295
     26 C6         -1.4065    5.5904    0.3585 C.ar      1 ATP         0.7196
     27 N6         -2.2501    6.2030   -0.4084 N.2       1 ATP        -0.8094
     28 N1         -0.9585    6.0272    1.5994 N.pl3     1 ATP        -0.8312
     29 C2         -0.0508    5.3009    2.3532 C.ar      1 ATP         0.6744
     30 N3          0.4890    4.1592    2.0257 N.2       1 ATP        -0.5937
     31 C4          0.0637    3.7006    0.7995 C.ar      1 ATP         0.2810
     32 HOG3        8.1669   -0.1498   -6.3578 H         1 ATP         0.4152
     33 HOA2        1.8207   -1.4750   -5.6496 H         1 ATP         0.4571
     34 H5'1        2.5589    0.5217   -2.5976 H         1 ATP         0.0465
     35 H5'2        1.1982   -0.4388   -1.9617 H         1 ATP         0.0465
     36 H4'         3.8044   -0.1397   -0.4040 H         1 ATP         0.1379
     37 H3'         1.6764   -1.7639    0.2728 H         1 ATP         0.1317
     38 HO3'        2.2232   -1.2979    2.3953 H         1 ATP         0.4175
     39 H2'        -0.0011    0.0027    0.0003 H         1 ATP         0.0669
     40 HO2'       -0.1563   -0.9855    2.0596 H         1 ATP         0.4064
     41 H1'         1.7826    1.9024    1.6451 H         1 ATP         0.1285
     42 H8         -0.1116    1.6863   -1.6984 H         1 ATP         0.2954
     43 HN62       -2.5420    7.0730    0.0447 H         1 ATP         0.4226
     44 H2          0.1969    5.7893    3.3086 H         1 ATP         0.0826
     45 H45        -1.3097    6.9080    1.9642 H         1 ATP         0.4581
     46 H46        -1.5735    3.7351   -1.9538 H         1 ATP         0.5252
@<TRIPOS>BOND
     1    1    2 2
     2    1    3 1
     3    1    4 1
     4    1    8 1
     5    4   32 1
     6    5    6 2
     7    5    7 1
     8    5    8 1
     9    5   12 1
    10    9   10 2
    11    9   11 1
    12    9   12 1
    13    9   13 1
    14   11   33 1
    15   13   14 1
    16   14   15 1
    17   14   34 1
    18   14   35 1
    19   15   16 1
    20   15   17 1
    21   15   36 1
    22   16   21 1
    23   17   18 1
    24   17   19 1
    25   17   37 1
    26   18   38 1
    27   19   20 1
    28   19   21 1
    29   19   39 1
    30   20   40 1
    31   21   22 1
    32   21   41 1
    33   22   23 ar
    34   22   31 ar
    35   23   24 ar
    36   23   42 1
    37   24   25 ar
    38   24   46 1
    39   25   26 ar
    40   25   31 ar
    41   26   27 2
    42   26   28 ar
    43   27   43 1
    44   28   29 ar
    45   28   45 1
    46   29   30 ar
    47   29   44 1
    48   30   31 ar
@<TRIPOS>SUBSTRUCTURE
     1 ATP         1 GROUP 0 A     ****
@<TRIPOS>MOLECULE
[[[3,4-dihydroxy-5-(6-imino-7,8-dihydro-1~{H}-purin-8-ylium-9-yl)tetrahydrofuran-2-yl]methoxy-hydroxy-phosphoryl]oxy-oxido-phosphoryl] hydrogen phosphate
   46    48     1     0     0
SMALL
USER_CHARGES

@<TRIPOS>ATOM
      1 PG          1.8752   -7.1136    1.3969 P.3       1 ATP         1.5644
      2 O1G         1.2628   -8.2645    0.6301 O.co2     1 ATP        -0.8581
      3 O2G         3.2203   -7.2580    2.0732 O.co2     1 ATP        -0.8581
      4 O3G         1.9233   -5.8066    0.4193 O.3       1 ATP        -0.7962
      5 PB          0.1770   -7.2818    3.8156 P.3       1 ATP         1.6830
      6 O1B        -0.6750   -8.4547    3.3842 O.co2     1 ATP        -0.8633
      7 O2B         1.2863   -7.4546    4.8293 O.co2     1 ATP        -0.8633
      8 O3B         0.7906   -6.5658    2.4843 O.3       1 ATP        -0.8097
      9 PA         -0.4992   -4.5557    4.7496 P.3       1 ATP         1.7610
     10 O1A         0.4335   -4.4255    5.9187 O.2       1 ATP        -0.8554
     11 O2A        -1.9724   -3.9355    5.0008 O.3       1 ATP        -0.8102
     12 O3A        -0.8105   -6.0830    4.3171 O.3       1 ATP        -0.7693
     13 O5'         0.0118   -3.8395    3.3916 O.3       1 ATP        -0.5757
     14 C5'        -0.7840   -3.8935    2.2172 C.3       1 ATP         0.1911
     15 C4'        -0.0724   -3.1466    1.1027 C.3       1 ATP         0.1218
     16 O4'        -0.8674   -3.1929   -0.0945 O.3       1 ATP        -0.4138
     17 C3'         0.1338   -1.6715    1.4027 C.3       1 ATP         0.1338
     18 O3'         1.2893   -1.4445    2.1808 O.3       1 ATP        -0.5756
     19 C2'         0.2158   -1.0724    0.0128 C.3       1 ATP         0.0673
     20 O2'         1.5141   -1.2448   -0.5513 O.3       1 ATP        -0.5671
     21 C1'        -0.7897   -1.9176   -0.7583 C.3       1 ATP         0.3795
     22 N9         -2.1040   -1.3333   -0.7704 N.pl3     1 ATP        -0.4175
     23 C8         -3.0590   -1.5123    0.1363 C.ar      1 ATP         0.2552
     24 N7         -4.1655   -0.8354   -0.1554 N.pl3     1 ATP        -0.4731
     25 C5         -3.8852   -0.1874   -1.3253 C.ar      1 ATP        -0.1295
     26 C6         -4.7113    0.7160   -2.1458 C.ar      1 ATP         0.7196
     27 N6         -5.9213    1.0209   -1.8021 N.2       1 ATP        -0.8094
     28 N1         -4.0411    1.1673   -3.2764 N.pl3     1 ATP        -0.8312
     29 C2         -2.7403    0.7865   -3.5638 C.ar      1 ATP         0.6744
     30 N3         -1.9921   -0.0108   -2.8519 N.2       1 ATP        -0.5937
     31 C4         -2.6302   -0.4747   -1.7239 C.ar      1 ATP         0.2810
     32 HOG3        2.2970   -4.9719    0.7742 H         1 ATP         0.4152
     33 HOA2       -2.0553   -2.9813    5.2126 H         1 ATP         0.4571
     34 H5'1       -0.9348   -4.9415    1.9415 H         1 ATP         0.0465
     35 H5'2       -1.7548   -3.4350    2.4278 H         1 ATP         0.0465
     36 H4'         0.8874   -3.6466    0.8805 H         1 ATP         0.1379
     37 H3'        -0.7376   -1.2333    1.9867 H         1 ATP         0.1317
     38 HO3'        1.1626   -1.9325    3.0084 H         1 ATP         0.4175
     39 H2'        -0.0384   -0.0310    0.0096 H         1 ATP         0.0669
     40 HO2'        2.1463   -0.7958    0.0370 H         1 ATP         0.4064
     41 H1'        -0.4769   -2.1002   -1.8093 H         1 ATP         0.1285
     42 H8         -2.9569   -2.1323    1.0098 H         1 ATP         0.2954
     43 HN62       -6.3169    1.6552   -2.5012 H         1 ATP         0.4226
     44 H2         -2.3612    1.2343   -4.4957 H         1 ATP         0.0826
     45 H45        -4.5223    1.7976   -3.9117 H         1 ATP         0.4581
     46 H46        -5.0218   -0.8132    0.3804 H         1 ATP         0.5252
@<TRIPOS>BOND
     1    1    2 2
     2    1    3 1
     3    1    4 1
     4    1    8 1
     5    4   32 1
     6    5    6 2
     7    5    7 1
     8    5    8 1
     9    5   12 1
    10    9   10 2
    11    9   11 1
    12    9   12 1
    13    9   13 1
    14   11   33 1
    15   13   14 1
    16   14   15 1
    17   14   34 1
    18   14   35 1
    19   15   16 1
    20   15   17 1
    21   15   36 1
    22   16   21 1
    23   17   18 1
    24   17   19 1
    25   17   37 1
    26   18   38 1
    27   19   20 1
    28   19   21 1
    29   19   39 1
    30   20   40 1
    31   21   22 1
    32   21   41 1
    33   22   23 ar
    34   22   31 ar
    35   23   24 ar
    36   23   42 1
    37   24   25 ar
    38   24   46 1
    39   25   26 ar
    40   25   31 ar
    41   26   27 2
    42   26   28 ar
    43   27   43 1
    44   28   29 ar
    45   28   45 1
    46   29   30 ar
    47   29   44 1
    48   30   31 ar
@<TRIPOS>SUBSTRUCTURE
     1 ATP         1 GROUP 0 A     ****
@<TRIPOS>MOLECULE
[[[3,4-dihydroxy-5-(6-imino-7,8-dihydro-1~{H}-purin-8-ylium-9-yl)tetrahydrofuran-2-yl]methoxy-hydroxy-phosphoryl]oxy-oxido-phosphoryl] hydrogen phosphate
   46    48     1     0     0
SMALL
USER_CHARGES

@<TRIPOS>ATOM
      1 PG         -1.4703    3.0945   -5.6623 P.3       1 ATP         1.5644
      2 O1G        -1.3652    4.2566   -4.6999 O.co2     1 ATP        -0.8581
      3 O2G        -2.7863    2.3817   -5.8799 O.co2     1 ATP        -0.8581
      4 O3G        -0.8907    3.5690   -7.1132 O.3       1 ATP        -0.7962
      5 PB          1.2852    2.1689   -5.1032 P.3       1 ATP         1.6830
      6 O1B         1.8921    2.5166   -6.4443 O.co2     1 ATP        -0.8633
      7 O2B         1.5429    3.0269   -3.8845 O.co2     1 ATP        -0.8633
      8 O3B        -0.3260    1.9942   -5.2899 O.3       1 ATP        -0.8097
      9 PA          3.0915   -0.0732   -4.4165 P.3       1 ATP         1.7610
     10 O1A         4.2296    0.4201   -5.2621 O.2       1 ATP        -0.8554
     11 O2A         2.7765   -1.6519   -4.5791 O.3       1 ATP        -0.8102
     12 O3A         1.6695    0.6231   -4.7478 O.3       1 ATP        -0.7693
     13 O5'         3.2903    0.1346   -2.8241 O.3       1 ATP        -0.5757
     14 C5'         2.2816   -0.2918   -1.9206 C.3       1 ATP         0.1911
     15 C4'         2.7248    0.0226   -0.4980 C.3       1 ATP         0.1218
     16 O4'         2.4697    1.4219   -0.2462 O.3       1 ATP        -0.4138
     17 C3'         1.9404   -0.7419    0.5596 C.3       1 ATP         0.1338
     18 O3'         2.7418   -0.8086    1.7389 O.3       1 ATP        -0.5756
     19 C2'         0.7477    0.1630    0.7858 C.3       1 ATP         0.0673
     20 O2'         0.1373   -0.0577    2.0407 O.3       1 ATP        -0.5671
     21 C1'         1.3733    1.5427    0.6747 C.3       1 ATP         0.3795
     22 N9          0.4520    2.5240    0.1767 N.pl3     1 ATP        -0.4175
     23 C8          0.5691    3.2215   -0.9485 C.ar      1 ATP         0.2552
     24 N7         -0.4499    4.0551   -1.1342 N.pl3     1 ATP        -0.4731
     25 C5         -1.2618    3.8674   -0.0512 C.ar      1 ATP        -0.1295
     26 C6         -2.5420    4.5007    0.3120 C.ar      1 ATP         0.7196
     27 N6         -3.0874    5.3993   -0.4432 N.2       1 ATP        -0.8094
     28 N1         -3.0494    4.0205    1.5133 N.pl3     1 ATP        -0.8312
     29 C2         -2.3933    3.0527    2.2567 C.ar      1 ATP         0.6744
     30 N3         -1.2611    2.4796    1.9536 N.2       1 ATP        -0.5937
     31 C4         -0.7334    2.9358    0.7669 C.ar      1 ATP         0.2810
     32 HOG3       -0.8909    2.9215   -7.8502 H         1 ATP         0.4152
     33 HOA2        2.5282   -1.9972   -5.4631 H         1 ATP         0.4571
     34 H5'1        1.3514    0.2330   -2.1577 H         1 ATP         0.0465
     35 H5'2        2.1280   -1.3678   -2.0460 H         1 ATP         0.0465
     36 H4'         3.8044   -0.1397   -0.4040 H         1 ATP         0.1379
     37 H3'         1.6764   -1.7639    0.2728 H         1 ATP         0.1317
     38 HO3'        2.2232   -1.2979    2.3953 H         1 ATP         0.4175
     39 H2'        -0.0011    0.0027    0.0003 H         1 ATP         0.0669
     40 HO2'        0.8082    0.1199    2.7232 H         1 ATP         0.4064
     41 H1'         1.7826    1.9024    1.6451 H         1 ATP         0.1285
     42 H8          1.3912    3.1285   -1.6365 H         1 ATP         0.2954
     43 HN62       -3.9637    5.7084   -0.0142 H         1 ATP         0.4226
     44 H2         -2.9317    2.7866    3.1796 H         1 ATP         0.0826
     45 H45        -3.9307    4.3923    1.8559 H         1 ATP         0.4581
     46 H46        -0.5835    4.6857   -1.9122 H         1 ATP         0.5252
@<TRIPOS>BOND
     1    1    2 2
     2    1    3 1
     3    1    4 1
     4    1    8 1
     5    4   32 1
     6    5    6 2
     7    5    7 1
     8    5    8 1
     9    5   12 1
    10    9   10 2
    11    9   11 1
    12    9   12 1
    13    9   13 1
    14   11   33 1
    15   13   14 1
    16   14   15 1
    17   14   34 1
    18   14   35 1
    19   15   16 1
    20   15   17 1
    21   15   36 1
    22   16   21 1
    23   17   18 1
    24   17   19 1
    25   17   37 1
    26   18   38 1
    27   19   20 1
    28   19   21 1
    29   19   39 1
    30   20   40 1
    31   21   22 1
    32   21   41 1
    33   22   23 ar
    34   22   31 ar
    35   23   24 ar
    36   23   42 1
    37   24   25 ar
    38   24   46 1
    39   25   26 ar
    40   25   31 ar
    41   26   27 2
    42   26   28 ar
    43   27   43 1
    44   28   29 ar
    45   28   45 1
    46   29   30 ar
    47   29   44 1
    48   30   31 ar
@<TRIPOS>SUBSTRUCTURE
     1 ATP         1 GROUP 0 A     ****
@<TRIPOS>MOLECULE
[[[3,4-dihydroxy-5-(6-imino-7,8-dihydro-1~{H}-purin-8-ylium-9-yl)tetrahydrofuran-2-yl]methoxy-hydroxy-phosphoryl]oxy-oxido-phosphoryl] hydrogen phosphate
   46    48     1     0     0
SMALL
USER_CHARGES

@<TRIPOS>ATOM
      1 PG          1.1952   -7.7159    6.3419 P.3       1 ATP         1.5644
      2 O1G         1.6880   -7.8724    7.7632 O.co2     1 ATP        -0.8581
      3 O2G         1.8592   -6.7450    5.3911 O.co2     1 ATP        -0.8581
      4 O3G         1.1621   -9.1896    5.6394 O.3       1 ATP        -0.7962
      5 PB         -1.4823   -7.3197    5.1436 P.3       1 ATP         1.6830
      6 O1B        -1.3754   -8.5718    4.3019 O.co2     1 ATP        -0.8633
      7 O2B        -2.8130   -6.8661    5.7014 O.co2     1 ATP        -0.8633
      8 O3B        -0.4082   -7.4211    6.3674 O.3       1 ATP        -0.8097
      9 PA         -0.4992   -4.5557    4.7496 P.3       1 ATP         1.7610
     10 O1A         0.4335   -4.4255    5.9187 O.2       1 ATP        -0.8554
     11 O2A        -1.9724   -3.9355    5.0008 O.3       1 ATP        -0.8102
     12 O3A        -0.8105   -6.0830    4.3171 O.3       1 ATP        -0.7693
     13 O5'         0.0118   -3.8395    3.3916 O.3       1 ATP        -0.5757
     14 C5'        -0.7840   -3.8935    2.2172 C.3       1 ATP         0.1911
     15 C4'        -0.0724   -3.1466    1.1027 C.3       1 ATP         0.1218
     16 O4'        -0.8674   -3.1929   -0.0945 O.3       1 ATP        -0.4138
     17 C3'         0.1338   -1.6715    1.4027 C.3       1 ATP         0.1338
     18 O3'         1.2893   -1.4445    2.1808 O.3       1 ATP        -0.5756
     19 C2'         0.2158   -1.0724    0.0128 C.3       1 ATP         0.0673
     20 O2'         1.5141   -1.2448   -0.5513 O.3       1 ATP        -0.5671
     21 C1'        -0.7897   -1.9176   -0.7583 C.3       1 ATP         0.3795
     22 N9         -2.1040   -1.3333   -0.7704 N.pl3     1 ATP        -0.4175
     23 C8         -3.0590   -1.5123    0.1363 C.ar      1 ATP         0.2552
     24 N7         -4.1655   -0.8354   -0.1554 N.pl3     1 ATP        -0.4731
     25 C5         -3.8852   -0.1874   -1.3253 C.ar      1 ATP        -0.1295
     26 C6         -4.7113    0.7160   -2.1458 C.ar      1 ATP         0.7196
     27 N6         -5.9213    1.0209   -1.8021 N.2       1 ATP        -0.8094
     28 N1         -4.0411    1.1673   -3.2764 N.pl3     1 ATP        -0.8312
     29 C2         -2.7403    0.7865   -3.5638 C.ar      1 ATP         0.6744
     30 N3         -1.9921   -0.0108   -2.8519 N.2       1 ATP        -0.5937
     31 C4         -2.6302   -0.4747   -1.7239 C.ar      1 ATP         0.2810
     32 HOG3        0.8620   -9.2559    4.7078 H         1 ATP         0.4152
     33 HOA2       -2.0553   -2.9813    5.2126 H         1 ATP         0.4571
     34 H5'1       -0.9348   -4.9415    1.9415 H         1 ATP         0.0465
     35 H5'2       -1.7548   -3.4350    2.4278 H         1 ATP         0.0465
     36 H4'         0.8874   -3.6466    0.8805 H         1 ATP         0.1379
     37 H3'        -0.7376   -1.2333    1.9867 H         1 ATP         0.1317
     38 HO3'        1.1626   -1.9325    3.0084 H         1 ATP         0.4175
     39 H2'        -0.0384   -0.0310    0.0096 H         1 ATP         0.0669
     40 HO2'        2.1463   -0.7958    0.0370 H         1 ATP         0.4064
     41 H1'        -0.4769   -2.1002   -1.8093 H         1 ATP         0.1285
     42 H8         -2.9569   -2.1323    1.0098 H         1 ATP         0.2954
     43 HN62       -6.3169    1.6552   -2.5012 H         1 ATP         0.4226
     44 H2         -2.3612    1.2343   -4.4957 H         1 ATP         0.0826
     45 H45        -4.5223    1.7976   -3.9117 H         1 ATP         0.4581
     46 H46        -5.0218   -0.8132    0.3804 H         1 ATP         0.5252
@<TRIPOS>BOND
     1    1    2 2
     2    1    3 1
     3    1    4 1
     4    1    8 1
     5    4   32 1
     6    5    6 2
     7    5    7 1
     8    5    8 1
     9    5   12 1
    10    9   10 2
    11    9   11 1
    12    9   12 1
    13    9   13 1
    14   11   33 1
    15   13   14 1
    16   14   15 1
    17   14   34 1
    18   14   35 1
    19   15   16 1
    20   15   17 1
    21   15   36 1
    22   16   21 1
    23   17   18 1
    24   17   19 1
    25   17   37 1
    26   18   38 1
    27   19   20 1
    28   19   21 1
    29   19   39 1
    30   20   40 1
    31   21   22 1
    32   21   41 1
    33   22   23 ar
    34   22   31 ar
    35   23   24 ar
    36   23   42 1
    37   24   25 ar
    38   24   46 1
    39   25   26 ar
    40   25   31 ar
    41   26   27 2
    42   26   28 ar
    43   27   43 1
    44   28   29 ar
    45   28   45 1
    46   29   30 ar
    47   29   44 1
    48   30   31 ar
@<TRIPOS>SUBSTRUCTURE
     1 ATP         1 GROUP 0 A     ****
@<TRIPOS>MOLECULE
[[[3,4-dihydroxy-5-(6-imino-7,8-dihydro-1~{H}-purin-8-ylium-9-yl)tetrahydrofuran-2-yl]methoxy-hydroxy-phosphoryl]oxy-oxido-phosphoryl] hydrogen phosphate
   46    48     1     0     0
SMALL
USER_CHARGES

@<TRIPOS>ATOM
      1 PG          3.2137   -0.0363   -7.8034 P.3       1 ATP         1.5644
      2 O1G         4.1500    0.4221   -8.8992 O.co2     1 ATP        -0.8581
      3 O2G         2.6910    0.9363   -6.7699 O.co2     1 ATP        -0.8581
      4 O3G         1.9424   -0.7953   -8.4918 O.3       1 ATP        -0.7962
      5 PB          3.2596   -2.2994   -5.8960 P.3       1 ATP         1.6830
      6 O1B         1.9362   -2.8414   -6.3886 O.co2     1 ATP        -0.8633
      7 O2B         4.3511   -3.2279   -5.4120 O.co2     1 ATP        -0.8633
      8 O3B         3.8782   -1.3150   -7.0406 O.3       1 ATP        -0.8097
      9 PA          3.9521   -0.1769   -3.9527 P.3       1 ATP         1.7610
     10 O1A         4.6810    0.7861   -4.8443 O.2       1 ATP        -0.8554
     11 O2A         4.9166   -1.1746   -3.1207 O.3       1 ATP        -0.8102
     12 O3A         2.9635   -1.1884   -4.7377 O.3       1 ATP        -0.7693
     13 O5'         3.0213    0.5153   -2.8245 O.3       1 ATP        -0.5757
     14 C5'         2.2816   -0.2918   -1.9206 C.3       1 ATP         0.1911
     15 C4'         2.7248    0.0226   -0.4980 C.3       1 ATP         0.1218
     16 O4'         2.4697    1.4219   -0.2462 O.3       1 ATP        -0.4138
     17 C3'         1.9404   -0.7419    0.5596 C.3       1 ATP         0.1338
     18 O3'         2.7418   -0.8086    1.7389 O.3       1 ATP        -0.5756
     19 C2'         0.7477    0.1630    0.7858 C.3       1 ATP         0.0673
     20 O2'         0.1373   -0.0577    2.0407 O.3       1 ATP        -0.5671
     21 C1'         1.3733    1.5427    0.6747 C.3       1 ATP         0.3795
     22 N9          0.4520    2.5240    0.1767 N.pl3     1 ATP        -0.4175
     23 C8         -0.2004    2.4829   -0.9804 C.ar      1 ATP         0.2552
     24 N7         -0.9830    3.5431   -1.1568 N.pl3     1 ATP        -0.4731
     25 C5         -0.8095    4.3012   -0.0331 C.ar      1 ATP        -0.1295
     26 C6         -1.4065    5.5904    0.3585 C.ar      1 ATP         0.7196
     27 N6         -2.2501    6.2030   -0.4084 N.2       1 ATP        -0.8094
     28 N1         -0.9585    6.0272    1.5994 N.pl3     1 ATP        -0.8312
     29 C2         -0.0508    5.3009    2.3532 C.ar      1 ATP         0.6744
     30 N3          0.4890    4.1592    2.0257 N.2       1 ATP        -0.5937
     31 C4          0.0637    3.7006    0.7995 C.ar      1 ATP         0.2810
     32 HOG3        1.2406   -1.1538   -7.9074 H         1 ATP         0.4152
     33 HOA2        5.5139   -1.7769   -3.6133 H         1 ATP         0.4571
     34 H5'1        1.2163   -0.0770   -2.0471 H         1 ATP         0.0465
     35 H5'2        2.4655   -1.3443   -2.1563 H         1 ATP         0.0465
     36 H4'         3.8044   -0.1397   -0.4040 H         1 ATP         0.1379
     37 H3'         1.6764   -1.7639    0.2728 H         1 ATP         0.1317
     38 HO3'        3.5554   -1.2733    1.4914 H         1 ATP         0.4175
     39 H2'        -0.0011    0.0027    0.0003 H         1 ATP         0.0669
     40 HO2'        0.8082    0.1199    2.7232 H         1 ATP         0.4064
     41 H1'         1.7826    1.9024    1.6451 H         1 ATP         0.1285
     42 H8         -0.1116    1.6863   -1.6984 H         1 ATP         0.2954
     43 HN62       -2.5420    7.0730    0.0447 H         1 ATP         0.4226
     44 H2          0.1969    5.7893    3.3086 H         1 ATP         0.0826
     45 H45        -1.3097    6.9080    1.9642 H         1 ATP         0.4581
     46 H46        -1.5735    3.7351   -1.9538 H         1 ATP         0.5252
@<TRIPOS>BOND
     1    1    2 2
     2    1    3 1
     3    1    4 1
     4    1    8 1
     5    4   32 1
     6    5    6 2
     7    5    7 1
     8    5    8 1
     9    5   12 1
    10    9   10 2
    11    9   11 1
    12    9   12 1
    13    9   13 1
    14   11   33 1
    15   13   14 1
    16   14   15 1
    17   14   34 1
    18   14   35 1
    19   15   16 1
    20   15   17 1
    21   15   36 1
    22   16   21 1
    23   17   18 1
    24   17   19 1
    25   17   37 1
    26   18   38 1
    27   19   20 1
    28   19   21 1
    29   19   39 1
    30   20   40 1
    31   21   22 1
    32   21   41 1
    33   22   23 ar
    34   22   31 ar
    35   23   24 ar
    36   23   42 1
    37   24   25 ar
    38   24   46 1
    39   25   26 ar
    40   25   31 ar
    41   26   27 2
    42   26   28 ar
    43   27   43 1
    44   28   29 ar
    45   28   45 1
    46   29   30 ar
    47   29   44 1
    48   30   31 ar
@<TRIPOS>SUBSTRUCTURE
     1 ATP         1 GROUP 0 A     ****
@<TRIPOS>MOLECULE
[[[3,4-dihydroxy-5-(6-imino-7,8-dihydro-1~{H}-purin-8-ylium-9-yl)tetrahydrofuran-2-yl]methoxy-hydroxy-phosphoryl]oxy-oxido-phosphoryl] hydrogen phosphate
   46    48     1     0     0
SMALL
USER_CHARGES

@<TRIPOS>ATOM
      1 PG         -1.1730    1.0694   -6.3321 P.3       1 ATP         1.5644
      2 O1G        -0.9431   -0.3868   -5.9944 O.co2     1 ATP        -0.8581
      3 O2G        -0.9555    1.5856   -7.7370 O.co2     1 ATP        -0.8581
      4 O3G        -2.6797    1.4805   -5.8555 O.3       1 ATP        -0.7962
      5 PB          1.2852    2.1689   -5.1032 P.3       1 ATP         1.6830
      6 O1B         1.8921    2.5166   -6.4443 O.co2     1 ATP        -0.8633
      7 O2B         1.5429    3.0269   -3.8845 O.co2     1 ATP        -0.8633
      8 O3B        -0.3260    1.9942   -5.2899 O.3       1 ATP        -0.8097
      9 PA          3.0915   -0.0732   -4.4165 P.3       1 ATP         1.7610
     10 O1A         4.2296    0.4201   -5.2621 O.2       1 ATP        -0.8554
     11 O2A         2.7765   -1.6519   -4.5791 O.3       1 ATP        -0.8102
     12 O3A         1.6695    0.6231   -4.7478 O.3       1 ATP        -0.7693
     13 O5'         3.2903    0.1346   -2.8241 O.3       1 ATP        -0.5757
     14 C5'         2.2816   -0.2918   -1.9206 C.3       1 ATP         0.1911
     15 C4'         2.7248    0.0226   -0.4980 C.3       1 ATP         0.1218
     16 O4'         2.4697    1.4219   -0.2462 O.3       1 ATP        -0.4138
     17 C3'         1.9404   -0.7419    0.5596 C.3       1 ATP         0.1338
     18 O3'         2.7418   -0.8086    1.7389 O.3       1 ATP        -0.5756
     19 C2'         0.7477    0.1630    0.7858 C.3       1 ATP         0.0673
     20 O2'         0.1373   -0.0577    2.0407 O.3       1 ATP        -0.5671
     21 C1'         1.3733    1.5427    0.6747 C.3       1 ATP         0.3795
     22 N9          0.4520    2.5240    0.1767 N.pl3     1 ATP        -0.4175
     23 C8          0.5691    3.2215   -0.9485 C.ar      1 ATP         0.2552
     24 N7         -0.4499    4.0551   -1.1342 N.pl3     1 ATP        -0.4731
     25 C5         -1.2618    3.8674   -0.0512 C.ar      1 ATP        -0.1295
     26 C6         -2.5420    4.5007    0.3120 C.ar      1 ATP         0.7196
     27 N6         -3.0874    5.3993   -0.4432 N.2       1 ATP        -0.8094
     28 N1         -3.0494    4.0205    1.5133 N.pl3     1 ATP        -0.8312
     29 C2         -2.3933    3.0527    2.2567 C.ar      1 ATP         0.6744
     30 N3         -1.2611    2.4796    1.9536 N.2       1 ATP        -0.5937
     31 C4         -0.7334    2.9358    0.7669 C.ar      1 ATP         0.2810
     32 HOG3       -2.9821    2.4014   -6.0068 H         1 ATP         0.4152
     33 HOA2        2.5282   -1.9972   -5.4631 H         1 ATP         0.4571
     34 H5'1        1.3514    0.2330   -2.1577 H         1 ATP         0.0465
     35 H5'2        2.1280   -1.3678   -2.0460 H         1 ATP         0.0465
     36 H4'         3.8044   -0.1397   -0.4040 H         1 ATP         0.1379
     37 H3'         1.6764   -1.7639    0.2728 H         1 ATP         0.1317
     38 HO3'        2.2232   -1.2979    2.3953 H         1 ATP         0.4175
     39 H2'        -0.0011    0.0027    0.0003 H         1 ATP         0.0669
     40 HO2'        0.8082    0.1199    2.7232 H         1 ATP         0.4064
     41 H1'         1.7826    1.9024    1.6451 H         1 ATP         0.1285
     42 H8          1.3912    3.1285   -1.6365 H         1 ATP         0.2954
     43 HN62       -3.9637    5.7084   -0.0142 H         1 ATP         0.4226
     44 H2         -2.9317    2.7866    3.1796 H         1 ATP         0.0826
     45 H45        -3.9307    4.3923    1.8559 H         1 ATP         0.4581
     46 H46        -0.5835    4.6857   -1.9122 H         1 ATP         0.5252
@<TRIPOS>BOND
     1    1    2 2
     2    1    3 1
     3    1    4 1
     4    1    8 1
     5    4   32 1
     6    5    6 2
     7    5    7 1
     8    5    8 1
     9    5   12 1
    10    9   10 2
    11    9   11 1
    12    9   12 1
    13    9   13 1
    14   11   33 1
    15   13   14 1
    16   14   15 1
    17   14   34 1
    18   14   35 1
    19   15   16 1
    20   15   17 1
    21   15   36 1
    22   16   21 1
    23   17   18 1
    24   17   19 1
    25   17   37 1
    26   18   38 1
    27   19   20 1
    28   19   21 1
    29   19   39 1
    30   20   40 1
    31   21   22 1
    32   21   41 1
    33   22   23 ar
    34   22   31 ar
    35   23   24 ar
    36   23   42 1
    37   24   25 ar
    38   24   46 1
    39   25   26 ar
    40   25   31 ar
    41   26   27 2
    42   26   28 ar
    43   27   43 1
    44   28   29 ar
    45   28   45 1
    46   29   30 ar
    47   29   44 1
    48   30   31 ar
@<TRIPOS>SUBSTRUCTURE
     1 ATP         1 GROUP 0 A     ****
@<TRIPOS>MOLECULE
[[[3,4-dihydroxy-5-(6-imino-7,8-dihydro-1~{H}-purin-8-ylium-9-yl)tetrahydrofuran-2-yl]methoxy-hydroxy-phosphoryl]oxy-oxido-phosphoryl] hydrogen phosphate
   46    48     1     0     0
SMALL
USER_CHARGES

@<TRIPOS>ATOM
      1 PG          1.2145   -3.9264   -5.2208 P.3       1 ATP         1.5644
      2 O1G         1.1112   -5.0026   -6.2784 O.co2     1 ATP        -0.8581
      3 O2G         0.2566   -3.8913   -4.0509 O.co2     1 ATP        -0.8581
      4 O3G         2.7413   -3.9131   -4.6420 O.3       1 ATP        -0.7962
      5 PB          1.4565   -0.9782   -5.3279 P.3       1 ATP         1.6830
      6 O1B         1.5228    0.0153   -6.4665 O.co2     1 ATP        -0.8633
      7 O2B         0.5045   -0.7753   -4.1702 O.co2     1 ATP        -0.8633
      8 O3B         1.2164   -2.4675   -5.9490 O.3       1 ATP        -0.8097
      9 PA          3.9521   -0.1769   -3.9527 P.3       1 ATP         1.7610
     10 O1A         4.6810    0.7861   -4.8443 O.2       1 ATP        -0.8554
     11 O2A         4.9166   -1.1746   -3.1207 O.3       1 ATP        -0.8102
     12 O3A         2.9635   -1.1884   -4.7377 O.3       1 ATP        -0.7693
     13 O5'         3.0213    0.5153   -2.8245 O.3       1 ATP        -0.5757
     14 C5'         2.2816   -0.2918   -1.9206 C.3       1 ATP         0.1911
     15 C4'         2.7248    0.0226   -0.4980 C.3       1 ATP         0.1218
     16 O4'         2.4697    1.4219   -0.2462 O.3       1 ATP        -0.4138
     17 C3'         1.9404   -0.7419    0.5596 C.3       1 ATP         0.1338
     18 O3'         2.7418   -0.8086    1.7389 O.3       1 ATP        -0.5756
     19 C2'         0.7477    0.1630    0.7858 C.3       1 ATP         0.0673
     20 O2'         0.1373   -0.0577    2.0407 O.3       1 ATP        -0.5671
     21 C1'         1.3733    1.5427    0.6747 C.3       1 ATP         0.3795
     22 N9          0.4520    2.5240    0.1767 N.pl3     1 ATP        -0.4175
     23 C8          0.2216    2.8192   -1.0985 C.ar      1 ATP         0.2552
     24 N7         -0.6906    3.7763   -1.2384 N.pl3     1 ATP        -0.4731
     25 C5         -1.0575    4.1037    0.0366 C.ar      1 ATP        -0.1295
     26 C6         -2.0291    5.0943    0.5330 C.ar      1 ATP         0.7196
     27 N6         -2.7093    5.8371   -0.2800 N.2       1 ATP        -0.8094
     28 N1         -2.1051    5.1136    1.9204 N.pl3     1 ATP        -0.8312
     29 C2         -1.3354    4.2774    2.7129 C.ar      1 ATP         0.6744
     30 N3         -0.4707    3.3945    2.2944 N.2       1 ATP        -0.5937
     31 C4         -0.3734    3.3525    0.9220 C.ar      1 ATP         0.2810
     32 HOG3        2.9697   -3.2642   -3.9427 H         1 ATP         0.4152
     33 HOA2        5.5139   -1.7769   -3.6133 H         1 ATP         0.4571
     34 H5'1        1.2163   -0.0770   -2.0471 H         1 ATP         0.0465
     35 H5'2        2.4655   -1.3443   -2.1563 H         1 ATP         0.0465
     36 H4'         3.8044   -0.1397   -0.4040 H         1 ATP         0.1379
     37 H3'         1.6764   -1.7639    0.2728 H         1 ATP         0.1317
     38 HO3'        2.2232   -1.2979    2.3953 H         1 ATP         0.4175
     39 H2'        -0.0011    0.0027    0.0003 H         1 ATP         0.0669
     40 HO2'       -0.6141    0.5574    2.1082 H         1 ATP         0.4064
     41 H1'         1.7826    1.9024    1.6451 H         1 ATP         0.1285
     42 H8          0.7125    2.3429   -1.9292 H         1 ATP         0.2954
     43 HN62       -3.3217    6.4517    0.2629 H         1 ATP         0.4226
     44 H2         -1.5188    4.4223    3.7890 H         1 ATP         0.0826
     45 H45        -2.7470    5.7626    2.3665 H         1 ATP         0.4581
     46 H46        -1.0305    4.1680   -2.1054 H         1 ATP         0.5252
@<TRIPOS>BOND
     1    1    2 2
     2    1    3 1
     3    1    4 1
     4    1    8 1
     5    4   32 1
     6    5    6 2
     7    5    7 1
     8    5    8 1
     9    5   12 1
    10    9   10 2
    11    9   11 1
    12    9   12 1
    13    9   13 1
    14   11   33 1
    15   13   14 1
    16   14   15 1
    17   14   34 1
    18   14   35 1
    19   15   16 1
    20   15   17 1
    21   15   36 1
    22   16   21 1
    23   17   18 1
    24   17   19 1
    25   17   37 1
    26   18   38 1
    27   19   20 1
    28   19   21 1
    29   19   39 1
    30   20   40 1
    31   21   22 1
    32   21   41 1
    33   22   23 ar
    34   22   31 ar
    35   23   24 ar
    36   23   42 1
    37   24   25 ar
    38   24   46 1
    39   25   26 ar
    40   25   31 ar
    41   26   27 2
    42   26   28 ar
    43   27   43 1
    44   28   29 ar
    45   28   45 1
    46   29   30 ar
    47   29   44 1
    48   30   31 ar
@<TRIPOS>SUBSTRUCTURE
     1 ATP         1 GROUP 0 A     ****
@<TRIPOS>MOLECULE
[[[3,4-dihydroxy-5-(6-imino-7,8-dihydro-1~{H}-purin-8-ylium-9-yl)tetrahydrofuran-2-yl]methoxy-hydroxy-phosphoryl]oxy-oxido-phosphoryl] hydrogen phosphate
   46    48     1     0     0
SMALL
USER_CHARGES

@<TRIPOS>ATOM
      1 PG          4.9913    3.4828   -0.1817 P.3       1 ATP         1.5644
      2 O1G         4.2073    4.2203    0.8808 O.co2     1 ATP        -0.8581
      3 O2G         6.1759    4.1301   -0.8637 O.co2     1 ATP        -0.8581
      4 O3G         5.4660    2.0447    0.4288 O.3       1 ATP        -0.7962
      5 PB          3.0424    3.7548   -2.3930 P.3       1 ATP         1.6830
      6 O1B         1.9845    4.5276   -1.6372 O.co2     1 ATP        -0.8633
      7 O2B         3.9549    4.4449   -3.3824 O.co2     1 ATP        -0.8633
      8 O3B         3.9576    2.9368   -1.3184 O.3       1 ATP        -0.8097
      9 PA          2.9499    1.2416   -3.9540 P.3       1 ATP         1.7610
     10 O1A         4.1019    1.6058   -4.8451 O.2       1 ATP        -0.8554
     11 O2A         1.6689    0.6367   -4.7357 O.3       1 ATP        -0.8102
     12 O3A         2.3267    2.4887   -3.1336 O.3       1 ATP        -0.7693
     13 O5'         3.2903    0.1346   -2.8241 O.3       1 ATP        -0.5757
     14 C5'         2.2816   -0.2918   -1.9206 C.3       1 ATP         0.1911
     15 C4'         2.7248    0.0226   -0.4980 C.3       1 ATP         0.1218
     16 O4'         2.4697    1.4219   -0.2462 O.3       1 ATP        -0.4138
     17 C3'         1.9404   -0.7419    0.5596 C.3       1 ATP         0.1338
     18 O3'         2.7418   -0.8086    1.7389 O.3       1 ATP        -0.5756
     19 C2'         0.7477    0.1630    0.7858 C.3       1 ATP         0.0673
     20 O2'         0.1373   -0.0577    2.0407 O.3       1 ATP        -0.5671
     21 C1'         1.3733    1.5427    0.6747 C.3       1 ATP         0.3795
     22 N9          0.4520    2.5240    0.1767 N.pl3     1 ATP        -0.4175
     23 C8         -0.2004    2.4829   -0.9804 C.ar      1 ATP         0.2552
     24 N7         -0.9830    3.5431   -1.1568 N.pl3     1 ATP        -0.4731
     25 C5         -0.8095    4.3012   -0.0331 C.ar      1 ATP        -0.1295
     26 C6         -1.4065    5.5904    0.3585 C.ar      1 ATP         0.7196
     27 N6         -2.2501    6.2030   -0.4084 N.2       1 ATP        -0.8094
     28 N1         -0.9585    6.0272    1.5994 N.pl3     1 ATP        -0.8312
     29 C2         -0.0508    5.3009    2.3532 C.ar      1 ATP         0.6744
     30 N3          0.4890    4.1592    2.0257 N.2       1 ATP        -0.5937
     31 C4          0.0637    3.7006    0.7995 C.ar      1 ATP         0.2810
     32 HOG3        5.9893    1.4444   -0.1440 H         1 ATP         0.4152
     33 HOA2        1.7782   -0.1847   -5.2607 H         1 ATP         0.4571
     34 H5'1        1.3514    0.2330   -2.1577 H         1 ATP         0.0465
     35 H5'2        2.1280   -1.3678   -2.0460 H         1 ATP         0.0465
     36 H4'         3.8044   -0.1397   -0.4040 H         1 ATP         0.1379
     37 H3'         1.6764   -1.7639    0.2728 H         1 ATP         0.1317
     38 HO3'        2.2232   -1.2979    2.3953 H         1 ATP         0.4175
     39 H2'        -0.0011    0.0027    0.0003 H         1 ATP         0.0669
     40 HO2'       -0.6141    0.5574    2.1082 H         1 ATP         0.4064
     41 H1'         1.7826    1.9024    1.6451 H         1 ATP         0.1285
     42 H8         -0.1116    1.6863   -1.6984 H         1 ATP         0.2954
     43 HN62       -2.5420    7.0730    0.0447 H         1 ATP         0.4226
     44 H2          0.1969    5.7893    3.3086 H         1 ATP         0.0826
     45 H45        -1.3097    6.9080    1.9642 H         1 ATP         0.4581
     46 H46        -1.5735    3.7351   -1.9538 H         1 ATP         0.5252
@<TRIPOS>BOND
     1    1    2 2
     2    1    3 1
     3    1    4 1
     4    1    8 1
     5    4   32 1
     6    5    6 2
     7    5    7 1
     8    5    8 1
     9    5   12 1
    10    9   10 2
    11    9   11 1
    12    9   12 1
    13    9   13 1
    14   11   33 1
    15   13   14 1
    16   14   15 1
    17   14   34 1
    18   14   35 1
    19   15   16 1
    20   15   17 1
    21   15   36 1
    22   16   21 1
    23   17   18 1
    24   17   19 1
    25   17   37 1
    26   18   38 1
    27   19   20 1
    28   19   21 1
    29   19   39 1
    30   20   40 1
    31   21   22 1
    32   21   41 1
    33   22   23 ar
    34   22   31 ar
    35   23   24 ar
    36   23   42 1
    37   24   25 ar
    38   24   46 1
    39   25   26 ar
    40   25   31 ar
    41   26   27 2
    42   26   28 ar
    43   27   43 1
    44   28   29 ar
    45   28   45 1
    46   29   30 ar
    47   29   44 1
    48   30   31 ar
@<TRIPOS>SUBSTRUCTURE
     1 ATP         1 GROUP 0 A     ****
@<TRIPOS>MOLECULE
[[[3,4-dihydroxy-5-(6-imino-7,8-dihydro-1~{H}-purin-8-ylium-9-yl)tetrahydrofuran-2-yl]methoxy-hydroxy-phosphoryl]oxy-oxido-phosphoryl] hydrogen phosphate
   46    48     1     0     0
SMALL
USER_CHARGES

@<TRIPOS>ATOM
      1 PG         -0.9108    4.8528   -4.3419 P.3       1 ATP         1.5644
      2 O1G        -0.1418    6.0118   -4.9358 O.co2     1 ATP        -0.8581
      3 O2G        -1.7689    5.0386   -3.1104 O.co2     1 ATP        -0.8581
      4 O3G        -1.8261    4.1820   -5.5160 O.3       1 ATP        -0.7962
      5 PB          1.1513    2.8747   -5.1144 P.3       1 ATP         1.6830
      6 O1B         0.3517    2.1517   -6.1753 O.co2     1 ATP        -0.8633
      7 O2B         2.2401    3.8548   -5.4909 O.co2     1 ATP        -0.8633
      8 O3B         0.1149    3.6103   -4.0915 O.3       1 ATP        -0.8097
      9 PA          2.8900    0.6162   -4.3161 P.3       1 ATP         1.7610
     10 O1A         4.0478    1.0418   -5.1716 O.2       1 ATP        -0.8554
     11 O2A         2.0339   -0.6169   -4.9198 O.3       1 ATP        -0.8102
     12 O3A         1.7740    1.7656   -4.0918 O.3       1 ATP        -0.7693
     13 O5'         3.2903    0.1346   -2.8241 O.3       1 ATP        -0.5757
     14 C5'         2.2816   -0.2918   -1.9206 C.3       1 ATP         0.1911
     15 C4'         2.7248    0.0226   -0.4980 C.3       1 ATP         0.1218
     16 O4'         2.4697    1.4219   -0.2462 O.3       1 ATP        -0.4138
     17 C3'         1.9404   -0.7419    0.5596 C.3       1 ATP         0.1338
     18 O3'         2.7418   -0.8086    1.7389 O.3       1 ATP        -0.5756
     19 C2'         0.7477    0.1630    0.7858 C.3       1 ATP         0.0673
     20 O2'         0.1373   -0.0577    2.0407 O.3       1 ATP        -0.5671
     21 C1'         1.3733    1.5427    0.6747 C.3       1 ATP         0.3795
     22 N9          0.4520    2.5240    0.1767 N.pl3     1 ATP        -0.4175
     23 C8         -0.2004    2.4829   -0.9804 C.ar      1 ATP         0.2552
     24 N7         -0.9830    3.5431   -1.1568 N.pl3     1 ATP        -0.4731
     25 C5         -0.8095    4.3012   -0.0331 C.ar      1 ATP        -0.1295
     26 C6         -1.4065    5.5904    0.3585 C.ar      1 ATP         0.7196
     27 N6         -2.2501    6.2030   -0.4084 N.2       1 ATP        -0.8094
     28 N1         -0.9585    6.0272    1.5994 N.pl3     1 ATP        -0.8312
     29 C2         -0.0508    5.3009    2.3532 C.ar      1 ATP         0.6744
     30 N3          0.4890    4.1592    2.0257 N.2       1 ATP        -0.5937
     31 C4          0.0637    3.7006    0.7995 C.ar      1 ATP         0.2810
     32 HOG3       -2.3885    3.4116   -5.2864 H         1 ATP         0.4152
     33 HOA2        1.6031   -0.5116   -5.7948 H         1 ATP         0.4571
     34 H5'1        1.3514    0.2330   -2.1577 H         1 ATP         0.0465
     35 H5'2        2.1280   -1.3678   -2.0460 H         1 ATP         0.0465
     36 H4'         3.8044   -0.1397   -0.4040 H         1 ATP         0.1379
     37 H3'         1.6764   -1.7639    0.2728 H         1 ATP         0.1317
     38 HO3'        3.5554   -1.2733    1.4914 H         1 ATP         0.4175
     39 H2'        -0.0011    0.0027    0.0003 H         1 ATP         0.0669
     40 HO2'       -0.6141    0.5574    2.1082 H         1 ATP         0.4064
     41 H1'         1.7826    1.9024    1.6451 H         1 ATP         0.1285
     42 H8         -0.1116    1.6863   -1.6984 H         1 ATP         0.2954
     43 HN62       -2.5420    7.0730    0.0447 H         1 ATP         0.4226
     44 H2          0.1969    5.7893    3.3086 H         1 ATP         0.0826
     45 H45        -1.3097    6.9080    1.9642 H         1 ATP         0.4581
     46 H46        -1.5735    3.7351   -1.9538 H         1 ATP         0.5252
@<TRIPOS>BOND
     1    1    2 2
     2    1    3 1
     3    1    4 1
     4    1    8 1
     5    4   32 1
     6    5    6 2
     7    5    7 1
     8    5    8 1
     9    5   12 1
    10    9   10 2
    11    9   11 1
    12    9   12 1
    13    9   13 1
    14   11   33 1
    15   13   14 1
    16   14   15 1
    17   14   34 1
    18   14   35 1
    19   15   16 1
    20   15   17 1
    21   15   36 1
    22   16   21 1
    23   17   18 1
    24   17   19 1
    25   17   37 1
    26   18   38 1
    27   19   20 1
    28   19   21 1
    29   19   39 1
    30   20   40 1
    31   21   22 1
    32   21   41 1
    33   22   23 ar
    34   22   31 ar
    35   23   24 ar
    36   23   42 1
    37   24   25 ar
    38   24   46 1
    39   25   26 ar
    40   25   31 ar
    41   26   27 2
    42   26   28 ar
    43   27   43 1
    44   28   29 ar
    45   28   45 1
    46   29   30 ar
    47   29   44 1
    48   30   31 ar
@<TRIPOS>SUBSTRUCTURE
     1 ATP         1 GROUP 0 A     ****
@<TRIPOS>MOLECULE
[[[3,4-dihydroxy-5-(6-imino-7,8-dihydro-1~{H}-purin-8-ylium-9-yl)tetrahydrofuran-2-yl]methoxy-hydroxy-phosphoryl]oxy-oxido-phosphoryl] hydrogen phosphate
   46    48     1     0     0
SMALL
USER_CHARGES

@<TRIPOS>ATOM
      1 PG          2.0412   -3.2760   -7.1000 P.3       1 ATP         1.5644
      2 O1G         1.3024   -4.5547   -7.4263 O.co2     1 ATP        -0.8581
      3 O2G         3.5078   -3.2978   -6.7310 O.co2     1 ATP        -0.8581
      4 O3G         1.8319   -2.2270   -8.3337 O.3       1 ATP        -0.7962
      5 PB          1.4565   -0.9782   -5.3279 P.3       1 ATP         1.6830
      6 O1B         1.5228    0.0153   -6.4665 O.co2     1 ATP        -0.8633
      7 O2B         0.5045   -0.7753   -4.1702 O.co2     1 ATP        -0.8633
      8 O3B         1.2164   -2.4675   -5.9490 O.3       1 ATP        -0.8097
      9 PA          3.9521   -0.1769   -3.9527 P.3       1 ATP         1.7610
     10 O1A         4.6810    0.7861   -4.8443 O.2       1 ATP        -0.8554
     11 O2A         4.9166   -1.1746   -3.1207 O.3       1 ATP        -0.8102
     12 O3A         2.9635   -1.1884   -4.7377 O.3       1 ATP        -0.7693
     13 O5'         3.0213    0.5153   -2.8245 O.3       1 ATP        -0.5757
     14 C5'         2.2816   -0.2918   -1.9206 C.3       1 ATP         0.1911
     15 C4'         2.7248    0.0226   -0.4980 C.3       1 ATP         0.1218
     16 O4'         2.4697    1.4219   -0.2462 O.3       1 ATP        -0.4138
     17 C3'         1.9404   -0.7419    0.5596 C.3       1 ATP         0.1338
     18 O3'         2.7418   -0.8086    1.7389 O.3       1 ATP        -0.5756
     19 C2'         0.7477    0.1630    0.7858 C.3       1 ATP         0.0673
     20 O2'         0.1373   -0.0577    2.0407 O.3       1 ATP        -0.5671
     21 C1'         1.3733    1.5427    0.6747 C.3       1 ATP         0.3795
     22 N9          0.4520    2.5240    0.1767 N.pl3     1 ATP        -0.4175
     23 C8         -0.2004    2.4829   -0.9804 C.ar      1 ATP         0.2552
     24 N7         -0.9830    3.5431   -1.1568 N.pl3     1 ATP        -0.4731
     25 C5         -0.8095    4.3012   -0.0331 C.ar      1 ATP        -0.1295
     26 C6         -1.4065    5.5904    0.3585 C.ar      1 ATP         0.7196
     27 N6         -2.2501    6.2030   -0.4084 N.2       1 ATP        -0.8094
     28 N1         -0.9585    6.0272    1.5994 N.pl3     1 ATP        -0.8312
     29 C2         -0.0508    5.3009    2.3532 C.ar      1 ATP         0.6744
     30 N3          0.4890    4.1592    2.0257 N.2       1 ATP        -0.5937
     31 C4          0.0637    3.7006    0.7995 C.ar      1 ATP         0.2810
     32 HOG3        2.2536   -1.3434   -8.2717 H         1 ATP         0.4152
     33 HOA2        5.5732   -0.7917   -2.5006 H         1 ATP         0.4571
     34 H5'1        1.2163   -0.0770   -2.0471 H         1 ATP         0.0465
     35 H5'2        2.4655   -1.3443   -2.1563 H         1 ATP         0.0465
     36 H4'         3.8044   -0.1397   -0.4040 H         1 ATP         0.1379
     37 H3'         1.6764   -1.7639    0.2728 H         1 ATP         0.1317
     38 HO3'        2.2232   -1.2979    2.3953 H         1 ATP         0.4175
     39 H2'        -0.0011    0.0027    0.0003 H         1 ATP         0.0669
     40 HO2'       -0.6141    0.5574    2.1082 H         1 ATP         0.4064
     41 H1'         1.7826    1.9024    1.6451 H         1 ATP         0.1285
     42 H8         -0.1116    1.6863   -1.6984 H         1 ATP         0.2954
     43 HN62       -2.5420    7.0730    0.0447 H         1 ATP         0.4226
     44 H2          0.1969    5.7893    3.3086 H         1 ATP         0.0826
     45 H45        -1.3097    6.9080    1.9642 H         1 ATP         0.4581
     46 H46        -1.5735    3.7351   -1.9538 H         1 ATP         0.5252
@<TRIPOS>BOND
     1    1    2 2
     2    1    3 1
     3    1    4 1
     4    1    8 1
     5    4   32 1
     6    5    6 2
     7    5    7 1
     8    5    8 1
     9    5   12 1
    10    9   10 2
    11    9   11 1
    12    9   12 1
    13    9   13 1
    14   11   33 1
    15   13   14 1
    16   14   15 1
    17   14   34 1
    18   14   35 1
    19   15   16 1
    20   15   17 1
    21   15   36 1
    22   16   21 1
    23   17   18 1
    24   17   19 1
    25   17   37 1
    26   18   38 1
    27   19   20 1
    28   19   21 1
    29   19   39 1
    30   20   40 1
    31   21   22 1
    32   21   41 1
    33   22   23 ar
    34   22   31 ar
    35   23   24 ar
    36   23   42 1
    37   24   25 ar
    38   24   46 1
    39   25   26 ar
    40   25   31 ar
    41   26   27 2
    42   26   28 ar
    43   27   43 1
    44   28   29 ar
    45   28   45 1
    46   29   30 ar
    47   29   44 1
    48   30   31 ar
@<TRIPOS>SUBSTRUCTURE
     1 ATP         1 GROUP 0 A     ****
@<TRIPOS>MOLECULE
[[[3,4-dihydroxy-5-(6-imino-7,8-dihydro-1~{H}-purin-8-ylium-9-yl)tetrahydrofuran-2-yl]methoxy-hydroxy-phosphoryl]oxy-oxido-phosphoryl] hydrogen phosphate
   46    48     1     0     0
SMALL
USER_CHARGES

@<TRIPOS>ATOM
      1 PG          0.7572    1.0389   -7.3784 P.3       1 ATP         1.5644
      2 O1G         0.0133    0.0361   -8.2320 O.co2     1 ATP        -0.8581
      3 O2G         1.5088    2.1903   -8.0082 O.co2     1 ATP        -0.8581
      4 O3G        -0.2758    1.6400   -6.2658 O.3       1 ATP        -0.7962
      5 PB          1.4565   -0.9782   -5.3279 P.3       1 ATP         1.6830
      6 O1B         0.5765   -0.4511   -4.2163 O.co2     1 ATP        -0.8633
      7 O2B         1.0659   -2.2095   -6.1147 O.co2     1 ATP        -0.8633
      8 O3B         1.7599    0.2372   -6.3731 O.3       1 ATP        -0.8097
      9 PA          3.9521   -0.1769   -3.9527 P.3       1 ATP         1.7610
     10 O1A         4.6810    0.7861   -4.8443 O.2       1 ATP        -0.8554
     11 O2A         4.9166   -1.1746   -3.1207 O.3       1 ATP        -0.8102
     12 O3A         2.9635   -1.1884   -4.7377 O.3       1 ATP        -0.7693
     13 O5'         3.0213    0.5153   -2.8245 O.3       1 ATP        -0.5757
     14 C5'         2.2816   -0.2918   -1.9206 C.3       1 ATP         0.1911
     15 C4'         2.7248    0.0226   -0.4980 C.3       1 ATP         0.1218
     16 O4'         2.4697    1.4219   -0.2462 O.3       1 ATP        -0.4138
     17 C3'         1.9404   -0.7419    0.5596 C.3       1 ATP         0.1338
     18 O3'         2.7418   -0.8086    1.7389 O.3       1 ATP        -0.5756
     19 C2'         0.7477    0.1630    0.7858 C.3       1 ATP         0.0673
     20 O2'         0.1373   -0.0577    2.0407 O.3       1 ATP        -0.5671
     21 C1'         1.3733    1.5427    0.6747 C.3       1 ATP         0.3795
     22 N9          0.4520    2.5240    0.1767 N.pl3     1 ATP        -0.4175
     23 C8         -0.2004    2.4829   -0.9804 C.ar      1 ATP         0.2552
     24 N7         -0.9830    3.5431   -1.1568 N.pl3     1 ATP        -0.4731
     25 C5         -0.8095    4.3012   -0.0331 C.ar      1 ATP        -0.1295
     26 C6         -1.4065    5.5904    0.3585 C.ar      1 ATP         0.7196
     27 N6         -2.2501    6.2030   -0.4084 N.2       1 ATP        -0.8094
     28 N1         -0.9585    6.0272    1.5994 N.pl3     1 ATP        -0.8312
     29 C2         -0.0508    5.3009    2.3532 C.ar      1 ATP         0.6744
     30 N3          0.4890    4.1592    2.0257 N.2       1 ATP        -0.5937
     31 C4          0.0637    3.7006    0.7995 C.ar      1 ATP         0.2810
     32 HOG3        0.0592    2.3087   -5.6311 H         1 ATP         0.4152
     33 HOA2        5.5732   -0.7917   -2.5006 H         1 ATP         0.4571
     34 H5'1        1.2163   -0.0770   -2.0471 H         1 ATP         0.0465
     35 H5'2        2.4655   -1.3443   -2.1563 H         1 ATP         0.0465
     36 H4'         3.8044   -0.1397   -0.4040 H         1 ATP         0.1379
     37 H3'         1.6764   -1.7639    0.2728 H         1 ATP         0.1317
     38 HO3'        2.2232   -1.2979    2.3953 H         1 ATP         0.4175
     39 H2'        -0.0011    0.0027    0.0003 H         1 ATP         0.0669
     40 HO2'       -0.6141    0.5574    2.1082 H         1 ATP         0.4064
     41 H1'         1.7826    1.9024    1.6451 H         1 ATP         0.1285
     42 H8         -0.1116    1.6863   -1.6984 H         1 ATP         0.2954
     43 HN62       -2.5420    7.0730    0.0447 H         1 ATP         0.4226
     44 H2          0.1969    5.7893    3.3086 H         1 ATP         0.0826
     45 H45        -1.3097    6.9080    1.9642 H         1 ATP         0.4581
     46 H46        -1.5735    3.7351   -1.9538 H         1 ATP         0.5252
@<TRIPOS>BOND
     1    1    2 2
     2    1    3 1
     3    1    4 1
     4    1    8 1
     5    4   32 1
     6    5    6 2
     7    5    7 1
     8    5    8 1
     9    5   12 1
    10    9   10 2
    11    9   11 1
    12    9   12 1
    13    9   13 1
    14   11   33 1
    15   13   14 1
    16   14   15 1
    17   14   34 1
    18   14   35 1
    19   15   16 1
    20   15   17 1
    21   15   36 1
    22   16   21 1
    23   17   18 1
    24   17   19 1
    25   17   37 1
    26   18   38 1
    27   19   20 1
    28   19   21 1
    29   19   39 1
    30   20   40 1
    31   21   22 1
    32   21   41 1
    33   22   23 ar
    34   22   31 ar
    35   23   24 ar
    36   23   42 1
    37   24   25 ar
    38   24   46 1
    39   25   26 ar
    40   25   31 ar
    41   26   27 2
    42   26   28 ar
    43   27   43 1
    44   28   29 ar
    45   28   45 1
    46   29   30 ar
    47   29   44 1
    48   30   31 ar
@<TRIPOS>SUBSTRUCTURE
     1 ATP         1 GROUP 0 A     ****
@<TRIPOS>MOLECULE
[[[3,4-dihydroxy-5-(6-imino-7,8-dihydro-1~{H}-purin-8-ylium-9-yl)tetrahydrofuran-2-yl]methoxy-hydroxy-phosphoryl]oxy-oxido-phosphoryl] hydrogen phosphate
   46    48     1     0     0
SMALL
USER_CHARGES

@<TRIPOS>ATOM
      1 PG          6.0204   -2.1681    0.7468 P.3       1 ATP         1.5644
      2 O1G         6.7967   -3.4631    0.6574 O.co2     1 ATP        -0.8581
      3 O2G         4.9286   -1.9856    1.7774 O.co2     1 ATP        -0.8581
      4 O3G         7.0822   -0.9361    0.8916 O.3       1 ATP        -0.7962
      5 PB          6.1786   -1.6806   -2.1686 P.3       1 ATP         1.6830
      6 O1B         7.1102   -0.4898   -2.1249 O.co2     1 ATP        -0.8633
      7 O2B         6.6800   -3.0486   -2.5750 O.co2     1 ATP        -0.8633
      8 O3B         5.4248   -1.8057   -0.7271 O.3       1 ATP        -0.8097
      9 PA          3.5156   -2.0921   -3.3934 P.3       1 ATP         1.7610
     10 O1A         3.6877   -3.5728   -3.5714 O.2       1 ATP        -0.8554
     11 O2A         2.9211   -1.3302   -4.6911 O.3       1 ATP        -0.8102
     12 O3A         4.8921   -1.2960   -3.0962 O.3       1 ATP        -0.7693
     13 O5'         2.5245   -1.6648   -2.1878 O.3       1 ATP        -0.5757
     14 C5'         2.2816   -0.2918   -1.9206 C.3       1 ATP         0.1911
     15 C4'         2.7248    0.0226   -0.4980 C.3       1 ATP         0.1218
     16 O4'         2.4697    1.4219   -0.2462 O.3       1 ATP        -0.4138
     17 C3'         1.9404   -0.7419    0.5596 C.3       1 ATP         0.1338
     18 O3'         2.7418   -0.8086    1.7389 O.3       1 ATP        -0.5756
     19 C2'         0.7477    0.1630    0.7858 C.3       1 ATP         0.0673
     20 O2'         0.1373   -0.0577    2.0407 O.3       1 ATP        -0.5671
     21 C1'         1.3733    1.5427    0.6747 C.3       1 ATP         0.3795
     22 N9          0.4520    2.5240    0.1767 N.pl3     1 ATP        -0.4175
     23 C8          0.2216    2.8192   -1.0985 C.ar      1 ATP         0.2552
     24 N7         -0.6906    3.7763   -1.2384 N.pl3     1 ATP        -0.4731
     25 C5         -1.0575    4.1037    0.0366 C.ar      1 ATP        -0.1295
     26 C6         -2.0291    5.0943    0.5330 C.ar      1 ATP         0.7196
     27 N6         -2.7093    5.8371   -0.2800 N.2       1 ATP        -0.8094
     28 N1         -2.1051    5.1136    1.9204 N.pl3     1 ATP        -0.8312
     29 C2         -1.3354    4.2774    2.7129 C.ar      1 ATP         0.6744
     30 N3         -0.4707    3.3945    2.2944 N.2       1 ATP        -0.5937
     31 C4         -0.3734    3.3525    0.9220 C.ar      1 ATP         0.2810
     32 HOG3        6.7307   -0.0228    0.9611 H         1 ATP         0.4152
     33 HOA2        2.0387   -1.5908   -5.0310 H         1 ATP         0.4571
     34 H5'1        2.8432    0.3119   -2.6398 H         1 ATP         0.0465
     35 H5'2        1.2128   -0.0927   -2.0428 H         1 ATP         0.0465
     36 H4'         3.8044   -0.1397   -0.4040 H         1 ATP         0.1379
     37 H3'         1.6764   -1.7639    0.2728 H         1 ATP         0.1317
     38 HO3'        2.2232   -1.2979    2.3953 H         1 ATP         0.4175
     39 H2'        -0.0011    0.0027    0.0003 H         1 ATP         0.0669
     40 HO2'       -0.6141    0.5574    2.1082 H         1 ATP         0.4064
     41 H1'         1.7826    1.9024    1.6451 H         1 ATP         0.1285
     42 H8          0.7125    2.3429   -1.9292 H         1 ATP         0.2954
     43 HN62       -3.3217    6.4517    0.2629 H         1 ATP         0.4226
     44 H2         -1.5188    4.4223    3.7890 H         1 ATP         0.0826
     45 H45        -2.7470    5.7626    2.3665 H         1 ATP         0.4581
     46 H46        -1.0305    4.1680   -2.1054 H         1 ATP         0.5252
@<TRIPOS>BOND
     1    1    2 2
     2    1    3 1
     3    1    4 1
     4    1    8 1
     5    4   32 1
     6    5    6 2
     7    5    7 1
     8    5    8 1
     9    5   12 1
    10    9   10 2
    11    9   11 1
    12    9   12 1
    13    9   13 1
    14   11   33 1
    15   13   14 1
    16   14   15 1
    17   14   34 1
    18   14   35 1
    19   15   16 1
    20   15   17 1
    21   15   36 1
    22   16   21 1
    23   17   18 1
    24   17   19 1
    25   17   37 1
    26   18   38 1
    27   19   20 1
    28   19   21 1
    29   19   39 1
    30   20   40 1
    31   21   22 1
    32   21   41 1
    33   22   23 ar
    34   22   31 ar
    35   23   24 ar
    36   23   42 1
    37   24   25 ar
    38   24   46 1
    39   25   26 ar
    40   25   31 ar
    41   26   27 2
    42   26   28 ar
    43   27   43 1
    44   28   29 ar
    45   28   45 1
    46   29   30 ar
    47   29   44 1
    48   30   31 ar
@<TRIPOS>SUBSTRUCTURE
     1 ATP         1 GROUP 0 A     ****
@<TRIPOS>MOLECULE
[[[3,4-dihydroxy-5-(6-imino-7,8-dihydro-1~{H}-purin-8-ylium-9-yl)tetrahydrofuran-2-yl]methoxy-hydroxy-phosphoryl]oxy-oxido-phosphoryl] hydrogen phosphate
   46    48     1     0     0
SMALL
USER_CHARGES

@<TRIPOS>ATOM
      1 PG          0.3549    0.2554   -6.0230 P.3       1 ATP         1.5644
      2 O1G         0.5474    0.4300   -4.5330 O.co2     1 ATP        -0.8581
      3 O2G        -1.0297    0.1311   -6.6188 O.co2     1 ATP        -0.8581
      4 O3G         1.1449    1.4596   -6.7923 O.3       1 ATP        -0.7962
      5 PB          2.8573   -1.2953   -6.3311 P.3       1 ATP         1.6830
      6 O1B         3.1589   -2.6826   -6.8529 O.co2     1 ATP        -0.8633
      7 O2B         3.6401   -0.0938   -6.8121 O.co2     1 ATP        -0.8633
      8 O3B         1.2656   -0.9981   -6.5308 O.3       1 ATP        -0.8097
      9 PA          2.1493   -2.2871   -3.6336 P.3       1 ATP         1.7610
     10 O1A         2.4555   -3.7486   -3.7880 O.2       1 ATP        -0.8554
     11 O2A         0.5901   -1.9079   -3.8415 O.3       1 ATP        -0.8102
     12 O3A         2.9062   -1.3352   -4.7002 O.3       1 ATP        -0.7693
     13 O5'         2.5245   -1.6648   -2.1878 O.3       1 ATP        -0.5757
     14 C5'         2.2816   -0.2918   -1.9206 C.3       1 ATP         0.1911
     15 C4'         2.7248    0.0226   -0.4980 C.3       1 ATP         0.1218
     16 O4'         2.4697    1.4219   -0.2462 O.3       1 ATP        -0.4138
     17 C3'         1.9404   -0.7419    0.5596 C.3       1 ATP         0.1338
     18 O3'         2.7418   -0.8086    1.7389 O.3       1 ATP        -0.5756
     19 C2'         0.7477    0.1630    0.7858 C.3       1 ATP         0.0673
     20 O2'         0.1373   -0.0577    2.0407 O.3       1 ATP        -0.5671
     21 C1'         1.3733    1.5427    0.6747 C.3       1 ATP         0.3795
     22 N9          0.4520    2.5240    0.1767 N.pl3     1 ATP        -0.4175
     23 C8          0.2216    2.8192   -1.0985 C.ar      1 ATP         0.2552
     24 N7         -0.6906    3.7763   -1.2384 N.pl3     1 ATP        -0.4731
     25 C5         -1.0575    4.1037    0.0366 C.ar      1 ATP        -0.1295
     26 C6         -2.0291    5.0943    0.5330 C.ar      1 ATP         0.7196
     27 N6         -2.7093    5.8371   -0.2800 N.2       1 ATP        -0.8094
     28 N1         -2.1051    5.1136    1.9204 N.pl3     1 ATP        -0.8312
     29 C2         -1.3354    4.2774    2.7129 C.ar      1 ATP         0.6744
     30 N3         -0.4707    3.3945    2.2944 N.2       1 ATP        -0.5937
     31 C4         -0.3734    3.3525    0.9220 C.ar      1 ATP         0.2810
     32 HOG3        1.1150    1.4858   -7.7725 H         1 ATP         0.4152
     33 HOA2        0.1642   -2.1077   -4.7022 H         1 ATP         0.4571
     34 H5'1        2.8432    0.3119   -2.6398 H         1 ATP         0.0465
     35 H5'2        1.2128   -0.0927   -2.0428 H         1 ATP         0.0465
     36 H4'         3.8044   -0.1397   -0.4040 H         1 ATP         0.1379
     37 H3'         1.6764   -1.7639    0.2728 H         1 ATP         0.1317
     38 HO3'        2.2232   -1.2979    2.3953 H         1 ATP         0.4175
     39 H2'        -0.0011    0.0027    0.0003 H         1 ATP         0.0669
     40 HO2'       -0.6141    0.5574    2.1082 H         1 ATP         0.4064
     41 H1'         1.7826    1.9024    1.6451 H         1 ATP         0.1285
     42 H8          0.7125    2.3429   -1.9292 H         1 ATP         0.2954
     43 HN62       -3.3217    6.4517    0.2629 H         1 ATP         0.4226
     44 H2         -1.5188    4.4223    3.7890 H         1 ATP         0.0826
     45 H45        -2.7470    5.7626    2.3665 H         1 ATP         0.4581
     46 H46        -1.0305    4.1680   -2.1054 H         1 ATP         0.5252
@<TRIPOS>BOND
     1    1    2 2
     2    1    3 1
     3    1    4 1
     4    1    8 1
     5    4   32 1
     6    5    6 2
     7    5    7 1
     8    5    8 1
     9    5   12 1
    10    9   10 2
    11    9   11 1
    12    9   12 1
    13    9   13 1
    14   11   33 1
    15   13   14 1
    16   14   15 1
    17   14   34 1
    18   14   35 1
    19   15   16 1
    20   15   17 1
    21   15   36 1
    22   16   21 1
    23   17   18 1
    24   17   19 1
    25   17   37 1
    26   18   38 1
    27   19   20 1
    28   19   21 1
    29   19   39 1
    30   20   40 1
    31   21   22 1
    32   21   41 1
    33   22   23 ar
    34   22   31 ar
    35   23   24 ar
    36   23   42 1
    37   24   25 ar
    38   24   46 1
    39   25   26 ar
    40   25   31 ar
    41   26   27 2
    42   26   28 ar
    43   27   43 1
    44   28   29 ar
    45   28   45 1
    46   29   30 ar
    47   29   44 1
    48   30   31 ar
@<TRIPOS>SUBSTRUCTURE
     1 ATP         1 GROUP 0 A     ****
@<TRIPOS>MOLECULE
[[[3,4-dihydroxy-5-(6-imino-7,8-dihydro-1~{H}-purin-8-ylium-9-yl)tetrahydrofuran-2-yl]methoxy-hydroxy-phosphoryl]oxy-oxido-phosphoryl] hydrogen phosphate
   46    48     1     0     0
SMALL
USER_CHARGES

@<TRIPOS>ATOM
      1 PG          0.2004   -2.4160   -5.3844 P.3       1 ATP         1.5644
      2 O1G         0.8772   -2.2634   -4.0404 O.co2     1 ATP        -0.8581
      3 O2G         0.4567   -3.6290   -6.2507 O.co2     1 ATP        -0.8581
      4 O3G        -1.4112   -2.2595   -5.1740 O.3       1 ATP        -0.7962
      5 PB          0.2012    0.4988   -5.9002 P.3       1 ATP         1.6830
      6 O1B         0.7799    1.3554   -7.0043 O.co2     1 ATP        -0.8633
      7 O2B        -1.2367    0.6607   -5.4597 O.co2     1 ATP        -0.8633
      8 O3B         0.4640   -1.0695   -6.2652 O.3       1 ATP        -0.8097
      9 PA          2.7605    0.3953   -4.4169 P.3       1 ATP         1.7610
     10 O1A         3.6064    1.3021   -5.2629 O.2       1 ATP        -0.8554
     11 O2A         2.9475   -1.1798   -4.7368 O.3       1 ATP        -0.8102
     12 O3A         1.1682    0.6209   -4.5912 O.3       1 ATP        -0.7693
     13 O5'         3.0213    0.5153   -2.8245 O.3       1 ATP        -0.5757
     14 C5'         2.2816   -0.2918   -1.9206 C.3       1 ATP         0.1911
     15 C4'         2.7248    0.0226   -0.4980 C.3       1 ATP         0.1218
     16 O4'         2.4697    1.4219   -0.2462 O.3       1 ATP        -0.4138
     17 C3'         1.9404   -0.7419    0.5596 C.3       1 ATP         0.1338
     18 O3'         2.7418   -0.8086    1.7389 O.3       1 ATP        -0.5756
     19 C2'         0.7477    0.1630    0.7858 C.3       1 ATP         0.0673
     20 O2'         0.1373   -0.0577    2.0407 O.3       1 ATP        -0.5671
     21 C1'         1.3733    1.5427    0.6747 C.3       1 ATP         0.3795
     22 N9          0.4520    2.5240    0.1767 N.pl3     1 ATP        -0.4175
     23 C8         -0.2004    2.4829   -0.9804 C.ar      1 ATP         0.2552
     24 N7         -0.9830    3.5431   -1.1568 N.pl3     1 ATP        -0.4731
     25 C5         -0.8095    4.3012   -0.0331 C.ar      1 ATP        -0.1295
     26 C6         -1.4065    5.5904    0.3585 C.ar      1 ATP         0.7196
     27 N6         -2.2501    6.2030   -0.4084 N.2       1 ATP        -0.8094
     28 N1         -0.9585    6.0272    1.5994 N.pl3     1 ATP        -0.8312
     29 C2         -0.0508    5.3009    2.3532 C.ar      1 ATP         0.6744
     30 N3          0.4890    4.1592    2.0257 N.2       1 ATP        -0.5937
     31 C4          0.0637    3.7006    0.7995 C.ar      1 ATP         0.2810
     32 HOG3       -1.9939   -2.3343   -5.9597 H         1 ATP         0.4152
     33 HOA2        2.7451   -1.5077   -5.6388 H         1 ATP         0.4571
     34 H5'1        1.2163   -0.0770   -2.0471 H         1 ATP         0.0465
     35 H5'2        2.4655   -1.3443   -2.1563 H         1 ATP         0.0465
     36 H4'         3.8044   -0.1397   -0.4040 H         1 ATP         0.1379
     37 H3'         1.6764   -1.7639    0.2728 H         1 ATP         0.1317
     38 HO3'        2.2232   -1.2979    2.3953 H         1 ATP         0.4175
     39 H2'        -0.0011    0.0027    0.0003 H         1 ATP         0.0669
     40 HO2'       -0.6141    0.5574    2.1082 H         1 ATP         0.4064
     41 H1'         1.7826    1.9024    1.6451 H         1 ATP         0.1285
     42 H8         -0.1116    1.6863   -1.6984 H         1 ATP         0.2954
     43 HN62       -2.5420    7.0730    0.0447 H         1 ATP         0.4226
     44 H2          0.1969    5.7893    3.3086 H         1 ATP         0.0826
     45 H45        -1.3097    6.9080    1.9642 H         1 ATP         0.4581
     46 H46        -1.5735    3.7351   -1.9538 H         1 ATP         0.5252
@<TRIPOS>BOND
     1    1    2 2
     2    1    3 1
     3    1    4 1
     4    1    8 1
     5    4   32 1
     6    5    6 2
     7    5    7 1
     8    5    8 1
     9    5   12 1
    10    9   10 2
    11    9   11 1
    12    9   12 1
    13    9   13 1
    14   11   33 1
    15   13   14 1
    16   14   15 1
    17   14   34 1
    18   14   35 1
    19   15   16 1
    20   15   17 1
    21   15   36 1
    22   16   21 1
    23   17   18 1
    24   17   19 1
    25   17   37 1
    26   18   38 1
    27   19   20 1
    28   19   21 1
    29   19   39 1
    30   20   40 1
    31   21   22 1
    32   21   41 1
    33   22   23 ar
    34   22   31 ar
    35   23   24 ar
    36   23   42 1
    37   24   25 ar
    38   24   46 1
    39   25   26 ar
    40   25   31 ar
    41   26   27 2
    42   26   28 ar
    43   27   43 1
    44   28   29 ar
    45   28   45 1
    46   29   30 ar
    47   29   44 1
    48   30   31 ar
@<TRIPOS>SUBSTRUCTURE
     1 ATP         1 GROUP 0 A     ****
@<TRIPOS>MOLECULE
[[[3,4-dihydroxy-5-(6-imino-7,8-dihydro-1~{H}-purin-8-ylium-9-yl)tetrahydrofuran-2-yl]methoxy-hydroxy-phosphoryl]oxy-oxido-phosphoryl] hydrogen phosphate
   46    48     1     0     0
SMALL
USER_CHARGES

@<TRIPOS>ATOM
      1 PG          2.6073    3.8987   -6.4464 P.3       1 ATP         1.5644
      2 O1G         3.8131    3.4323   -5.6615 O.co2     1 ATP        -0.8581
      3 O2G         2.0025    5.2637   -6.2044 O.co2     1 ATP        -0.8581
      4 O3G         2.9369    3.7520   -8.0389 O.3       1 ATP        -0.7962
      5 PB          0.5575    2.2851   -5.0477 P.3       1 ATP         1.6830
      6 O1B        -0.0709    3.5011   -4.4040 O.co2     1 ATP        -0.8633
      7 O2B        -0.2836    1.0957   -5.4545 O.co2     1 ATP        -0.8633
      8 O3B         1.4347    2.7713   -6.3344 O.3       1 ATP        -0.8097
      9 PA          2.8900    0.6162   -4.3161 P.3       1 ATP         1.7610
     10 O1A         4.0478    1.0418   -5.1716 O.2       1 ATP        -0.8554
     11 O2A         2.0339   -0.6169   -4.9198 O.3       1 ATP        -0.8102
     12 O3A         1.7740    1.7656   -4.0918 O.3       1 ATP        -0.7693
     13 O5'         3.2903    0.1346   -2.8241 O.3       1 ATP        -0.5757
     14 C5'         2.2816   -0.2918   -1.9206 C.3       1 ATP         0.1911
     15 C4'         2.7248    0.0226   -0.4980 C.3       1 ATP         0.1218
     16 O4'         2.4697    1.4219   -0.2462 O.3       1 ATP        -0.4138
     17 C3'         1.9404   -0.7419    0.5596 C.3       1 ATP         0.1338
     18 O3'         2.7418   -0.8086    1.7389 O.3       1 ATP        -0.5756
     19 C2'         0.7477    0.1630    0.7858 C.3       1 ATP         0.0673
     20 O2'         0.1373   -0.0577    2.0407 O.3       1 ATP        -0.5671
     21 C1'         1.3733    1.5427    0.6747 C.3       1 ATP         0.3795
     22 N9          0.4520    2.5240    0.1767 N.pl3     1 ATP        -0.4175
     23 C8          0.2216    2.8192   -1.0985 C.ar      1 ATP         0.2552
     24 N7         -0.6906    3.7763   -1.2384 N.pl3     1 ATP        -0.4731
     25 C5         -1.0575    4.1037    0.0366 C.ar      1 ATP        -0.1295
     26 C6         -2.0291    5.0943    0.5330 C.ar      1 ATP         0.7196
     27 N6         -2.7093    5.8371   -0.2800 N.2       1 ATP        -0.8094
     28 N1         -2.1051    5.1136    1.9204 N.pl3     1 ATP        -0.8312
     29 C2         -1.3354    4.2774    2.7129 C.ar      1 ATP         0.6744
     30 N3         -0.4707    3.3945    2.2944 N.2       1 ATP        -0.5937
     31 C4         -0.3734    3.3525    0.9220 C.ar      1 ATP         0.2810
     32 HOG3        2.2473    4.0166   -8.6845 H         1 ATP         0.4152
     33 HOA2        1.2614   -0.9499   -4.4152 H         1 ATP         0.4571
     34 H5'1        1.3514    0.2330   -2.1577 H         1 ATP         0.0465
     35 H5'2        2.1280   -1.3678   -2.0460 H         1 ATP         0.0465
     36 H4'         3.8044   -0.1397   -0.4040 H         1 ATP         0.1379
     37 H3'         1.6764   -1.7639    0.2728 H         1 ATP         0.1317
     38 HO3'        3.5554   -1.2733    1.4914 H         1 ATP         0.4175
     39 H2'        -0.0011    0.0027    0.0003 H         1 ATP         0.0669
     40 HO2'       -0.6141    0.5574    2.1082 H         1 ATP         0.4064
     41 H1'         1.7826    1.9024    1.6451 H         1 ATP         0.1285
     42 H8          0.7125    2.3429   -1.9292 H         1 ATP         0.2954
     43 HN62       -3.3217    6.4517    0.2629 H         1 ATP         0.4226
     44 H2         -1.5188    4.4223    3.7890 H         1 ATP         0.0826
     45 H45        -2.7470    5.7626    2.3665 H         1 ATP         0.4581
     46 H46        -1.0305    4.1680   -2.1054 H         1 ATP         0.5252
@<TRIPOS>BOND
     1    1    2 2
     2    1    3 1
     3    1    4 1
     4    1    8 1
     5    4   32 1
     6    5    6 2
     7    5    7 1
     8    5    8 1
     9    5   12 1
    10    9   10 2
    11    9   11 1
    12    9   12 1
    13    9   13 1
    14   11   33 1
    15   13   14 1
    16   14   15 1
    17   14   34 1
    18   14   35 1
    19   15   16 1
    20   15   17 1
    21   15   36 1
    22   16   21 1
    23   17   18 1
    24   17   19 1
    25   17   37 1
    26   18   38 1
    27   19   20 1
    28   19   21 1
    29   19   39 1
    30   20   40 1
    31   21   22 1
    32   21   41 1
    33   22   23 ar
    34   22   31 ar
    35   23   24 ar
    36   23   42 1
    37   24   25 ar
    38   24   46 1
    39   25   26 ar
    40   25   31 ar
    41   26   27 2
    42   26   28 ar
    43   27   43 1
    44   28   29 ar
    45   28   45 1
    46   29   30 ar
    47   29   44 1
    48   30   31 ar
@<TRIPOS>SUBSTRUCTURE
     1 ATP         1 GROUP 0 A     ****
@<TRIPOS>MOLECULE
[[[3,4-dihydroxy-5-(6-imino-7,8-dihydro-1~{H}-purin-8-ylium-9-yl)tetrahydrofuran-2-yl]methoxy-hydroxy-phosphoryl]oxy-oxido-phosphoryl] hydrogen phosphate
   46    48     1     0     0
SMALL
USER_CHARGES

@<TRIPOS>ATOM
      1 PG         -0.9268    0.2105   -5.1291 P.3       1 ATP         1.5644
      2 O1G        -0.2007   -0.4233   -3.9635 O.co2     1 ATP        -0.8581
      3 O2G        -1.5461   -0.6406   -6.2152 O.co2     1 ATP        -0.8581
      4 O3G        -2.0712    1.2164   -4.5420 O.3       1 ATP        -0.7962
      5 PB          0.8430    2.5831   -5.1541 P.3       1 ATP         1.6830
      6 O1B         1.7414    3.1945   -6.2061 O.co2     1 ATP        -0.8633
      7 O2B        -0.1447    3.4307   -4.3836 O.co2     1 ATP        -0.8633
      8 O3B         0.0468    1.3229   -5.8171 O.3       1 ATP        -0.8097
      9 PA          2.8900    0.6162   -4.3161 P.3       1 ATP         1.7610
     10 O1A         4.0478    1.0418   -5.1716 O.2       1 ATP        -0.8554
     11 O2A         2.0339   -0.6169   -4.9198 O.3       1 ATP        -0.8102
     12 O3A         1.7740    1.7656   -4.0918 O.3       1 ATP        -0.7693
     13 O5'         3.2903    0.1346   -2.8241 O.3       1 ATP        -0.5757
     14 C5'         2.2816   -0.2918   -1.9206 C.3       1 ATP         0.1911
     15 C4'         2.7248    0.0226   -0.4980 C.3       1 ATP         0.1218
     16 O4'         2.4697    1.4219   -0.2462 O.3       1 ATP        -0.4138
     17 C3'         1.9404   -0.7419    0.5596 C.3       1 ATP         0.1338
     18 O3'         2.7418   -0.8086    1.7389 O.3       1 ATP        -0.5756
     19 C2'         0.7477    0.1630    0.7858 C.3       1 ATP         0.0673
     20 O2'         0.1373   -0.0577    2.0407 O.3       1 ATP        -0.5671
     21 C1'         1.3733    1.5427    0.6747 C.3       1 ATP         0.3795
     22 N9          0.4520    2.5240    0.1767 N.pl3     1 ATP        -0.4175
     23 C8          0.2216    2.8192   -1.0985 C.ar      1 ATP         0.2552
     24 N7         -0.6906    3.7763   -1.2384 N.pl3     1 ATP        -0.4731
     25 C5         -1.0575    4.1037    0.0366 C.ar      1 ATP        -0.1295
     26 C6         -2.0291    5.0943    0.5330 C.ar      1 ATP         0.7196
     27 N6         -2.7093    5.8371   -0.2800 N.2       1 ATP        -0.8094
     28 N1         -2.1051    5.1136    1.9204 N.pl3     1 ATP        -0.8312
     29 C2         -1.3354    4.2774    2.7129 C.ar      1 ATP         0.6744
     30 N3         -0.4707    3.3945    2.2944 N.2       1 ATP        -0.5937
     31 C4         -0.3734    3.3525    0.9220 C.ar      1 ATP         0.2810
     32 HOG3       -1.7883    1.9639   -3.9732 H         1 ATP         0.4152
     33 HOA2        1.6031   -0.5116   -5.7948 H         1 ATP         0.4571
     34 H5'1        1.3514    0.2330   -2.1577 H         1 ATP         0.0465
     35 H5'2        2.1280   -1.3678   -2.0460 H         1 ATP         0.0465
     36 H4'         3.8044   -0.1397   -0.4040 H         1 ATP         0.1379
     37 H3'         1.6764   -1.7639    0.2728 H         1 ATP         0.1317
     38 HO3'        3.5554   -1.2733    1.4914 H         1 ATP         0.4175
     39 H2'        -0.0011    0.0027    0.0003 H         1 ATP         0.0669
     40 HO2'       -0.6141    0.5574    2.1082 H         1 ATP         0.4064
     41 H1'         1.7826    1.9024    1.6451 H         1 ATP         0.1285
     42 H8          0.7125    2.3429   -1.9292 H         1 ATP         0.2954
     43 HN62       -3.3217    6.4517    0.2629 H         1 ATP         0.4226
     44 H2         -1.5188    4.4223    3.7890 H         1 ATP         0.0826
     45 H45        -2.7470    5.7626    2.3665 H         1 ATP         0.4581
     46 H46        -1.0305    4.1680   -2.1054 H         1 ATP         0.5252
@<TRIPOS>BOND
     1    1    2 2
     2    1    3 1
     3    1    4 1
     4    1    8 1
     5    4   32 1
     6    5    6 2
     7    5    7 1
     8    5    8 1
     9    5   12 1
    10    9   10 2
    11    9   11 1
    12    9   12 1
    13    9   13 1
    14   11   33 1
    15   13   14 1
    16   14   15 1
    17   14   34 1
    18   14   35 1
    19   15   16 1
    20   15   17 1
    21   15   36 1
    22   16   21 1
    23   17   18 1
    24   17   19 1
    25   17   37 1
    26   18   38 1
    27   19   20 1
    28   19   21 1
    29   19   39 1
    30   20   40 1
    31   21   22 1
    32   21   41 1
    33   22   23 ar
    34   22   31 ar
    35   23   24 ar
    36   23   42 1
    37   24   25 ar
    38   24   46 1
    39   25   26 ar
    40   25   31 ar
    41   26   27 2
    42   26   28 ar
    43   27   43 1
    44   28   29 ar
    45   28   45 1
    46   29   30 ar
    47   29   44 1
    48   30   31 ar
@<TRIPOS>SUBSTRUCTURE
     1 ATP         1 GROUP 0 A     ****
@<TRIPOS>MOLECULE
[[[3,4-dihydroxy-5-(6-imino-7,8-dihydro-1~{H}-purin-8-ylium-9-yl)tetrahydrofuran-2-yl]methoxy-hydroxy-phosphoryl]oxy-oxido-phosphoryl] hydrogen phosphate
   46    48     1     0     0
SMALL
USER_CHARGES

@<TRIPOS>ATOM
      1 PG          7.9568   -0.9321   -3.0449 P.3       1 ATP         1.5644
      2 O1G         8.5690   -2.2572   -3.4411 O.co2     1 ATP        -0.8581
      3 O2G         7.9706   -0.4686   -1.6054 O.co2     1 ATP        -0.8581
      4 O3G         8.6119    0.2401   -3.9740 O.3       1 ATP        -0.7962
      5 PB          5.3577    0.3651   -3.6140 P.3       1 ATP         1.6830
      6 O1B         4.9662    0.6706   -2.1853 O.co2     1 ATP        -0.8633
      7 O2B         5.8714    1.4524   -4.5314 O.co2     1 ATP        -0.8633
      8 O3B         6.4285   -0.8657   -3.6092 O.3       1 ATP        -0.8097
      9 PA          3.2593   -1.7000   -3.9192 P.3       1 ATP         1.7610
     10 O1A         3.9358   -3.0003   -4.2432 O.2       1 ATP        -0.8554
     11 O2A         1.8422   -1.4817   -4.6690 O.3       1 ATP        -0.8102
     12 O3A         4.1067   -0.3886   -4.3423 O.3       1 ATP        -0.7693
     13 O5'         2.9216   -1.4836   -2.3516 O.3       1 ATP        -0.5757
     14 C5'         2.2816   -0.2918   -1.9206 C.3       1 ATP         0.1911
     15 C4'         2.7248    0.0226   -0.4980 C.3       1 ATP         0.1218
     16 O4'         2.4697    1.4219   -0.2462 O.3       1 ATP        -0.4138
     17 C3'         1.9404   -0.7419    0.5596 C.3       1 ATP         0.1338
     18 O3'         2.7418   -0.8086    1.7389 O.3       1 ATP        -0.5756
     19 C2'         0.7477    0.1630    0.7858 C.3       1 ATP         0.0673
     20 O2'         0.1373   -0.0577    2.0407 O.3       1 ATP        -0.5671
     21 C1'         1.3733    1.5427    0.6747 C.3       1 ATP         0.3795
     22 N9          0.4520    2.5240    0.1767 N.pl3     1 ATP        -0.4175
     23 C8          0.2216    2.8192   -1.0985 C.ar      1 ATP         0.2552
     24 N7         -0.6906    3.7763   -1.2384 N.pl3     1 ATP        -0.4731
     25 C5         -1.0575    4.1037    0.0366 C.ar      1 ATP        -0.1295
     26 C6         -2.0291    5.0943    0.5330 C.ar      1 ATP         0.7196
     27 N6         -2.7093    5.8371   -0.2800 N.2       1 ATP        -0.8094
     28 N1         -2.1051    5.1136    1.9204 N.pl3     1 ATP        -0.8312
     29 C2         -1.3354    4.2774    2.7129 C.ar      1 ATP         0.6744
     30 N3         -0.4707    3.3945    2.2944 N.2       1 ATP        -0.5937
     31 C4         -0.3734    3.3525    0.9220 C.ar      1 ATP         0.2810
     32 HOG3        8.3149    1.1649   -3.8368 H         1 ATP         0.4152
     33 HOA2        1.1181   -2.1243   -4.5108 H         1 ATP         0.4571
     34 H5'1        2.5589    0.5217   -2.5976 H         1 ATP         0.0465
     35 H5'2        1.1982   -0.4388   -1.9617 H         1 ATP         0.0465
     36 H4'         3.8044   -0.1397   -0.4040 H         1 ATP         0.1379
     37 H3'         1.6764   -1.7639    0.2728 H         1 ATP         0.1317
     38 HO3'        2.2232   -1.2979    2.3953 H         1 ATP         0.4175
     39 H2'        -0.0011    0.0027    0.0003 H         1 ATP         0.0669
     40 HO2'       -0.6141    0.5574    2.1082 H         1 ATP         0.4064
     41 H1'         1.7826    1.9024    1.6451 H         1 ATP         0.1285
     42 H8          0.7125    2.3429   -1.9292 H         1 ATP         0.2954
     43 HN62       -3.3217    6.4517    0.2629 H         1 ATP         0.4226
     44 H2         -1.5188    4.4223    3.7890 H         1 ATP         0.0826
     45 H45        -2.7470    5.7626    2.3665 H         1 ATP         0.4581
     46 H46        -1.0305    4.1680   -2.1054 H         1 ATP         0.5252
@<TRIPOS>BOND
     1    1    2 2
     2    1    3 1
     3    1    4 1
     4    1    8 1
     5    4   32 1
     6    5    6 2
     7    5    7 1
     8    5    8 1
     9    5   12 1
    10    9   10 2
    11    9   11 1
    12    9   12 1
    13    9   13 1
    14   11   33 1
    15   13   14 1
    16   14   15 1
    17   14   34 1
    18   14   35 1
    19   15   16 1
    20   15   17 1
    21   15   36 1
    22   16   21 1
    23   17   18 1
    24   17   19 1
    25   17   37 1
    26   18   38 1
    27   19   20 1
    28   19   21 1
    29   19   39 1
    30   20   40 1
    31   21   22 1
    32   21   41 1
    33   22   23 ar
    34   22   31 ar
    35   23   24 ar
    36   23   42 1
    37   24   25 ar
    38   24   46 1
    39   25   26 ar
    40   25   31 ar
    41   26   27 2
    42   26   28 ar
    43   27   43 1
    44   28   29 ar
    45   28   45 1
    46   29   30 ar
    47   29   44 1
    48   30   31 ar
@<TRIPOS>SUBSTRUCTURE
     1 ATP         1 GROUP 0 A     ****
@<TRIPOS>MOLECULE
[[[3,4-dihydroxy-5-(6-imino-7,8-dihydro-1~{H}-purin-8-ylium-9-yl)tetrahydrofuran-2-yl]methoxy-hydroxy-phosphoryl]oxy-oxido-phosphoryl] hydrogen phosphate
   46    48     1     0     0
SMALL
USER_CHARGES

@<TRIPOS>ATOM
      1 PG         -2.5900   -4.7512    6.3213 P.3       1 ATP         1.5644
      2 O1G        -1.6427   -4.1491    5.3075 O.co2     1 ATP        -0.8581
      3 O2G        -2.0921   -5.2115    7.6732 O.co2     1 ATP        -0.8581
      4 O3G        -3.8311   -3.7151    6.5504 O.3       1 ATP        -0.7962
      5 PB         -4.2899   -5.9927    4.2401 P.3       1 ATP         1.6830
      6 O1B        -4.7030   -7.4195    3.9551 O.co2     1 ATP        -0.8633
      7 O2B        -5.3135   -4.8806    4.2957 O.co2     1 ATP        -0.8633
      8 O3B        -3.4147   -5.9686    5.6168 O.3       1 ATP        -0.8097
      9 PA         -1.7101   -6.2838    2.8184 P.3       1 ATP         1.7610
     10 O1A        -1.8467   -7.6794    2.2823 O.2       1 ATP        -0.8554
     11 O2A        -0.8728   -6.1797    4.1989 O.3       1 ATP        -0.8102
     12 O3A        -3.1168   -5.5743    3.1854 O.3       1 ATP        -0.7693
     13 O5'        -0.9724   -5.2440    1.8220 O.3       1 ATP        -0.5757
     14 C5'        -0.7840   -3.8935    2.2172 C.3       1 ATP         0.1911
     15 C4'        -0.0724   -3.1466    1.1027 C.3       1 ATP         0.1218
     16 O4'        -0.8674   -3.1929   -0.0945 O.3       1 ATP        -0.4138
     17 C3'         0.1338   -1.6715    1.4027 C.3       1 ATP         0.1338
     18 O3'         1.2893   -1.4445    2.1808 O.3       1 ATP        -0.5756
     19 C2'         0.2158   -1.0724    0.0128 C.3       1 ATP         0.0673
     20 O2'         1.5141   -1.2448   -0.5513 O.3       1 ATP        -0.5671
     21 C1'        -0.7897   -1.9176   -0.7583 C.3       1 ATP         0.3795
     22 N9         -2.1040   -1.3333   -0.7704 N.pl3     1 ATP        -0.4175
     23 C8         -3.0590   -1.5123    0.1363 C.ar      1 ATP         0.2552
     24 N7         -4.1655   -0.8354   -0.1554 N.pl3     1 ATP        -0.4731
     25 C5         -3.8852   -0.1874   -1.3253 C.ar      1 ATP        -0.1295
     26 C6         -4.7113    0.7160   -2.1458 C.ar      1 ATP         0.7196
     27 N6         -5.9213    1.0209   -1.8021 N.2       1 ATP        -0.8094
     28 N1         -4.0411    1.1673   -3.2764 N.pl3     1 ATP        -0.8312
     29 C2         -2.7403    0.7865   -3.5638 C.ar      1 ATP         0.6744
     30 N3         -1.9921   -0.0108   -2.8519 N.2       1 ATP        -0.5937
     31 C4         -2.6302   -0.4747   -1.7239 C.ar      1 ATP         0.2810
     32 HOG3       -4.5361   -3.9646    7.1853 H         1 ATP         0.4152
     33 HOA2        0.0586   -6.4873    4.2129 H         1 ATP         0.4571
     34 H5'1       -1.7618   -3.4448    2.4164 H         1 ATP         0.0465
     35 H5'2       -0.1874   -3.8744    3.1341 H         1 ATP         0.0465
     36 H4'         0.8874   -3.6466    0.8805 H         1 ATP         0.1379
     37 H3'        -0.7376   -1.2333    1.9867 H         1 ATP         0.1317
     38 HO3'        1.3408   -0.4870    2.3219 H         1 ATP         0.4175
     39 H2'        -0.0384   -0.0310    0.0096 H         1 ATP         0.0669
     40 HO2'        2.1463   -0.7958    0.0370 H         1 ATP         0.4064
     41 H1'        -0.4769   -2.1002   -1.8093 H         1 ATP         0.1285
     42 H8         -2.9569   -2.1323    1.0098 H         1 ATP         0.2954
     43 HN62       -6.3169    1.6552   -2.5012 H         1 ATP         0.4226
     44 H2         -2.3612    1.2343   -4.4957 H         1 ATP         0.0826
     45 H45        -4.5223    1.7976   -3.9117 H         1 ATP         0.4581
     46 H46        -5.0218   -0.8132    0.3804 H         1 ATP         0.5252
@<TRIPOS>BOND
     1    1    2 2
     2    1    3 1
     3    1    4 1
     4    1    8 1
     5    4   32 1
     6    5    6 2
     7    5    7 1
     8    5    8 1
     9    5   12 1
    10    9   10 2
    11    9   11 1
    12    9   12 1
    13    9   13 1
    14   11   33 1
    15   13   14 1
    16   14   15 1
    17   14   34 1
    18   14   35 1
    19   15   16 1
    20   15   17 1
    21   15   36 1
    22   16   21 1
    23   17   18 1
    24   17   19 1
    25   17   37 1
    26   18   38 1
    27   19   20 1
    28   19   21 1
    29   19   39 1
    30   20   40 1
    31   21   22 1
    32   21   41 1
    33   22   23 ar
    34   22   31 ar
    35   23   24 ar
    36   23   42 1
    37   24   25 ar
    38   24   46 1
    39   25   26 ar
    40   25   31 ar
    41   26   27 2
    42   26   28 ar
    43   27   43 1
    44   28   29 ar
    45   28   45 1
    46   29   30 ar
    47   29   44 1
    48   30   31 ar
@<TRIPOS>SUBSTRUCTURE
     1 ATP         1 GROUP 0 A     ****
@<TRIPOS>MOLECULE
[[[3,4-dihydroxy-5-(6-imino-7,8-dihydro-1~{H}-purin-8-ylium-9-yl)tetrahydrofuran-2-yl]methoxy-hydroxy-phosphoryl]oxy-oxido-phosphoryl] hydrogen phosphate
   46    48     1     0     0
SMALL
USER_CHARGES

@<TRIPOS>ATOM
      1 PG         -1.3194    4.4472   -4.2960 P.3       1 ATP         1.5644
      2 O1G        -2.5959    3.6364   -4.3250 O.co2     1 ATP        -0.8581
      3 O2G        -0.9862    5.4129   -5.4112 O.co2     1 ATP        -0.8581
      4 O3G        -1.2470    5.2494   -2.8756 O.3       1 ATP        -0.7962
      5 PB          0.5575    2.2851   -5.0477 P.3       1 ATP         1.6830
      6 O1B        -0.4576    1.1714   -5.1781 O.co2     1 ATP        -0.8633
      7 O2B         1.1494    2.9483   -6.2714 O.co2     1 ATP        -0.8633
      8 O3B        -0.0575    3.4392   -4.0721 O.3       1 ATP        -0.8097
      9 PA          2.8900    0.6162   -4.3161 P.3       1 ATP         1.7610
     10 O1A         4.0478    1.0418   -5.1716 O.2       1 ATP        -0.8554
     11 O2A         2.0339   -0.6169   -4.9198 O.3       1 ATP        -0.8102
     12 O3A         1.7740    1.7656   -4.0918 O.3       1 ATP        -0.7693
     13 O5'         3.2903    0.1346   -2.8241 O.3       1 ATP        -0.5757
     14 C5'         2.2816   -0.2918   -1.9206 C.3       1 ATP         0.1911
     15 C4'         2.7248    0.0226   -0.4980 C.3       1 ATP         0.1218
     16 O4'         2.4697    1.4219   -0.2462 O.3       1 ATP        -0.4138
     17 C3'         1.9404   -0.7419    0.5596 C.3       1 ATP         0.1338
     18 O3'         2.7418   -0.8086    1.7389 O.3       1 ATP        -0.5756
     19 C2'         0.7477    0.1630    0.7858 C.3       1 ATP         0.0673
     20 O2'         0.1373   -0.0577    2.0407 O.3       1 ATP        -0.5671
     21 C1'         1.3733    1.5427    0.6747 C.3       1 ATP         0.3795
     22 N9          0.4520    2.5240    0.1767 N.pl3     1 ATP        -0.4175
     23 C8         -0.2004    2.4829   -0.9804 C.ar      1 ATP         0.2552
     24 N7         -0.9830    3.5431   -1.1568 N.pl3     1 ATP        -0.4731
     25 C5         -0.8095    4.3012   -0.0331 C.ar      1 ATP        -0.1295
     26 C6         -1.4065    5.5904    0.3585 C.ar      1 ATP         0.7196
     27 N6         -2.2501    6.2030   -0.4084 N.2       1 ATP        -0.8094
     28 N1         -0.9585    6.0272    1.5994 N.pl3     1 ATP        -0.8312
     29 C2         -0.0508    5.3009    2.3532 C.ar      1 ATP         0.6744
     30 N3          0.4890    4.1592    2.0257 N.2       1 ATP        -0.5937
     31 C4          0.0637    3.7006    0.7995 C.ar      1 ATP         0.2810
     32 HOG3       -0.4711    5.8245   -2.7035 H         1 ATP         0.4152
     33 HOA2        1.6031   -0.5116   -5.7948 H         1 ATP         0.4571
     34 H5'1        1.3514    0.2330   -2.1577 H         1 ATP         0.0465
     35 H5'2        2.1280   -1.3678   -2.0460 H         1 ATP         0.0465
     36 H4'         3.8044   -0.1397   -0.4040 H         1 ATP         0.1379
     37 H3'         1.6764   -1.7639    0.2728 H         1 ATP         0.1317
     38 HO3'        2.2232   -1.2979    2.3953 H         1 ATP         0.4175
     39 H2'        -0.0011    0.0027    0.0003 H         1 ATP         0.0669
     40 HO2'       -0.6141    0.5574    2.1082 H         1 ATP         0.4064
     41 H1'         1.7826    1.9024    1.6451 H         1 ATP         0.1285
     42 H8         -0.1116    1.6863   -1.6984 H         1 ATP         0.2954
     43 HN62       -2.5420    7.0730    0.0447 H         1 ATP         0.4226
     44 H2          0.1969    5.7893    3.3086 H         1 ATP         0.0826
     45 H45        -1.3097    6.9080    1.9642 H         1 ATP         0.4581
     46 H46        -1.5735    3.7351   -1.9538 H         1 ATP         0.5252
@<TRIPOS>BOND
     1    1    2 2
     2    1    3 1
     3    1    4 1
     4    1    8 1
     5    4   32 1
     6    5    6 2
     7    5    7 1
     8    5    8 1
     9    5   12 1
    10    9   10 2
    11    9   11 1
    12    9   12 1
    13    9   13 1
    14   11   33 1
    15   13   14 1
    16   14   15 1
    17   14   34 1
    18   14   35 1
    19   15   16 1
    20   15   17 1
    21   15   36 1
    22   16   21 1
    23   17   18 1
    24   17   19 1
    25   17   37 1
    26   18   38 1
    27   19   20 1
    28   19   21 1
    29   19   39 1
    30   20   40 1
    31   21   22 1
    32   21   41 1
    33   22   23 ar
    34   22   31 ar
    35   23   24 ar
    36   23   42 1
    37   24   25 ar
    38   24   46 1
    39   25   26 ar
    40   25   31 ar
    41   26   27 2
    42   26   28 ar
    43   27   43 1
    44   28   29 ar
    45   28   45 1
    46   29   30 ar
    47   29   44 1
    48   30   31 ar
@<TRIPOS>SUBSTRUCTURE
     1 ATP         1 GROUP 0 A     ****
@<TRIPOS>MOLECULE
[[[3,4-dihydroxy-5-(6-imino-7,8-dihydro-1~{H}-purin-8-ylium-9-yl)tetrahydrofuran-2-yl]methoxy-hydroxy-phosphoryl]oxy-oxido-phosphoryl] hydrogen phosphate
   46    48     1     0     0
SMALL
USER_CHARGES

@<TRIPOS>ATOM
      1 PG         -1.9965   -0.9005   -3.6296 P.3       1 ATP         1.5644
      2 O1G        -1.0108   -0.5776   -2.5289 O.co2     1 ATP        -0.8581
      3 O2G        -3.3238   -1.5550   -3.3175 O.co2     1 ATP        -0.8581
      4 O3G        -2.2776    0.4591   -4.4891 O.3       1 ATP        -0.7962
      5 PB          0.1382   -1.4527   -5.6045 P.3       1 ATP         1.6830
      6 O1B         0.4903   -2.6648   -6.4379 O.co2     1 ATP        -0.8633
      7 O2B         0.0273   -0.0806   -6.2314 O.co2     1 ATP        -0.8633
      8 O3B        -1.2362   -1.7662   -4.7833 O.3       1 ATP        -0.8097
      9 PA          1.5776   -2.4676   -3.2256 P.3       1 ATP         1.7610
     10 O1A         2.1795   -3.7248   -3.7832 O.2       1 ATP        -0.8554
     11 O2A         0.1953   -2.6937   -2.4155 O.3       1 ATP        -0.8102
     12 O3A         1.1741   -1.3727   -4.3459 O.3       1 ATP        -0.7693
     13 O5'         2.5245   -1.6648   -2.1878 O.3       1 ATP        -0.5757
     14 C5'         2.2816   -0.2918   -1.9206 C.3       1 ATP         0.1911
     15 C4'         2.7248    0.0226   -0.4980 C.3       1 ATP         0.1218
     16 O4'         2.4697    1.4219   -0.2462 O.3       1 ATP        -0.4138
     17 C3'         1.9404   -0.7419    0.5596 C.3       1 ATP         0.1338
     18 O3'         2.7418   -0.8086    1.7389 O.3       1 ATP        -0.5756
     19 C2'         0.7477    0.1630    0.7858 C.3       1 ATP         0.0673
     20 O2'         0.1373   -0.0577    2.0407 O.3       1 ATP        -0.5671
     21 C1'         1.3733    1.5427    0.6747 C.3       1 ATP         0.3795
     22 N9          0.4520    2.5240    0.1767 N.pl3     1 ATP        -0.4175
     23 C8          0.2216    2.8192   -1.0985 C.ar      1 ATP         0.2552
     24 N7         -0.6906    3.7763   -1.2384 N.pl3     1 ATP        -0.4731
     25 C5         -1.0575    4.1037    0.0366 C.ar      1 ATP        -0.1295
     26 C6         -2.0291    5.0943    0.5330 C.ar      1 ATP         0.7196
     27 N6         -2.7093    5.8371   -0.2800 N.2       1 ATP        -0.8094
     28 N1         -2.1051    5.1136    1.9204 N.pl3     1 ATP        -0.8312
     29 C2         -1.3354    4.2774    2.7129 C.ar      1 ATP         0.6744
     30 N3         -0.4707    3.3945    2.2944 N.2       1 ATP        -0.5937
     31 C4         -0.3734    3.3525    0.9220 C.ar      1 ATP         0.2810
     32 HOG3       -1.5202    0.8936   -4.9362 H         1 ATP         0.4152
     33 HOA2       -0.5709   -3.0865   -2.8854 H         1 ATP         0.4571
     34 H5'1        2.8432    0.3119   -2.6398 H         1 ATP         0.0465
     35 H5'2        1.2128   -0.0927   -2.0428 H         1 ATP         0.0465
     36 H4'         3.8044   -0.1397   -0.4040 H         1 ATP         0.1379
     37 H3'         1.6764   -1.7639    0.2728 H         1 ATP         0.1317
     38 HO3'        2.2232   -1.2979    2.3953 H         1 ATP         0.4175
     39 H2'        -0.0011    0.0027    0.0003 H         1 ATP         0.0669
     40 HO2'       -0.1563   -0.9855    2.0596 H         1 ATP         0.4064
     41 H1'         1.7826    1.9024    1.6451 H         1 ATP         0.1285
     42 H8          0.7125    2.3429   -1.9292 H         1 ATP         0.2954
     43 HN62       -3.3217    6.4517    0.2629 H         1 ATP         0.4226
     44 H2         -1.5188    4.4223    3.7890 H         1 ATP         0.0826
     45 H45        -2.7470    5.7626    2.3665 H         1 ATP         0.4581
     46 H46        -1.0305    4.1680   -2.1054 H         1 ATP         0.5252
@<TRIPOS>BOND
     1    1    2 2
     2    1    3 1
     3    1    4 1
     4    1    8 1
     5    4   32 1
     6    5    6 2
     7    5    7 1
     8    5    8 1
     9    5   12 1
    10    9   10 2
    11    9   11 1
    12    9   12 1
    13    9   13 1
    14   11   33 1
    15   13   14 1
    16   14   15 1
    17   14   34 1
    18   14   35 1
    19   15   16 1
    20   15   17 1
    21   15   36 1
    22   16   21 1
    23   17   18 1
    24   17   19 1
    25   17   37 1
    26   18   38 1
    27   19   20 1
    28   19   21 1
    29   19   39 1
    30   20   40 1
    31   21   22 1
    32   21   41 1
    33   22   23 ar
    34   22   31 ar
    35   23   24 ar
    36   23   42 1
    37   24   25 ar
    38   24   46 1
    39   25   26 ar
    40   25   31 ar
    41   26   27 2
    42   26   28 ar
    43   27   43 1
    44   28   29 ar
    45   28   45 1
    46   29   30 ar
    47   29   44 1
    48   30   31 ar
@<TRIPOS>SUBSTRUCTURE
     1 ATP         1 GROUP 0 A     ****
@<TRIPOS>MOLECULE
[[[3,4-dihydroxy-5-(6-imino-7,8-dihydro-1~{H}-purin-8-ylium-9-yl)tetrahydrofuran-2-yl]methoxy-hydroxy-phosphoryl]oxy-oxido-phosphoryl] hydrogen phosphate
   46    48     1     0     0
SMALL
USER_CHARGES

@<TRIPOS>ATOM
      1 PG         -2.0148    0.3719   -3.8199 P.3       1 ATP         1.5644
      2 O1G        -1.1434   -0.8028   -3.4349 O.co2     1 ATP        -0.8581
      3 O2G        -3.4194    0.1608   -4.3395 O.co2     1 ATP        -0.8581
      4 O3G        -2.0782    1.4060   -2.5578 O.3       1 ATP        -0.7962
      5 PB          0.2860    1.9846   -4.7512 P.3       1 ATP         1.6830
      6 O1B         0.6329    2.6263   -6.0762 O.co2     1 ATP        -0.8633
      7 O2B         0.3645    2.7692   -3.4604 O.co2     1 ATP        -0.8633
      8 O3B        -1.1974    1.3157   -4.8685 O.3       1 ATP        -0.8097
      9 PA          2.7605    0.3953   -4.4169 P.3       1 ATP         1.7610
     10 O1A         3.6064    1.3021   -5.2629 O.2       1 ATP        -0.8554
     11 O2A         2.9475   -1.1798   -4.7368 O.3       1 ATP        -0.8102
     12 O3A         1.1682    0.6209   -4.5912 O.3       1 ATP        -0.7693
     13 O5'         3.0213    0.5153   -2.8245 O.3       1 ATP        -0.5757
     14 C5'         2.2816   -0.2918   -1.9206 C.3       1 ATP         0.1911
     15 C4'         2.7248    0.0226   -0.4980 C.3       1 ATP         0.1218
     16 O4'         2.4697    1.4219   -0.2462 O.3       1 ATP        -0.4138
     17 C3'         1.9404   -0.7419    0.5596 C.3       1 ATP         0.1338
     18 O3'         2.7418   -0.8086    1.7389 O.3       1 ATP        -0.5756
     19 C2'         0.7477    0.1630    0.7858 C.3       1 ATP         0.0673
     20 O2'         0.1373   -0.0577    2.0407 O.3       1 ATP        -0.5671
     21 C1'         1.3733    1.5427    0.6747 C.3       1 ATP         0.3795
     22 N9          0.4520    2.5240    0.1767 N.pl3     1 ATP        -0.4175
     23 C8          0.5691    3.2215   -0.9485 C.ar      1 ATP         0.2552
     24 N7         -0.4499    4.0551   -1.1342 N.pl3     1 ATP        -0.4731
     25 C5         -1.2618    3.8674   -0.0512 C.ar      1 ATP        -0.1295
     26 C6         -2.5420    4.5007    0.3120 C.ar      1 ATP         0.7196
     27 N6         -3.0874    5.3993   -0.4432 N.2       1 ATP        -0.8094
     28 N1         -3.0494    4.0205    1.5133 N.pl3     1 ATP        -0.8312
     29 C2         -2.3933    3.0527    2.2567 C.ar      1 ATP         0.6744
     30 N3         -1.2611    2.4796    1.9536 N.2       1 ATP        -0.5937
     31 C4         -0.7334    2.9358    0.7669 C.ar      1 ATP         0.2810
     32 HOG3       -2.6094    2.2253   -2.6520 H         1 ATP         0.4152
     33 HOA2        3.8352   -1.5832   -4.6298 H         1 ATP         0.4571
     34 H5'1        1.2163   -0.0770   -2.0471 H         1 ATP         0.0465
     35 H5'2        2.4655   -1.3443   -2.1563 H         1 ATP         0.0465
     36 H4'         3.8044   -0.1397   -0.4040 H         1 ATP         0.1379
     37 H3'         1.6764   -1.7639    0.2728 H         1 ATP         0.1317
     38 HO3'        3.5554   -1.2733    1.4914 H         1 ATP         0.4175
     39 H2'        -0.0011    0.0027    0.0003 H         1 ATP         0.0669
     40 HO2'        0.8082    0.1199    2.7232 H         1 ATP         0.4064
     41 H1'         1.7826    1.9024    1.6451 H         1 ATP         0.1285
     42 H8          1.3912    3.1285   -1.6365 H         1 ATP         0.2954
     43 HN62       -3.9637    5.7084   -0.0142 H         1 ATP         0.4226
     44 H2         -2.9317    2.7866    3.1796 H         1 ATP         0.0826
     45 H45        -3.9307    4.3923    1.8559 H         1 ATP         0.4581
     46 H46        -0.5835    4.6857   -1.9122 H         1 ATP         0.5252
@<TRIPOS>BOND
     1    1    2 2
     2    1    3 1
     3    1    4 1
     4    1    8 1
     5    4   32 1
     6    5    6 2
     7    5    7 1
     8    5    8 1
     9    5   12 1
    10    9   10 2
    11    9   11 1
    12    9   12 1
    13    9   13 1
    14   11   33 1
    15   13   14 1
    16   14   15 1
    17   14   34 1
    18   14   35 1
    19   15   16 1
    20   15   17 1
    21   15   36 1
    22   16   21 1
    23   17   18 1
    24   17   19 1
    25   17   37 1
    26   18   38 1
    27   19   20 1
    28   19   21 1
    29   19   39 1
    30   20   40 1
    31   21   22 1
    32   21   41 1
    33   22   23 ar
    34   22   31 ar
    35   23   24 ar
    36   23   42 1
    37   24   25 ar
    38   24   46 1
    39   25   26 ar
    40   25   31 ar
    41   26   27 2
    42   26   28 ar
    43   27   43 1
    44   28   29 ar
    45   28   45 1
    46   29   30 ar
    47   29   44 1
    48   30   31 ar
@<TRIPOS>SUBSTRUCTURE
     1 ATP         1 GROUP 0 A     ****
@<TRIPOS>MOLECULE
[[[3,4-dihydroxy-5-(6-imino-7,8-dihydro-1~{H}-purin-8-ylium-9-yl)tetrahydrofuran-2-yl]methoxy-hydroxy-phosphoryl]oxy-oxido-phosphoryl] hydrogen phosphate
   46    48     1     0     0
SMALL
USER_CHARGES

@<TRIPOS>ATOM
      1 PG          3.3123   -3.9369   -4.6122 P.3       1 ATP         1.5644
      2 O1G         3.3583   -3.1503   -3.3212 O.co2     1 ATP        -0.8581
      3 O2G         4.4610   -4.8333   -5.0179 O.co2     1 ATP        -0.8581
      4 O3G         1.9356   -4.8146   -4.6358 O.3       1 ATP        -0.7962
      5 PB          1.7546   -1.8504   -6.0202 P.3       1 ATP         1.6830
      6 O1B         2.0058   -1.0364   -7.2699 O.co2     1 ATP        -0.8633
      7 O2B         0.4419   -2.5718   -5.8099 O.co2     1 ATP        -0.8633
      8 O3B         2.9744   -2.9189   -5.8402 O.3       1 ATP        -0.8097
      9 PA          3.3429   -0.0249   -4.3155 P.3       1 ATP         1.7610
     10 O1A         3.6950    1.0438   -5.3093 O.2       1 ATP        -0.8554
     11 O2A         4.4961   -1.1389   -4.0989 O.3       1 ATP        -0.8102
     12 O3A         2.0491   -0.9069   -4.7214 O.3       1 ATP        -0.7693
     13 O5'         3.0213    0.5153   -2.8245 O.3       1 ATP        -0.5757
     14 C5'         2.2816   -0.2918   -1.9206 C.3       1 ATP         0.1911
     15 C4'         2.7248    0.0226   -0.4980 C.3       1 ATP         0.1218
     16 O4'         2.4697    1.4219   -0.2462 O.3       1 ATP        -0.4138
     17 C3'         1.9404   -0.7419    0.5596 C.3       1 ATP         0.1338
     18 O3'         2.7418   -0.8086    1.7389 O.3       1 ATP        -0.5756
     19 C2'         0.7477    0.1630    0.7858 C.3       1 ATP         0.0673
     20 O2'         0.1373   -0.0577    2.0407 O.3       1 ATP        -0.5671
     21 C1'         1.3733    1.5427    0.6747 C.3       1 ATP         0.3795
     22 N9          0.4520    2.5240    0.1767 N.pl3     1 ATP        -0.4175
     23 C8         -0.2004    2.4829   -0.9804 C.ar      1 ATP         0.2552
     24 N7         -0.9830    3.5431   -1.1568 N.pl3     1 ATP        -0.4731
     25 C5         -0.8095    4.3012   -0.0331 C.ar      1 ATP        -0.1295
     26 C6         -1.4065    5.5904    0.3585 C.ar      1 ATP         0.7196
     27 N6         -2.2501    6.2030   -0.4084 N.2       1 ATP        -0.8094
     28 N1         -0.9585    6.0272    1.5994 N.pl3     1 ATP        -0.8312
     29 C2         -0.0508    5.3009    2.3532 C.ar      1 ATP         0.6744
     30 N3          0.4890    4.1592    2.0257 N.2       1 ATP        -0.5937
     31 C4          0.0637    3.7006    0.7995 C.ar      1 ATP         0.2810
     32 HOG3        1.7581   -5.3834   -5.4151 H         1 ATP         0.4152
     33 HOA2        4.7886   -1.6741   -4.8672 H         1 ATP         0.4571
     34 H5'1        1.2163   -0.0770   -2.0471 H         1 ATP         0.0465
     35 H5'2        2.4655   -1.3443   -2.1563 H         1 ATP         0.0465
     36 H4'         3.8044   -0.1397   -0.4040 H         1 ATP         0.1379
     37 H3'         1.6764   -1.7639    0.2728 H         1 ATP         0.1317
     38 HO3'        2.2232   -1.2979    2.3953 H         1 ATP         0.4175
     39 H2'        -0.0011    0.0027    0.0003 H         1 ATP         0.0669
     40 HO2'       -0.1563   -0.9855    2.0596 H         1 ATP         0.4064
     41 H1'         1.7826    1.9024    1.6451 H         1 ATP         0.1285
     42 H8         -0.1116    1.6863   -1.6984 H         1 ATP         0.2954
     43 HN62       -2.5420    7.0730    0.0447 H         1 ATP         0.4226
     44 H2          0.1969    5.7893    3.3086 H         1 ATP         0.0826
     45 H45        -1.3097    6.9080    1.9642 H         1 ATP         0.4581
     46 H46        -1.5735    3.7351   -1.9538 H         1 ATP         0.5252
@<TRIPOS>BOND
     1    1    2 2
     2    1    3 1
     3    1    4 1
     4    1    8 1
     5    4   32 1
     6    5    6 2
     7    5    7 1
     8    5    8 1
     9    5   12 1
    10    9   10 2
    11    9   11 1
    12    9   12 1
    13    9   13 1
    14   11   33 1
    15   13   14 1
    16   14   15 1
    17   14   34 1
    18   14   35 1
    19   15   16 1
    20   15   17 1
    21   15   36 1
    22   16   21 1
    23   17   18 1
    24   17   19 1
    25   17   37 1
    26   18   38 1
    27   19   20 1
    28   19   21 1
    29   19   39 1
    30   20   40 1
    31   21   22 1
    32   21   41 1
    33   22   23 ar
    34   22   31 ar
    35   23   24 ar
    36   23   42 1
    37   24   25 ar
    38   24   46 1
    39   25   26 ar
    40   25   31 ar
    41   26   27 2
    42   26   28 ar
    43   27   43 1
    44   28   29 ar
    45   28   45 1
    46   29   30 ar
    47   29   44 1
    48   30   31 ar
@<TRIPOS>SUBSTRUCTURE
     1 ATP         1 GROUP 0 A     ****
@<TRIPOS>MOLECULE
[[[3,4-dihydroxy-5-(6-imino-7,8-dihydro-1~{H}-purin-8-ylium-9-yl)tetrahydrofuran-2-yl]methoxy-hydroxy-phosphoryl]oxy-oxido-phosphoryl] hydrogen phosphate
   46    48     1     0     0
SMALL
USER_CHARGES

@<TRIPOS>ATOM
      1 PG         -0.2458   -1.3380   -7.2410 P.3       1 ATP         1.5644
      2 O1G        -1.4485   -2.1941   -7.5696 O.co2     1 ATP        -0.8581
      3 O2G         1.1584   -1.8805   -7.3881 O.co2     1 ATP        -0.8581
      4 O3G        -0.3550    0.0554   -8.0852 O.3       1 ATP        -0.7962
      5 PB          0.4742    0.3668   -4.9307 P.3       1 ATP         1.6830
      6 O1B         0.6166    1.6035   -5.7898 O.co2     1 ATP        -0.8633
      7 O2B        -0.0346    0.4589   -3.5093 O.co2     1 ATP        -0.8633
      8 O3B        -0.4246   -0.7287   -5.7392 O.3       1 ATP        -0.8097
      9 PA          3.3429   -0.0249   -4.3155 P.3       1 ATP         1.7610
     10 O1A         4.1316    0.9232   -5.1715 O.2       1 ATP        -0.8554
     11 O2A         4.0556   -1.4579   -4.0783 O.3       1 ATP        -0.8102
     12 O3A         1.9004   -0.4266   -4.9275 O.3       1 ATP        -0.7693
     13 O5'         3.0213    0.5153   -2.8245 O.3       1 ATP        -0.5757
     14 C5'         2.2816   -0.2918   -1.9206 C.3       1 ATP         0.1911
     15 C4'         2.7248    0.0226   -0.4980 C.3       1 ATP         0.1218
     16 O4'         2.4697    1.4219   -0.2462 O.3       1 ATP        -0.4138
     17 C3'         1.9404   -0.7419    0.5596 C.3       1 ATP         0.1338
     18 O3'         2.7418   -0.8086    1.7389 O.3       1 ATP        -0.5756
     19 C2'         0.7477    0.1630    0.7858 C.3       1 ATP         0.0673
     20 O2'         0.1373   -0.0577    2.0407 O.3       1 ATP        -0.5671
     21 C1'         1.3733    1.5427    0.6747 C.3       1 ATP         0.3795
     22 N9          0.4520    2.5240    0.1767 N.pl3     1 ATP        -0.4175
     23 C8          0.2216    2.8192   -1.0985 C.ar      1 ATP         0.2552
     24 N7         -0.6906    3.7763   -1.2384 N.pl3     1 ATP        -0.4731
     25 C5         -1.0575    4.1037    0.0366 C.ar      1 ATP        -0.1295
     26 C6         -2.0291    5.0943    0.5330 C.ar      1 ATP         0.7196
     27 N6         -2.7093    5.8371   -0.2800 N.2       1 ATP        -0.8094
     28 N1         -2.1051    5.1136    1.9204 N.pl3     1 ATP        -0.8312
     29 C2         -1.3354    4.2774    2.7129 C.ar      1 ATP         0.6744
     30 N3         -0.4707    3.3945    2.2944 N.2       1 ATP        -0.5937
     31 C4         -0.3734    3.3525    0.9220 C.ar      1 ATP         0.2810
     32 HOG3        0.3568    0.7222   -7.9794 H         1 ATP         0.4152
     33 HOA2        4.2608   -2.0199   -4.8557 H         1 ATP         0.4571
     34 H5'1        1.2163   -0.0770   -2.0471 H         1 ATP         0.0465
     35 H5'2        2.4655   -1.3443   -2.1563 H         1 ATP         0.0465
     36 H4'         3.8044   -0.1397   -0.4040 H         1 ATP         0.1379
     37 H3'         1.6764   -1.7639    0.2728 H         1 ATP         0.1317
     38 HO3'        3.5554   -1.2733    1.4914 H         1 ATP         0.4175
     39 H2'        -0.0011    0.0027    0.0003 H         1 ATP         0.0669
     40 HO2'       -0.6141    0.5574    2.1082 H         1 ATP         0.4064
     41 H1'         1.7826    1.9024    1.6451 H         1 ATP         0.1285
     42 H8          0.7125    2.3429   -1.9292 H         1 ATP         0.2954
     43 HN62       -3.3217    6.4517    0.2629 H         1 ATP         0.4226
     44 H2         -1.5188    4.4223    3.7890 H         1 ATP         0.0826
     45 H45        -2.7470    5.7626    2.3665 H         1 ATP         0.4581
     46 H46        -1.0305    4.1680   -2.1054 H         1 ATP         0.5252
@<TRIPOS>BOND
     1    1    2 2
     2    1    3 1
     3    1    4 1
     4    1    8 1
     5    4   32 1
     6    5    6 2
     7    5    7 1
     8    5    8 1
     9    5   12 1
    10    9   10 2
    11    9   11 1
    12    9   12 1
    13    9   13 1
    14   11   33 1
    15   13   14 1
    16   14   15 1
    17   14   34 1
    18   14   35 1
    19   15   16 1
    20   15   17 1
    21   15   36 1
    22   16   21 1
    23   17   18 1
    24   17   19 1
    25   17   37 1
    26   18   38 1
    27   19   20 1
    28   19   21 1
    29   19   39 1
    30   20   40 1
    31   21   22 1
    32   21   41 1
    33   22   23 ar
    34   22   31 ar
    35   23   24 ar
    36   23   42 1
    37   24   25 ar
    38   24   46 1
    39   25   26 ar
    40   25   31 ar
    41   26   27 2
    42   26   28 ar
    43   27   43 1
    44   28   29 ar
    45   28   45 1
    46   29   30 ar
    47   29   44 1
    48   30   31 ar
@<TRIPOS>SUBSTRUCTURE
     1 ATP         1 GROUP 0 A     ****
@<TRIPOS>MOLECULE
[[[3,4-dihydroxy-5-(6-imino-7,8-dihydro-1~{H}-purin-8-ylium-9-yl)tetrahydrofuran-2-yl]methoxy-hydroxy-phosphoryl]oxy-oxido-phosphoryl] hydrogen phosphate
   46    48     1     0     0
SMALL
USER_CHARGES

@<TRIPOS>ATOM
      1 PG         -0.9108    4.8528   -4.3419 P.3       1 ATP         1.5644
      2 O1G        -1.5205    5.2600   -3.0190 O.co2     1 ATP        -0.8581
      3 O2G        -1.7837    4.5375   -5.5361 O.co2     1 ATP        -0.8581
      4 O3G         0.1798    5.9860   -4.7808 O.3       1 ATP        -0.7962
      5 PB          1.1513    2.8747   -5.1144 P.3       1 ATP         1.6830
      6 O1B         0.3517    2.1517   -6.1753 O.co2     1 ATP        -0.8633
      7 O2B         2.2401    3.8548   -5.4909 O.co2     1 ATP        -0.8633
      8 O3B         0.1149    3.6103   -4.0915 O.3       1 ATP        -0.8097
      9 PA          2.8900    0.6162   -4.3161 P.3       1 ATP         1.7610
     10 O1A         4.0478    1.0418   -5.1716 O.2       1 ATP        -0.8554
     11 O2A         2.0339   -0.6169   -4.9198 O.3       1 ATP        -0.8102
     12 O3A         1.7740    1.7656   -4.0918 O.3       1 ATP        -0.7693
     13 O5'         3.2903    0.1346   -2.8241 O.3       1 ATP        -0.5757
     14 C5'         2.2816   -0.2918   -1.9206 C.3       1 ATP         0.1911
     15 C4'         2.7248    0.0226   -0.4980 C.3       1 ATP         0.1218
     16 O4'         2.4697    1.4219   -0.2462 O.3       1 ATP        -0.4138
     17 C3'         1.9404   -0.7419    0.5596 C.3       1 ATP         0.1338
     18 O3'         2.7418   -0.8086    1.7389 O.3       1 ATP        -0.5756
     19 C2'         0.7477    0.1630    0.7858 C.3       1 ATP         0.0673
     20 O2'         0.1373   -0.0577    2.0407 O.3       1 ATP        -0.5671
     21 C1'         1.3733    1.5427    0.6747 C.3       1 ATP         0.3795
     22 N9          0.4520    2.5240    0.1767 N.pl3     1 ATP        -0.4175
     23 C8          0.5691    3.2215   -0.9485 C.ar      1 ATP         0.2552
     24 N7         -0.4499    4.0551   -1.1342 N.pl3     1 ATP        -0.4731
     25 C5         -1.2618    3.8674   -0.0512 C.ar      1 ATP        -0.1295
     26 C6         -2.5420    4.5007    0.3120 C.ar      1 ATP         0.7196
     27 N6         -3.0874    5.3993   -0.4432 N.2       1 ATP        -0.8094
     28 N1         -3.0494    4.0205    1.5133 N.pl3     1 ATP        -0.8312
     29 C2         -2.3933    3.0527    2.2567 C.ar      1 ATP         0.6744
     30 N3         -1.2611    2.4796    1.9536 N.2       1 ATP        -0.5937
     31 C4         -0.7334    2.9358    0.7669 C.ar      1 ATP         0.2810
     32 HOG3        0.6654    5.8644   -5.6245 H         1 ATP         0.4152
     33 HOA2        2.4845   -1.4733   -5.0803 H         1 ATP         0.4571
     34 H5'1        1.3514    0.2330   -2.1577 H         1 ATP         0.0465
     35 H5'2        2.1280   -1.3678   -2.0460 H         1 ATP         0.0465
     36 H4'         3.8044   -0.1397   -0.4040 H         1 ATP         0.1379
     37 H3'         1.6764   -1.7639    0.2728 H         1 ATP         0.1317
     38 HO3'        3.5554   -1.2733    1.4914 H         1 ATP         0.4175
     39 H2'        -0.0011    0.0027    0.0003 H         1 ATP         0.0669
     40 HO2'       -0.1563   -0.9855    2.0596 H         1 ATP         0.4064
     41 H1'         1.7826    1.9024    1.6451 H         1 ATP         0.1285
     42 H8          1.3912    3.1285   -1.6365 H         1 ATP         0.2954
     43 HN62       -3.9637    5.7084   -0.0142 H         1 ATP         0.4226
     44 H2         -2.9317    2.7866    3.1796 H         1 ATP         0.0826
     45 H45        -3.9307    4.3923    1.8559 H         1 ATP         0.4581
     46 H46        -0.5835    4.6857   -1.9122 H         1 ATP         0.5252
@<TRIPOS>BOND
     1    1    2 2
     2    1    3 1
     3    1    4 1
     4    1    8 1
     5    4   32 1
     6    5    6 2
     7    5    7 1
     8    5    8 1
     9    5   12 1
    10    9   10 2
    11    9   11 1
    12    9   12 1
    13    9   13 1
    14   11   33 1
    15   13   14 1
    16   14   15 1
    17   14   34 1
    18   14   35 1
    19   15   16 1
    20   15   17 1
    21   15   36 1
    22   16   21 1
    23   17   18 1
    24   17   19 1
    25   17   37 1
    26   18   38 1
    27   19   20 1
    28   19   21 1
    29   19   39 1
    30   20   40 1
    31   21   22 1
    32   21   41 1
    33   22   23 ar
    34   22   31 ar
    35   23   24 ar
    36   23   42 1
    37   24   25 ar
    38   24   46 1
    39   25   26 ar
    40   25   31 ar
    41   26   27 2
    42   26   28 ar
    43   27   43 1
    44   28   29 ar
    45   28   45 1
    46   29   30 ar
    47   29   44 1
    48   30   31 ar
@<TRIPOS>SUBSTRUCTURE
     1 ATP         1 GROUP 0 A     ****
@<TRIPOS>MOLECULE
[[[3,4-dihydroxy-5-(6-imino-7,8-dihydro-1~{H}-purin-8-ylium-9-yl)tetrahydrofuran-2-yl]methoxy-hydroxy-phosphoryl]oxy-oxido-phosphoryl] hydrogen phosphate
   46    48     1     0     0
SMALL
USER_CHARGES

@<TRIPOS>ATOM
      1 PG         -2.0148    0.3719   -3.8199 P.3       1 ATP         1.5644
      2 O1G        -2.3582    1.1857   -2.5922 O.co2     1 ATP        -0.8581
      3 O2G        -1.3046   -0.9578   -3.6977 O.co2     1 ATP        -0.8581
      4 O3G        -3.3759    0.1549   -4.6954 O.3       1 ATP        -0.7962
      5 PB          0.2860    1.9846   -4.7512 P.3       1 ATP         1.6830
      6 O1B         0.6329    2.6263   -6.0762 O.co2     1 ATP        -0.8633
      7 O2B         0.3645    2.7692   -3.4604 O.co2     1 ATP        -0.8633
      8 O3B        -1.1974    1.3157   -4.8685 O.3       1 ATP        -0.8097
      9 PA          2.7605    0.3953   -4.4169 P.3       1 ATP         1.7610
     10 O1A         3.6064    1.3021   -5.2629 O.2       1 ATP        -0.8554
     11 O2A         2.9475   -1.1798   -4.7368 O.3       1 ATP        -0.8102
     12 O3A         1.1682    0.6209   -4.5912 O.3       1 ATP        -0.7693
     13 O5'         3.0213    0.5153   -2.8245 O.3       1 ATP        -0.5757
     14 C5'         2.2816   -0.2918   -1.9206 C.3       1 ATP         0.1911
     15 C4'         2.7248    0.0226   -0.4980 C.3       1 ATP         0.1218
     16 O4'         2.4697    1.4219   -0.2462 O.3       1 ATP        -0.4138
     17 C3'         1.9404   -0.7419    0.5596 C.3       1 ATP         0.1338
     18 O3'         2.7418   -0.8086    1.7389 O.3       1 ATP        -0.5756
     19 C2'         0.7477    0.1630    0.7858 C.3       1 ATP         0.0673
     20 O2'         0.1373   -0.0577    2.0407 O.3       1 ATP        -0.5671
     21 C1'         1.3733    1.5427    0.6747 C.3       1 ATP         0.3795
     22 N9          0.4520    2.5240    0.1767 N.pl3     1 ATP        -0.4175
     23 C8         -0.2004    2.4829   -0.9804 C.ar      1 ATP         0.2552
     24 N7         -0.9830    3.5431   -1.1568 N.pl3     1 ATP        -0.4731
     25 C5         -0.8095    4.3012   -0.0331 C.ar      1 ATP        -0.1295
     26 C6         -1.4065    5.5904    0.3585 C.ar      1 ATP         0.7196
     27 N6         -2.2501    6.2030   -0.4084 N.2       1 ATP        -0.8094
     28 N1         -0.9585    6.0272    1.5994 N.pl3     1 ATP        -0.8312
     29 C2         -0.0508    5.3009    2.3532 C.ar      1 ATP         0.6744
     30 N3          0.4890    4.1592    2.0257 N.2       1 ATP        -0.5937
     31 C4          0.0637    3.7006    0.7995 C.ar      1 ATP         0.2810
     32 HOG3       -3.3175   -0.3583   -5.5294 H         1 ATP         0.4152
     33 HOA2        2.7451   -1.5077   -5.6388 H         1 ATP         0.4571
     34 H5'1        1.2163   -0.0770   -2.0471 H         1 ATP         0.0465
     35 H5'2        2.4655   -1.3443   -2.1563 H         1 ATP         0.0465
     36 H4'         3.8044   -0.1397   -0.4040 H         1 ATP         0.1379
     37 H3'         1.6764   -1.7639    0.2728 H         1 ATP         0.1317
     38 HO3'        3.5554   -1.2733    1.4914 H         1 ATP         0.4175
     39 H2'        -0.0011    0.0027    0.0003 H         1 ATP         0.0669
     40 HO2'       -0.1563   -0.9855    2.0596 H         1 ATP         0.4064
     41 H1'         1.7826    1.9024    1.6451 H         1 ATP         0.1285
     42 H8         -0.1116    1.6863   -1.6984 H         1 ATP         0.2954
     43 HN62       -2.5420    7.0730    0.0447 H         1 ATP         0.4226
     44 H2          0.1969    5.7893    3.3086 H         1 ATP         0.0826
     45 H45        -1.3097    6.9080    1.9642 H         1 ATP         0.4581
     46 H46        -1.5735    3.7351   -1.9538 H         1 ATP         0.5252
@<TRIPOS>BOND
     1    1    2 2
     2    1    3 1
     3    1    4 1
     4    1    8 1
     5    4   32 1
     6    5    6 2
     7    5    7 1
     8    5    8 1
     9    5   12 1
    10    9   10 2
    11    9   11 1
    12    9   12 1
    13    9   13 1
    14   11   33 1
    15   13   14 1
    16   14   15 1
    17   14   34 1
    18   14   35 1
    19   15   16 1
    20   15   17 1
    21   15   36 1
    22   16   21 1
    23   17   18 1
    24   17   19 1
    25   17   37 1
    26   18   38 1
    27   19   20 1
    28   19   21 1
    29   19   39 1
    30   20   40 1
    31   21   22 1
    32   21   41 1
    33   22   23 ar
    34   22   31 ar
    35   23   24 ar
    36   23   42 1
    37   24   25 ar
    38   24   46 1
    39   25   26 ar
    40   25   31 ar
    41   26   27 2
    42   26   28 ar
    43   27   43 1
    44   28   29 ar
    45   28   45 1
    46   29   30 ar
    47   29   44 1
    48   30   31 ar
@<TRIPOS>SUBSTRUCTURE
     1 ATP         1 GROUP 0 A     ****
@<TRIPOS>MOLECULE
[[[3,4-dihydroxy-5-(6-imino-7,8-dihydro-1~{H}-purin-8-ylium-9-yl)tetrahydrofuran-2-yl]methoxy-hydroxy-phosphoryl]oxy-oxido-phosphoryl] hydrogen phosphate
   46    48     1     0     0
SMALL
USER_CHARGES

@<TRIPOS>ATOM
      1 PG          0.0735    3.0295   -6.1603 P.3       1 ATP         1.5644
      2 O1G         0.9310    3.9099   -7.0418 O.co2     1 ATP        -0.8581
      3 O2G        -0.6103    3.5888   -4.9327 O.co2     1 ATP        -0.8581
      4 O3G        -1.0503    2.2994   -7.0932 O.3       1 ATP        -0.7962
      5 PB          0.4742    0.3668   -4.9307 P.3       1 ATP         1.6830
      6 O1B         0.1353    0.7478   -3.5067 O.co2     1 ATP        -0.8633
      7 O2B        -0.5078   -0.4009   -5.7875 O.co2     1 ATP        -0.8633
      8 O3B         0.9324    1.7104   -5.7347 O.3       1 ATP        -0.8097
      9 PA          3.3429   -0.0249   -4.3155 P.3       1 ATP         1.7610
     10 O1A         4.1316    0.9232   -5.1715 O.2       1 ATP        -0.8554
     11 O2A         4.0556   -1.4579   -4.0783 O.3       1 ATP        -0.8102
     12 O3A         1.9004   -0.4266   -4.9275 O.3       1 ATP        -0.7693
     13 O5'         3.0213    0.5153   -2.8245 O.3       1 ATP        -0.5757
     14 C5'         2.2816   -0.2918   -1.9206 C.3       1 ATP         0.1911
     15 C4'         2.7248    0.0226   -0.4980 C.3       1 ATP         0.1218
     16 O4'         2.4697    1.4219   -0.2462 O.3       1 ATP        -0.4138
     17 C3'         1.9404   -0.7419    0.5596 C.3       1 ATP         0.1338
     18 O3'         2.7418   -0.8086    1.7389 O.3       1 ATP        -0.5756
     19 C2'         0.7477    0.1630    0.7858 C.3       1 ATP         0.0673
     20 O2'         0.1373   -0.0577    2.0407 O.3       1 ATP        -0.5671
     21 C1'         1.3733    1.5427    0.6747 C.3       1 ATP         0.3795
     22 N9          0.4520    2.5240    0.1767 N.pl3     1 ATP        -0.4175
     23 C8          0.2216    2.8192   -1.0985 C.ar      1 ATP         0.2552
     24 N7         -0.6906    3.7763   -1.2384 N.pl3     1 ATP        -0.4731
     25 C5         -1.0575    4.1037    0.0366 C.ar      1 ATP        -0.1295
     26 C6         -2.0291    5.0943    0.5330 C.ar      1 ATP         0.7196
     27 N6         -2.7093    5.8371   -0.2800 N.2       1 ATP        -0.8094
     28 N1         -2.1051    5.1136    1.9204 N.pl3     1 ATP        -0.8312
     29 C2         -1.3354    4.2774    2.7129 C.ar      1 ATP         0.6744
     30 N3         -0.4707    3.3945    2.2944 N.2       1 ATP        -0.5937
     31 C4         -0.3734    3.3525    0.9220 C.ar      1 ATP         0.2810
     32 HOG3       -1.6886    1.6902   -6.6644 H         1 ATP         0.4152
     33 HOA2        4.9339   -1.4843   -3.6423 H         1 ATP         0.4571
     34 H5'1        1.2163   -0.0770   -2.0471 H         1 ATP         0.0465
     35 H5'2        2.4655   -1.3443   -2.1563 H         1 ATP         0.0465
     36 H4'         3.8044   -0.1397   -0.4040 H         1 ATP         0.1379
     37 H3'         1.6764   -1.7639    0.2728 H         1 ATP         0.1317
     38 HO3'        2.2232   -1.2979    2.3953 H         1 ATP         0.4175
     39 H2'        -0.0011    0.0027    0.0003 H         1 ATP         0.0669
     40 HO2'       -0.6141    0.5574    2.1082 H         1 ATP         0.4064
     41 H1'         1.7826    1.9024    1.6451 H         1 ATP         0.1285
     42 H8          0.7125    2.3429   -1.9292 H         1 ATP         0.2954
     43 HN62       -3.3217    6.4517    0.2629 H         1 ATP         0.4226
     44 H2         -1.5188    4.4223    3.7890 H         1 ATP         0.0826
     45 H45        -2.7470    5.7626    2.3665 H         1 ATP         0.4581
     46 H46        -1.0305    4.1680   -2.1054 H         1 ATP         0.5252
@<TRIPOS>BOND
     1    1    2 2
     2    1    3 1
     3    1    4 1
     4    1    8 1
     5    4   32 1
     6    5    6 2
     7    5    7 1
     8    5    8 1
     9    5   12 1
    10    9   10 2
    11    9   11 1
    12    9   12 1
    13    9   13 1
    14   11   33 1
    15   13   14 1
    16   14   15 1
    17   14   34 1
    18   14   35 1
    19   15   16 1
    20   15   17 1
    21   15   36 1
    22   16   21 1
    23   17   18 1
    24   17   19 1
    25   17   37 1
    26   18   38 1
    27   19   20 1
    28   19   21 1
    29   19   39 1
    30   20   40 1
    31   21   22 1
    32   21   41 1
    33   22   23 ar
    34   22   31 ar
    35   23   24 ar
    36   23   42 1
    37   24   25 ar
    38   24   46 1
    39   25   26 ar
    40   25   31 ar
    41   26   27 2
    42   26   28 ar
    43   27   43 1
    44   28   29 ar
    45   28   45 1
    46   29   30 ar
    47   29   44 1
    48   30   31 ar
@<TRIPOS>SUBSTRUCTURE
     1 ATP         1 GROUP 0 A     ****
@<TRIPOS>MOLECULE
[[[3,4-dihydroxy-5-(6-imino-7,8-dihydro-1~{H}-purin-8-ylium-9-yl)tetrahydrofuran-2-yl]methoxy-hydroxy-phosphoryl]oxy-oxido-phosphoryl] hydrogen phosphate
   46    48     1     0     0
SMALL
USER_CHARGES

@<TRIPOS>ATOM
      1 PG         -2.0148    0.3719   -3.8199 P.3       1 ATP         1.5644
      2 O1G        -3.2808   -0.1193   -4.4859 O.co2     1 ATP        -0.8581
      3 O2G        -2.0607    1.0579   -2.4728 O.co2     1 ATP        -0.8581
      4 O3G        -0.9587   -0.8704   -3.7340 O.3       1 ATP        -0.7962
      5 PB          0.2860    1.9846   -4.7512 P.3       1 ATP         1.6830
      6 O1B         0.6329    2.6263   -6.0762 O.co2     1 ATP        -0.8633
      7 O2B         0.3645    2.7692   -3.4604 O.co2     1 ATP        -0.8633
      8 O3B        -1.1974    1.3157   -4.8685 O.3       1 ATP        -0.8097
      9 PA          2.7605    0.3953   -4.4169 P.3       1 ATP         1.7610
     10 O1A         3.6064    1.3021   -5.2629 O.2       1 ATP        -0.8554
     11 O2A         2.9475   -1.1798   -4.7368 O.3       1 ATP        -0.8102
     12 O3A         1.1682    0.6209   -4.5912 O.3       1 ATP        -0.7693
     13 O5'         3.0213    0.5153   -2.8245 O.3       1 ATP        -0.5757
     14 C5'         2.2816   -0.2918   -1.9206 C.3       1 ATP         0.1911
     15 C4'         2.7248    0.0226   -0.4980 C.3       1 ATP         0.1218
     16 O4'         2.4697    1.4219   -0.2462 O.3       1 ATP        -0.4138
     17 C3'         1.9404   -0.7419    0.5596 C.3       1 ATP         0.1338
     18 O3'         2.7418   -0.8086    1.7389 O.3       1 ATP        -0.5756
     19 C2'         0.7477    0.1630    0.7858 C.3       1 ATP         0.0673
     20 O2'         0.1373   -0.0577    2.0407 O.3       1 ATP        -0.5671
     21 C1'         1.3733    1.5427    0.6747 C.3       1 ATP         0.3795
     22 N9          0.4520    2.5240    0.1767 N.pl3     1 ATP        -0.4175
     23 C8          0.5691    3.2215   -0.9485 C.ar      1 ATP         0.2552
     24 N7         -0.4499    4.0551   -1.1342 N.pl3     1 ATP        -0.4731
     25 C5         -1.2618    3.8674   -0.0512 C.ar      1 ATP        -0.1295
     26 C6         -2.5420    4.5007    0.3120 C.ar      1 ATP         0.7196
     27 N6         -3.0874    5.3993   -0.4432 N.2       1 ATP        -0.8094
     28 N1         -3.0494    4.0205    1.5133 N.pl3     1 ATP        -0.8312
     29 C2         -2.3933    3.0527    2.2567 C.ar      1 ATP         0.6744
     30 N3         -1.2611    2.4796    1.9536 N.2       1 ATP        -0.5937
     31 C4         -0.7334    2.9358    0.7669 C.ar      1 ATP         0.2810
     32 HOG3       -0.0820   -0.7102   -3.3239 H         1 ATP         0.4152
     33 HOA2        2.7451   -1.5077   -5.6388 H         1 ATP         0.4571
     34 H5'1        1.2163   -0.0770   -2.0471 H         1 ATP         0.0465
     35 H5'2        2.4655   -1.3443   -2.1563 H         1 ATP         0.0465
     36 H4'         3.8044   -0.1397   -0.4040 H         1 ATP         0.1379
     37 H3'         1.6764   -1.7639    0.2728 H         1 ATP         0.1317
     38 HO3'        2.2232   -1.2979    2.3953 H         1 ATP         0.4175
     39 H2'        -0.0011    0.0027    0.0003 H         1 ATP         0.0669
     40 HO2'       -0.6141    0.5574    2.1082 H         1 ATP         0.4064
     41 H1'         1.7826    1.9024    1.6451 H         1 ATP         0.1285
     42 H8          1.3912    3.1285   -1.6365 H         1 ATP         0.2954
     43 HN62       -3.9637    5.7084   -0.0142 H         1 ATP         0.4226
     44 H2         -2.9317    2.7866    3.1796 H         1 ATP         0.0826
     45 H45        -3.9307    4.3923    1.8559 H         1 ATP         0.4581
     46 H46        -0.5835    4.6857   -1.9122 H         1 ATP         0.5252
@<TRIPOS>BOND
     1    1    2 2
     2    1    3 1
     3    1    4 1
     4    1    8 1
     5    4   32 1
     6    5    6 2
     7    5    7 1
     8    5    8 1
     9    5   12 1
    10    9   10 2
    11    9   11 1
    12    9   12 1
    13    9   13 1
    14   11   33 1
    15   13   14 1
    16   14   15 1
    17   14   34 1
    18   14   35 1
    19   15   16 1
    20   15   17 1
    21   15   36 1
    22   16   21 1
    23   17   18 1
    24   17   19 1
    25   17   37 1
    26   18   38 1
    27   19   20 1
    28   19   21 1
    29   19   39 1
    30   20   40 1
    31   21   22 1
    32   21   41 1
    33   22   23 ar
    34   22   31 ar
    35   23   24 ar
    36   23   42 1
    37   24   25 ar
    38   24   46 1
    39   25   26 ar
    40   25   31 ar
    41   26   27 2
    42   26   28 ar
    43   27   43 1
    44   28   29 ar
    45   28   45 1
    46   29   30 ar
    47   29   44 1
    48   30   31 ar
@<TRIPOS>SUBSTRUCTURE
     1 ATP         1 GROUP 0 A     ****
@<TRIPOS>MOLECULE
[[[3,4-dihydroxy-5-(6-imino-7,8-dihydro-1~{H}-purin-8-ylium-9-yl)tetrahydrofuran-2-yl]methoxy-hydroxy-phosphoryl]oxy-oxido-phosphoryl] hydrogen phosphate
   46    48     1     0     0
SMALL
USER_CHARGES

@<TRIPOS>ATOM
      1 PG          4.8359    0.9457   -5.4963 P.3       1 ATP         1.5644
      2 O1G         3.6771    0.9821   -4.5250 O.co2     1 ATP        -0.8581
      3 O2G         4.6220    1.1997   -6.9718 O.co2     1 ATP        -0.8581
      4 O3G         5.9959    1.9608   -4.9576 O.3       1 ATP        -0.7962
      5 PB          6.2623   -1.1522   -3.9711 P.3       1 ATP         1.6830
      6 O1B         6.7516   -2.5389   -4.3253 O.co2     1 ATP        -0.8633
      7 O2B         7.1722   -0.1544   -3.2898 O.co2     1 ATP        -0.8633
      8 O3B         5.6375   -0.4620   -5.3108 O.3       1 ATP        -0.8097
      9 PA          3.5156   -2.0921   -3.3934 P.3       1 ATP         1.7610
     10 O1A         3.6877   -3.5728   -3.5714 O.2       1 ATP        -0.8554
     11 O2A         2.9211   -1.3302   -4.6911 O.3       1 ATP        -0.8102
     12 O3A         4.8921   -1.2960   -3.0962 O.3       1 ATP        -0.7693
     13 O5'         2.5245   -1.6648   -2.1878 O.3       1 ATP        -0.5757
     14 C5'         2.2816   -0.2918   -1.9206 C.3       1 ATP         0.1911
     15 C4'         2.7248    0.0226   -0.4980 C.3       1 ATP         0.1218
     16 O4'         2.4697    1.4219   -0.2462 O.3       1 ATP        -0.4138
     17 C3'         1.9404   -0.7419    0.5596 C.3       1 ATP         0.1338
     18 O3'         2.7418   -0.8086    1.7389 O.3       1 ATP        -0.5756
     19 C2'         0.7477    0.1630    0.7858 C.3       1 ATP         0.0673
     20 O2'         0.1373   -0.0577    2.0407 O.3       1 ATP        -0.5671
     21 C1'         1.3733    1.5427    0.6747 C.3       1 ATP         0.3795
     22 N9          0.4520    2.5240    0.1767 N.pl3     1 ATP        -0.4175
     23 C8          0.2216    2.8192   -1.0985 C.ar      1 ATP         0.2552
     24 N7         -0.6906    3.7763   -1.2384 N.pl3     1 ATP        -0.4731
     25 C5         -1.0575    4.1037    0.0366 C.ar      1 ATP        -0.1295
     26 C6         -2.0291    5.0943    0.5330 C.ar      1 ATP         0.7196
     27 N6         -2.7093    5.8371   -0.2800 N.2       1 ATP        -0.8094
     28 N1         -2.1051    5.1136    1.9204 N.pl3     1 ATP        -0.8312
     29 C2         -1.3354    4.2774    2.7129 C.ar      1 ATP         0.6744
     30 N3         -0.4707    3.3945    2.2944 N.2       1 ATP        -0.5937
     31 C4         -0.3734    3.3525    0.9220 C.ar      1 ATP         0.2810
     32 HOG3        6.8194    2.0494   -5.4833 H         1 ATP         0.4152
     33 HOA2        3.4207   -1.3697   -5.5343 H         1 ATP         0.4571
     34 H5'1        2.8432    0.3119   -2.6398 H         1 ATP         0.0465
     35 H5'2        1.2128   -0.0927   -2.0428 H         1 ATP         0.0465
     36 H4'         3.8044   -0.1397   -0.4040 H         1 ATP         0.1379
     37 H3'         1.6764   -1.7639    0.2728 H         1 ATP         0.1317
     38 HO3'        3.5554   -1.2733    1.4914 H         1 ATP         0.4175
     39 H2'        -0.0011    0.0027    0.0003 H         1 ATP         0.0669
     40 HO2'       -0.1563   -0.9855    2.0596 H         1 ATP         0.4064
     41 H1'         1.7826    1.9024    1.6451 H         1 ATP         0.1285
     42 H8          0.7125    2.3429   -1.9292 H         1 ATP         0.2954
     43 HN62       -3.3217    6.4517    0.2629 H         1 ATP         0.4226
     44 H2         -1.5188    4.4223    3.7890 H         1 ATP         0.0826
     45 H45        -2.7470    5.7626    2.3665 H         1 ATP         0.4581
     46 H46        -1.0305    4.1680   -2.1054 H         1 ATP         0.5252
@<TRIPOS>BOND
     1    1    2 2
     2    1    3 1
     3    1    4 1
     4    1    8 1
     5    4   32 1
     6    5    6 2
     7    5    7 1
     8    5    8 1
     9    5   12 1
    10    9   10 2
    11    9   11 1
    12    9   12 1
    13    9   13 1
    14   11   33 1
    15   13   14 1
    16   14   15 1
    17   14   34 1
    18   14   35 1
    19   15   16 1
    20   15   17 1
    21   15   36 1
    22   16   21 1
    23   17   18 1
    24   17   19 1
    25   17   37 1
    26   18   38 1
    27   19   20 1
    28   19   21 1
    29   19   39 1
    30   20   40 1
    31   21   22 1
    32   21   41 1
    33   22   23 ar
    34   22   31 ar
    35   23   24 ar
    36   23   42 1
    37   24   25 ar
    38   24   46 1
    39   25   26 ar
    40   25   31 ar
    41   26   27 2
    42   26   28 ar
    43   27   43 1
    44   28   29 ar
    45   28   45 1
    46   29   30 ar
    47   29   44 1
    48   30   31 ar
@<TRIPOS>SUBSTRUCTURE
     1 ATP         1 GROUP 0 A     ****
@<TRIPOS>MOLECULE
[[[3,4-dihydroxy-5-(6-imino-7,8-dihydro-1~{H}-purin-8-ylium-9-yl)tetrahydrofuran-2-yl]methoxy-hydroxy-phosphoryl]oxy-oxido-phosphoryl] hydrogen phosphate
   46    48     1     0     0
SMALL
USER_CHARGES

@<TRIPOS>ATOM
      1 PG         -0.5740    3.8968   -4.9482 P.3       1 ATP         1.5644
      2 O1G        -1.9005    4.5196   -4.5743 O.co2     1 ATP        -0.8581
      3 O2G        -0.5148    2.6168   -5.7517 O.co2     1 ATP        -0.8581
      4 O3G         0.3343    5.0252   -5.7019 O.3       1 ATP        -0.7962
      5 PB          1.8781    3.2499   -3.4214 P.3       1 ATP         1.6830
      6 O1B         2.7490    4.1144   -4.3057 O.co2     1 ATP        -0.8633
      7 O2B         2.1728    3.0978   -1.9457 O.co2     1 ATP        -0.8633
      8 O3B         0.3258    3.7192   -3.6001 O.3       1 ATP        -0.8097
      9 PA          2.8900    0.6162   -4.3161 P.3       1 ATP         1.7610
     10 O1A         4.0478    1.0418   -5.1716 O.2       1 ATP        -0.8554
     11 O2A         2.0339   -0.6169   -4.9198 O.3       1 ATP        -0.8102
     12 O3A         1.7740    1.7656   -4.0918 O.3       1 ATP        -0.7693
     13 O5'         3.2903    0.1346   -2.8241 O.3       1 ATP        -0.5757
     14 C5'         2.2816   -0.2918   -1.9206 C.3       1 ATP         0.1911
     15 C4'         2.7248    0.0226   -0.4980 C.3       1 ATP         0.1218
     16 O4'         2.4697    1.4219   -0.2462 O.3       1 ATP        -0.4138
     17 C3'         1.9404   -0.7419    0.5596 C.3       1 ATP         0.1338
     18 O3'         2.7418   -0.8086    1.7389 O.3       1 ATP        -0.5756
     19 C2'         0.7477    0.1630    0.7858 C.3       1 ATP         0.0673
     20 O2'         0.1373   -0.0577    2.0407 O.3       1 ATP        -0.5671
     21 C1'         1.3733    1.5427    0.6747 C.3       1 ATP         0.3795
     22 N9          0.4520    2.5240    0.1767 N.pl3     1 ATP        -0.4175
     23 C8         -0.2004    2.4829   -0.9804 C.ar      1 ATP         0.2552
     24 N7         -0.9830    3.5431   -1.1568 N.pl3     1 ATP        -0.4731
     25 C5         -0.8095    4.3012   -0.0331 C.ar      1 ATP        -0.1295
     26 C6         -1.4065    5.5904    0.3585 C.ar      1 ATP         0.7196
     27 N6         -2.2501    6.2030   -0.4084 N.2       1 ATP        -0.8094
     28 N1         -0.9585    6.0272    1.5994 N.pl3     1 ATP        -0.8312
     29 C2         -0.0508    5.3009    2.3532 C.ar      1 ATP         0.6744
     30 N3          0.4890    4.1592    2.0257 N.2       1 ATP        -0.5937
     31 C4          0.0637    3.7006    0.7995 C.ar      1 ATP         0.2810
     32 HOG3        1.2314    4.7734   -6.0090 H         1 ATP         0.4152
     33 HOA2        1.6031   -0.5116   -5.7948 H         1 ATP         0.4571
     34 H5'1        1.3514    0.2330   -2.1577 H         1 ATP         0.0465
     35 H5'2        2.1280   -1.3678   -2.0460 H         1 ATP         0.0465
     36 H4'         3.8044   -0.1397   -0.4040 H         1 ATP         0.1379
     37 H3'         1.6764   -1.7639    0.2728 H         1 ATP         0.1317
     38 HO3'        3.5554   -1.2733    1.4914 H         1 ATP         0.4175
     39 H2'        -0.0011    0.0027    0.0003 H         1 ATP         0.0669
     40 HO2'       -0.1563   -0.9855    2.0596 H         1 ATP         0.4064
     41 H1'         1.7826    1.9024    1.6451 H         1 ATP         0.1285
     42 H8         -0.1116    1.6863   -1.6984 H         1 ATP         0.2954
     43 HN62       -2.5420    7.0730    0.0447 H         1 ATP         0.4226
     44 H2          0.1969    5.7893    3.3086 H         1 ATP         0.0826
     45 H45        -1.3097    6.9080    1.9642 H         1 ATP         0.4581
     46 H46        -1.5735    3.7351   -1.9538 H         1 ATP         0.5252
@<TRIPOS>BOND
     1    1    2 2
     2    1    3 1
     3    1    4 1
     4    1    8 1
     5    4   32 1
     6    5    6 2
     7    5    7 1
     8    5    8 1
     9    5   12 1
    10    9   10 2
    11    9   11 1
    12    9   12 1
    13    9   13 1
    14   11   33 1
    15   13   14 1
    16   14   15 1
    17   14   34 1
    18   14   35 1
    19   15   16 1
    20   15   17 1
    21   15   36 1
    22   16   21 1
    23   17   18 1
    24   17   19 1
    25   17   37 1
    26   18   38 1
    27   19   20 1
    28   19   21 1
    29   19   39 1
    30   20   40 1
    31   21   22 1
    32   21   41 1
    33   22   23 ar
    34   22   31 ar
    35   23   24 ar
    36   23   42 1
    37   24   25 ar
    38   24   46 1
    39   25   26 ar
    40   25   31 ar
    41   26   27 2
    42   26   28 ar
    43   27   43 1
    44   28   29 ar
    45   28   45 1
    46   29   30 ar
    47   29   44 1
    48   30   31 ar
@<TRIPOS>SUBSTRUCTURE
     1 ATP         1 GROUP 0 A     ****
@<TRIPOS>MOLECULE
[[[3,4-dihydroxy-5-(6-imino-7,8-dihydro-1~{H}-purin-8-ylium-9-yl)tetrahydrofuran-2-yl]methoxy-hydroxy-phosphoryl]oxy-oxido-phosphoryl] hydrogen phosphate
   46    48     1     0     0
SMALL
USER_CHARGES

@<TRIPOS>ATOM
      1 PG          1.7973    4.4520   -3.2901 P.3       1 ATP         1.5644
      2 O1G         0.3631    4.8905   -3.0946 O.co2     1 ATP        -0.8581
      3 O2G         2.7325    5.2296   -4.1891 O.co2     1 ATP        -0.8581
      4 O3G         2.4968    4.2976   -1.8228 O.3       1 ATP        -0.7962
      5 PB          1.2852    2.1689   -5.1032 P.3       1 ATP         1.6830
      6 O1B        -0.2217    2.2871   -5.1577 O.co2     1 ATP        -0.8633
      7 O2B         2.1461    2.6311   -6.2578 O.co2     1 ATP        -0.8633
      8 O3B         1.8149    2.8836   -3.7356 O.3       1 ATP        -0.8097
      9 PA          3.0915   -0.0732   -4.4165 P.3       1 ATP         1.7610
     10 O1A         4.2296    0.4201   -5.2621 O.2       1 ATP        -0.8554
     11 O2A         2.7765   -1.6519   -4.5791 O.3       1 ATP        -0.8102
     12 O3A         1.6695    0.6231   -4.7478 O.3       1 ATP        -0.7693
     13 O5'         3.2903    0.1346   -2.8241 O.3       1 ATP        -0.5757
     14 C5'         2.2816   -0.2918   -1.9206 C.3       1 ATP         0.1911
     15 C4'         2.7248    0.0226   -0.4980 C.3       1 ATP         0.1218
     16 O4'         2.4697    1.4219   -0.2462 O.3       1 ATP        -0.4138
     17 C3'         1.9404   -0.7419    0.5596 C.3       1 ATP         0.1338
     18 O3'         2.7418   -0.8086    1.7389 O.3       1 ATP        -0.5756
     19 C2'         0.7477    0.1630    0.7858 C.3       1 ATP         0.0673
     20 O2'         0.1373   -0.0577    2.0407 O.3       1 ATP        -0.5671
     21 C1'         1.3733    1.5427    0.6747 C.3       1 ATP         0.3795
     22 N9          0.4520    2.5240    0.1767 N.pl3     1 ATP        -0.4175
     23 C8          0.2216    2.8192   -1.0985 C.ar      1 ATP         0.2552
     24 N7         -0.6906    3.7763   -1.2384 N.pl3     1 ATP        -0.4731
     25 C5         -1.0575    4.1037    0.0366 C.ar      1 ATP        -0.1295
     26 C6         -2.0291    5.0943    0.5330 C.ar      1 ATP         0.7196
     27 N6         -2.7093    5.8371   -0.2800 N.2       1 ATP        -0.8094
     28 N1         -2.1051    5.1136    1.9204 N.pl3     1 ATP        -0.8312
     29 C2         -1.3354    4.2774    2.7129 C.ar      1 ATP         0.6744
     30 N3         -0.4707    3.3945    2.2944 N.2       1 ATP        -0.5937
     31 C4         -0.3734    3.3525    0.9220 C.ar      1 ATP         0.2810
     32 HOG3        3.4359    4.0170   -1.7806 H         1 ATP         0.4152
     33 HOA2        2.5282   -1.9972   -5.4631 H         1 ATP         0.4571
     34 H5'1        1.3514    0.2330   -2.1577 H         1 ATP         0.0465
     35 H5'2        2.1280   -1.3678   -2.0460 H         1 ATP         0.0465
     36 H4'         3.8044   -0.1397   -0.4040 H         1 ATP         0.1379
     37 H3'         1.6764   -1.7639    0.2728 H         1 ATP         0.1317
     38 HO3'        3.5554   -1.2733    1.4914 H         1 ATP         0.4175
     39 H2'        -0.0011    0.0027    0.0003 H         1 ATP         0.0669
     40 HO2'       -0.6141    0.5574    2.1082 H         1 ATP         0.4064
     41 H1'         1.7826    1.9024    1.6451 H         1 ATP         0.1285
     42 H8          0.7125    2.3429   -1.9292 H         1 ATP         0.2954
     43 HN62       -3.3217    6.4517    0.2629 H         1 ATP         0.4226
     44 H2         -1.5188    4.4223    3.7890 H         1 ATP         0.0826
     45 H45        -2.7470    5.7626    2.3665 H         1 ATP         0.4581
     46 H46        -1.0305    4.1680   -2.1054 H         1 ATP         0.5252
@<TRIPOS>BOND
     1    1    2 2
     2    1    3 1
     3    1    4 1
     4    1    8 1
     5    4   32 1
     6    5    6 2
     7    5    7 1
     8    5    8 1
     9    5   12 1
    10    9   10 2
    11    9   11 1
    12    9   12 1
    13    9   13 1
    14   11   33 1
    15   13   14 1
    16   14   15 1
    17   14   34 1
    18   14   35 1
    19   15   16 1
    20   15   17 1
    21   15   36 1
    22   16   21 1
    23   17   18 1
    24   17   19 1
    25   17   37 1
    26   18   38 1
    27   19   20 1
    28   19   21 1
    29   19   39 1
    30   20   40 1
    31   21   22 1
    32   21   41 1
    33   22   23 ar
    34   22   31 ar
    35   23   24 ar
    36   23   42 1
    37   24   25 ar
    38   24   46 1
    39   25   26 ar
    40   25   31 ar
    41   26   27 2
    42   26   28 ar
    43   27   43 1
    44   28   29 ar
    45   28   45 1
    46   29   30 ar
    47   29   44 1
    48   30   31 ar
@<TRIPOS>SUBSTRUCTURE
     1 ATP         1 GROUP 0 A     ****
@<TRIPOS>MOLECULE
[[[3,4-dihydroxy-5-(6-imino-7,8-dihydro-1~{H}-purin-8-ylium-9-yl)tetrahydrofuran-2-yl]methoxy-hydroxy-phosphoryl]oxy-oxido-phosphoryl] hydrogen phosphate
   46    48     1     0     0
SMALL
USER_CHARGES

@<TRIPOS>ATOM
      1 PG         -1.9965   -0.9005   -3.6296 P.3       1 ATP         1.5644
      2 O1G        -2.5243    0.3774   -4.2429 O.co2     1 ATP        -0.8581
      3 O2G        -1.1326   -0.8685   -2.3886 O.co2     1 ATP        -0.8581
      4 O3G        -3.2556   -1.9046   -3.3598 O.3       1 ATP        -0.7962
      5 PB          0.1382   -1.4527   -5.6045 P.3       1 ATP         1.6830
      6 O1B         0.4903   -2.6648   -6.4379 O.co2     1 ATP        -0.8633
      7 O2B         0.0273   -0.0806   -6.2314 O.co2     1 ATP        -0.8633
      8 O3B        -1.2362   -1.7662   -4.7833 O.3       1 ATP        -0.8097
      9 PA          1.5776   -2.4676   -3.2256 P.3       1 ATP         1.7610
     10 O1A         2.1795   -3.7248   -3.7832 O.2       1 ATP        -0.8554
     11 O2A         0.1953   -2.6937   -2.4155 O.3       1 ATP        -0.8102
     12 O3A         1.1741   -1.3727   -4.3459 O.3       1 ATP        -0.7693
     13 O5'         2.5245   -1.6648   -2.1878 O.3       1 ATP        -0.5757
     14 C5'         2.2816   -0.2918   -1.9206 C.3       1 ATP         0.1911
     15 C4'         2.7248    0.0226   -0.4980 C.3       1 ATP         0.1218
     16 O4'         2.4697    1.4219   -0.2462 O.3       1 ATP        -0.4138
     17 C3'         1.9404   -0.7419    0.5596 C.3       1 ATP         0.1338
     18 O3'         2.7418   -0.8086    1.7389 O.3       1 ATP        -0.5756
     19 C2'         0.7477    0.1630    0.7858 C.3       1 ATP         0.0673
     20 O2'         0.1373   -0.0577    2.0407 O.3       1 ATP        -0.5671
     21 C1'         1.3733    1.5427    0.6747 C.3       1 ATP         0.3795
     22 N9          0.4520    2.5240    0.1767 N.pl3     1 ATP        -0.4175
     23 C8          0.2216    2.8192   -1.0985 C.ar      1 ATP         0.2552
     24 N7         -0.6906    3.7763   -1.2384 N.pl3     1 ATP        -0.4731
     25 C5         -1.0575    4.1037    0.0366 C.ar      1 ATP        -0.1295
     26 C6         -2.0291    5.0943    0.5330 C.ar      1 ATP         0.7196
     27 N6         -2.7093    5.8371   -0.2800 N.2       1 ATP        -0.8094
     28 N1         -2.1051    5.1136    1.9204 N.pl3     1 ATP        -0.8312
     29 C2         -1.3354    4.2774    2.7129 C.ar      1 ATP         0.6744
     30 N3         -0.4707    3.3945    2.2944 N.2       1 ATP        -0.5937
     31 C4         -0.3734    3.3525    0.9220 C.ar      1 ATP         0.2810
     32 HOG3       -3.0752   -2.7827   -2.9615 H         1 ATP         0.4152
     33 HOA2       -0.5709   -3.0865   -2.8854 H         1 ATP         0.4571
     34 H5'1        2.8432    0.3119   -2.6398 H         1 ATP         0.0465
     35 H5'2        1.2128   -0.0927   -2.0428 H         1 ATP         0.0465
     36 H4'         3.8044   -0.1397   -0.4040 H         1 ATP         0.1379
     37 H3'         1.6764   -1.7639    0.2728 H         1 ATP         0.1317
     38 HO3'        3.5554   -1.2733    1.4914 H         1 ATP         0.4175
     39 H2'        -0.0011    0.0027    0.0003 H         1 ATP         0.0669
     40 HO2'       -0.6141    0.5574    2.1082 H         1 ATP         0.4064
     41 H1'         1.7826    1.9024    1.6451 H         1 ATP         0.1285
     42 H8          0.7125    2.3429   -1.9292 H         1 ATP         0.2954
     43 HN62       -3.3217    6.4517    0.2629 H         1 ATP         0.4226
     44 H2         -1.5188    4.4223    3.7890 H         1 ATP         0.0826
     45 H45        -2.7470    5.7626    2.3665 H         1 ATP         0.4581
     46 H46        -1.0305    4.1680   -2.1054 H         1 ATP         0.5252
@<TRIPOS>BOND
     1    1    2 2
     2    1    3 1
     3    1    4 1
     4    1    8 1
     5    4   32 1
     6    5    6 2
     7    5    7 1
     8    5    8 1
     9    5   12 1
    10    9   10 2
    11    9   11 1
    12    9   12 1
    13    9   13 1
    14   11   33 1
    15   13   14 1
    16   14   15 1
    17   14   34 1
    18   14   35 1
    19   15   16 1
    20   15   17 1
    21   15   36 1
    22   16   21 1
    23   17   18 1
    24   17   19 1
    25   17   37 1
    26   18   38 1
    27   19   20 1
    28   19   21 1
    29   19   39 1
    30   20   40 1
    31   21   22 1
    32   21   41 1
    33   22   23 ar
    34   22   31 ar
    35   23   24 ar
    36   23   42 1
    37   24   25 ar
    38   24   46 1
    39   25   26 ar
    40   25   31 ar
    41   26   27 2
    42   26   28 ar
    43   27   43 1
    44   28   29 ar
    45   28   45 1
    46   29   30 ar
    47   29   44 1
    48   30   31 ar
@<TRIPOS>SUBSTRUCTURE
     1 ATP         1 GROUP 0 A     ****
@<TRIPOS>MOLECULE
[[[3,4-dihydroxy-5-(6-imino-7,8-dihydro-1~{H}-purin-8-ylium-9-yl)tetrahydrofuran-2-yl]methoxy-hydroxy-phosphoryl]oxy-oxido-phosphoryl] hydrogen phosphate
   46    48     1     0     0
SMALL
USER_CHARGES

@<TRIPOS>ATOM
      1 PG          2.6462    0.7256   -6.3560 P.3       1 ATP         1.5644
      2 O1G         3.4722    1.9597   -6.6431 O.co2     1 ATP        -0.8581
      3 O2G         1.8348    0.6114   -5.0848 O.co2     1 ATP        -0.8581
      4 O3G         1.6588    0.4553   -7.6281 O.3       1 ATP        -0.7962
      5 PB          4.8620   -1.0838   -5.5955 P.3       1 ATP         1.6830
      6 O1B         5.2791   -2.4622   -6.0579 O.co2     1 ATP        -0.8633
      7 O2B         5.8640    0.0457   -5.5072 O.co2     1 ATP        -0.8633
      8 O3B         3.5961   -0.5918   -6.4995 O.3       1 ATP        -0.8097
      9 PA          2.8587   -2.1496   -3.6950 P.3       1 ATP         1.7610
     10 O1A         3.0952   -3.6247   -3.8434 O.2       1 ATP        -0.8554
     11 O2A         1.6310   -1.5797   -4.5815 O.3       1 ATP        -0.8102
     12 O3A         4.1060   -1.2287   -4.1564 O.3       1 ATP        -0.7693
     13 O5'         2.5245   -1.6648   -2.1878 O.3       1 ATP        -0.5757
     14 C5'         2.2816   -0.2918   -1.9206 C.3       1 ATP         0.1911
     15 C4'         2.7248    0.0226   -0.4980 C.3       1 ATP         0.1218
     16 O4'         2.4697    1.4219   -0.2462 O.3       1 ATP        -0.4138
     17 C3'         1.9404   -0.7419    0.5596 C.3       1 ATP         0.1338
     18 O3'         2.7418   -0.8086    1.7389 O.3       1 ATP        -0.5756
     19 C2'         0.7477    0.1630    0.7858 C.3       1 ATP         0.0673
     20 O2'         0.1373   -0.0577    2.0407 O.3       1 ATP        -0.5671
     21 C1'         1.3733    1.5427    0.6747 C.3       1 ATP         0.3795
     22 N9          0.4520    2.5240    0.1767 N.pl3     1 ATP        -0.4175
     23 C8          0.2216    2.8192   -1.0985 C.ar      1 ATP         0.2552
     24 N7         -0.6906    3.7763   -1.2384 N.pl3     1 ATP        -0.4731
     25 C5         -1.0575    4.1037    0.0366 C.ar      1 ATP        -0.1295
     26 C6         -2.0291    5.0943    0.5330 C.ar      1 ATP         0.7196
     27 N6         -2.7093    5.8371   -0.2800 N.2       1 ATP        -0.8094
     28 N1         -2.1051    5.1136    1.9204 N.pl3     1 ATP        -0.8312
     29 C2         -1.3354    4.2774    2.7129 C.ar      1 ATP         0.6744
     30 N3         -0.4707    3.3945    2.2944 N.2       1 ATP        -0.5937
     31 C4         -0.3734    3.3525    0.9220 C.ar      1 ATP         0.2810
     32 HOG3        1.0543   -0.3166   -7.5939 H         1 ATP         0.4152
     33 HOA2        1.6660   -1.6756   -5.5571 H         1 ATP         0.4571
     34 H5'1        2.8432    0.3119   -2.6398 H         1 ATP         0.0465
     35 H5'2        1.2128   -0.0927   -2.0428 H         1 ATP         0.0465
     36 H4'         3.8044   -0.1397   -0.4040 H         1 ATP         0.1379
     37 H3'         1.6764   -1.7639    0.2728 H         1 ATP         0.1317
     38 HO3'        3.5554   -1.2733    1.4914 H         1 ATP         0.4175
     39 H2'        -0.0011    0.0027    0.0003 H         1 ATP         0.0669
     40 HO2'       -0.1563   -0.9855    2.0596 H         1 ATP         0.4064
     41 H1'         1.7826    1.9024    1.6451 H         1 ATP         0.1285
     42 H8          0.7125    2.3429   -1.9292 H         1 ATP         0.2954
     43 HN62       -3.3217    6.4517    0.2629 H         1 ATP         0.4226
     44 H2         -1.5188    4.4223    3.7890 H         1 ATP         0.0826
     45 H45        -2.7470    5.7626    2.3665 H         1 ATP         0.4581
     46 H46        -1.0305    4.1680   -2.1054 H         1 ATP         0.5252
@<TRIPOS>BOND
     1    1    2 2
     2    1    3 1
     3    1    4 1
     4    1    8 1
     5    4   32 1
     6    5    6 2
     7    5    7 1
     8    5    8 1
     9    5   12 1
    10    9   10 2
    11    9   11 1
    12    9   12 1
    13    9   13 1
    14   11   33 1
    15   13   14 1
    16   14   15 1
    17   14   34 1
    18   14   35 1
    19   15   16 1
    20   15   17 1
    21   15   36 1
    22   16   21 1
    23   17   18 1
    24   17   19 1
    25   17   37 1
    26   18   38 1
    27   19   20 1
    28   19   21 1
    29   19   39 1
    30   20   40 1
    31   21   22 1
    32   21   41 1
    33   22   23 ar
    34   22   31 ar
    35   23   24 ar
    36   23   42 1
    37   24   25 ar
    38   24   46 1
    39   25   26 ar
    40   25   31 ar
    41   26   27 2
    42   26   28 ar
    43   27   43 1
    44   28   29 ar
    45   28   45 1
    46   29   30 ar
    47   29   44 1
    48   30   31 ar
@<TRIPOS>SUBSTRUCTURE
     1 ATP         1 GROUP 0 A     ****
@<TRIPOS>MOLECULE
[[[3,4-dihydroxy-5-(6-imino-7,8-dihydro-1~{H}-purin-8-ylium-9-yl)tetrahydrofuran-2-yl]methoxy-hydroxy-phosphoryl]oxy-oxido-phosphoryl] hydrogen phosphate
   46    48     1     0     0
SMALL
USER_CHARGES

@<TRIPOS>ATOM
      1 PG          0.2004   -2.4160   -5.3844 P.3       1 ATP         1.5644
      2 O1G        -1.2895   -2.5954   -5.1961 O.co2     1 ATP        -0.8581
      3 O2G         1.1401   -2.4207   -4.1992 O.co2     1 ATP        -0.8581
      4 O3G         0.7232   -3.5222   -6.4657 O.3       1 ATP        -0.7962
      5 PB          0.2012    0.4988   -5.9002 P.3       1 ATP         1.6830
      6 O1B         0.7799    1.3554   -7.0043 O.co2     1 ATP        -0.8633
      7 O2B        -1.2367    0.6607   -5.4597 O.co2     1 ATP        -0.8633
      8 O3B         0.4640   -1.0695   -6.2652 O.3       1 ATP        -0.8097
      9 PA          2.7605    0.3953   -4.4169 P.3       1 ATP         1.7610
     10 O1A         3.6064    1.3021   -5.2629 O.2       1 ATP        -0.8554
     11 O2A         2.9475   -1.1798   -4.7368 O.3       1 ATP        -0.8102
     12 O3A         1.1682    0.6209   -4.5912 O.3       1 ATP        -0.7693
     13 O5'         3.0213    0.5153   -2.8245 O.3       1 ATP        -0.5757
     14 C5'         2.2816   -0.2918   -1.9206 C.3       1 ATP         0.1911
     15 C4'         2.7248    0.0226   -0.4980 C.3       1 ATP         0.1218
     16 O4'         2.4697    1.4219   -0.2462 O.3       1 ATP        -0.4138
     17 C3'         1.9404   -0.7419    0.5596 C.3       1 ATP         0.1338
     18 O3'         2.7418   -0.8086    1.7389 O.3       1 ATP        -0.5756
     19 C2'         0.7477    0.1630    0.7858 C.3       1 ATP         0.0673
     20 O2'         0.1373   -0.0577    2.0407 O.3       1 ATP        -0.5671
     21 C1'         1.3733    1.5427    0.6747 C.3       1 ATP         0.3795
     22 N9          0.4520    2.5240    0.1767 N.pl3     1 ATP        -0.4175
     23 C8          0.5691    3.2215   -0.9485 C.ar      1 ATP         0.2552
     24 N7         -0.4499    4.0551   -1.1342 N.pl3     1 ATP        -0.4731
     25 C5         -1.2618    3.8674   -0.0512 C.ar      1 ATP        -0.1295
     26 C6         -2.5420    4.5007    0.3120 C.ar      1 ATP         0.7196
     27 N6         -3.0874    5.3993   -0.4432 N.2       1 ATP        -0.8094
     28 N1         -3.0494    4.0205    1.5133 N.pl3     1 ATP        -0.8312
     29 C2         -2.3933    3.0527    2.2567 C.ar      1 ATP         0.6744
     30 N3         -1.2611    2.4796    1.9536 N.2       1 ATP        -0.5937
     31 C4         -0.7334    2.9358    0.7669 C.ar      1 ATP         0.2810
     32 HOG3        1.6766   -3.5347   -6.6967 H         1 ATP         0.4152
     33 HOA2        2.7451   -1.5077   -5.6388 H         1 ATP         0.4571
     34 H5'1        1.2163   -0.0770   -2.0471 H         1 ATP         0.0465
     35 H5'2        2.4655   -1.3443   -2.1563 H         1 ATP         0.0465
     36 H4'         3.8044   -0.1397   -0.4040 H         1 ATP         0.1379
     37 H3'         1.6764   -1.7639    0.2728 H         1 ATP         0.1317
     38 HO3'        2.2232   -1.2979    2.3953 H         1 ATP         0.4175
     39 H2'        -0.0011    0.0027    0.0003 H         1 ATP         0.0669
     40 HO2'       -0.1563   -0.9855    2.0596 H         1 ATP         0.4064
     41 H1'         1.7826    1.9024    1.6451 H         1 ATP         0.1285
     42 H8          1.3912    3.1285   -1.6365 H         1 ATP         0.2954
     43 HN62       -3.9637    5.7084   -0.0142 H         1 ATP         0.4226
     44 H2         -2.9317    2.7866    3.1796 H         1 ATP         0.0826
     45 H45        -3.9307    4.3923    1.8559 H         1 ATP         0.4581
     46 H46        -0.5835    4.6857   -1.9122 H         1 ATP         0.5252
@<TRIPOS>BOND
     1    1    2 2
     2    1    3 1
     3    1    4 1
     4    1    8 1
     5    4   32 1
     6    5    6 2
     7    5    7 1
     8    5    8 1
     9    5   12 1
    10    9   10 2
    11    9   11 1
    12    9   12 1
    13    9   13 1
    14   11   33 1
    15   13   14 1
    16   14   15 1
    17   14   34 1
    18   14   35 1
    19   15   16 1
    20   15   17 1
    21   15   36 1
    22   16   21 1
    23   17   18 1
    24   17   19 1
    25   17   37 1
    26   18   38 1
    27   19   20 1
    28   19   21 1
    29   19   39 1
    30   20   40 1
    31   21   22 1
    32   21   41 1
    33   22   23 ar
    34   22   31 ar
    35   23   24 ar
    36   23   42 1
    37   24   25 ar
    38   24   46 1
    39   25   26 ar
    40   25   31 ar
    41   26   27 2
    42   26   28 ar
    43   27   43 1
    44   28   29 ar
    45   28   45 1
    46   29   30 ar
    47   29   44 1
    48   30   31 ar
@<TRIPOS>SUBSTRUCTURE
     1 ATP         1 GROUP 0 A     ****
@<TRIPOS>MOLECULE
[[[3,4-dihydroxy-5-(6-imino-7,8-dihydro-1~{H}-purin-8-ylium-9-yl)tetrahydrofuran-2-yl]methoxy-hydroxy-phosphoryl]oxy-oxido-phosphoryl] hydrogen phosphate
   46    48     1     0     0
SMALL
USER_CHARGES

@<TRIPOS>ATOM
      1 PG         -1.2590   -0.0110   -5.7240 P.3       1 ATP         1.5644
      2 O1G        -0.4219    1.1880   -6.1105 O.co2     1 ATP        -0.8581
      3 O2G        -2.1453    0.0218   -4.4989 O.co2     1 ATP        -0.8581
      4 O3G        -2.1666   -0.4457   -7.0099 O.3       1 ATP        -0.7962
      5 PB          0.9137   -1.6890   -4.6169 P.3       1 ATP         1.6830
      6 O1B         0.3985   -1.5566   -3.2010 O.co2     1 ATP        -0.8633
      7 O2B         1.5866   -2.9596   -5.0864 O.co2     1 ATP        -0.8633
      8 O3B        -0.2971   -1.3254   -5.6481 O.3       1 ATP        -0.8097
      9 PA          3.3429   -0.0249   -4.3155 P.3       1 ATP         1.7610
     10 O1A         4.1316    0.9232   -5.1715 O.2       1 ATP        -0.8554
     11 O2A         4.0556   -1.4579   -4.0783 O.3       1 ATP        -0.8102
     12 O3A         1.9004   -0.4266   -4.9275 O.3       1 ATP        -0.7693
     13 O5'         3.0213    0.5153   -2.8245 O.3       1 ATP        -0.5757
     14 C5'         2.2816   -0.2918   -1.9206 C.3       1 ATP         0.1911
     15 C4'         2.7248    0.0226   -0.4980 C.3       1 ATP         0.1218
     16 O4'         2.4697    1.4219   -0.2462 O.3       1 ATP        -0.4138
     17 C3'         1.9404   -0.7419    0.5596 C.3       1 ATP         0.1338
     18 O3'         2.7418   -0.8086    1.7389 O.3       1 ATP        -0.5756
     19 C2'         0.7477    0.1630    0.7858 C.3       1 ATP         0.0673
     20 O2'         0.1373   -0.0577    2.0407 O.3       1 ATP        -0.5671
     21 C1'         1.3733    1.5427    0.6747 C.3       1 ATP         0.3795
     22 N9          0.4520    2.5240    0.1767 N.pl3     1 ATP        -0.4175
     23 C8          0.2216    2.8192   -1.0985 C.ar      1 ATP         0.2552
     24 N7         -0.6906    3.7763   -1.2384 N.pl3     1 ATP        -0.4731
     25 C5         -1.0575    4.1037    0.0366 C.ar      1 ATP        -0.1295
     26 C6         -2.0291    5.0943    0.5330 C.ar      1 ATP         0.7196
     27 N6         -2.7093    5.8371   -0.2800 N.2       1 ATP        -0.8094
     28 N1         -2.1051    5.1136    1.9204 N.pl3     1 ATP        -0.8312
     29 C2         -1.3354    4.2774    2.7129 C.ar      1 ATP         0.6744
     30 N3         -0.4707    3.3945    2.2944 N.2       1 ATP        -0.5937
     31 C4         -0.3734    3.3525    0.9220 C.ar      1 ATP         0.2810
     32 HOG3       -2.7691   -1.2144   -6.9174 H         1 ATP         0.4152
     33 HOA2        4.9339   -1.4843   -3.6423 H         1 ATP         0.4571
     34 H5'1        1.2163   -0.0770   -2.0471 H         1 ATP         0.0465
     35 H5'2        2.4655   -1.3443   -2.1563 H         1 ATP         0.0465
     36 H4'         3.8044   -0.1397   -0.4040 H         1 ATP         0.1379
     37 H3'         1.6764   -1.7639    0.2728 H         1 ATP         0.1317
     38 HO3'        2.2232   -1.2979    2.3953 H         1 ATP         0.4175
     39 H2'        -0.0011    0.0027    0.0003 H         1 ATP         0.0669
     40 HO2'       -0.1563   -0.9855    2.0596 H         1 ATP         0.4064
     41 H1'         1.7826    1.9024    1.6451 H         1 ATP         0.1285
     42 H8          0.7125    2.3429   -1.9292 H         1 ATP         0.2954
     43 HN62       -3.3217    6.4517    0.2629 H         1 ATP         0.4226
     44 H2         -1.5188    4.4223    3.7890 H         1 ATP         0.0826
     45 H45        -2.7470    5.7626    2.3665 H         1 ATP         0.4581
     46 H46        -1.0305    4.1680   -2.1054 H         1 ATP         0.5252
@<TRIPOS>BOND
     1    1    2 2
     2    1    3 1
     3    1    4 1
     4    1    8 1
     5    4   32 1
     6    5    6 2
     7    5    7 1
     8    5    8 1
     9    5   12 1
    10    9   10 2
    11    9   11 1
    12    9   12 1
    13    9   13 1
    14   11   33 1
    15   13   14 1
    16   14   15 1
    17   14   34 1
    18   14   35 1
    19   15   16 1
    20   15   17 1
    21   15   36 1
    22   16   21 1
    23   17   18 1
    24   17   19 1
    25   17   37 1
    26   18   38 1
    27   19   20 1
    28   19   21 1
    29   19   39 1
    30   20   40 1
    31   21   22 1
    32   21   41 1
    33   22   23 ar
    34   22   31 ar
    35   23   24 ar
    36   23   42 1
    37   24   25 ar
    38   24   46 1
    39   25   26 ar
    40   25   31 ar
    41   26   27 2
    42   26   28 ar
    43   27   43 1
    44   28   29 ar
    45   28   45 1
    46   29   30 ar
    47   29   44 1
    48   30   31 ar
@<TRIPOS>SUBSTRUCTURE
     1 ATP         1 GROUP 0 A     ****
@<TRIPOS>MOLECULE
[[[3,4-dihydroxy-5-(6-imino-7,8-dihydro-1~{H}-purin-8-ylium-9-yl)tetrahydrofuran-2-yl]methoxy-hydroxy-phosphoryl]oxy-oxido-phosphoryl] hydrogen phosphate
   46    48     1     0     0
SMALL
USER_CHARGES

@<TRIPOS>ATOM
      1 PG          2.9839    0.0720   -7.0641 P.3       1 ATP         1.5644
      2 O1G         3.6612   -1.2618   -6.8409 O.co2     1 ATP        -0.8581
      3 O2G         3.6244    1.3580   -6.5916 O.co2     1 ATP        -0.8581
      4 O3G         2.6371    0.2179   -8.6530 O.3       1 ATP        -0.7962
      5 PB          0.9182   -0.1588   -4.9565 P.3       1 ATP         1.6830
      6 O1B         1.5536    0.9203   -4.1083 O.co2     1 ATP        -0.8633
      7 O2B        -0.5827   -0.3428   -4.9890 O.co2     1 ATP        -0.8633
      8 O3B         1.4607   -0.0053   -6.4875 O.3       1 ATP        -0.8097
      9 PA          1.5776   -2.4676   -3.2256 P.3       1 ATP         1.7610
     10 O1A         1.9399   -3.9114   -3.4201 O.2       1 ATP        -0.8554
     11 O2A         0.0775   -2.2267   -2.6692 O.3       1 ATP        -0.8102
     12 O3A         1.6142   -1.5868   -4.5819 O.3       1 ATP        -0.7693
     13 O5'         2.5245   -1.6648   -2.1878 O.3       1 ATP        -0.5757
     14 C5'         2.2816   -0.2918   -1.9206 C.3       1 ATP         0.1911
     15 C4'         2.7248    0.0226   -0.4980 C.3       1 ATP         0.1218
     16 O4'         2.4697    1.4219   -0.2462 O.3       1 ATP        -0.4138
     17 C3'         1.9404   -0.7419    0.5596 C.3       1 ATP         0.1338
     18 O3'         2.7418   -0.8086    1.7389 O.3       1 ATP        -0.5756
     19 C2'         0.7477    0.1630    0.7858 C.3       1 ATP         0.0673
     20 O2'         0.1373   -0.0577    2.0407 O.3       1 ATP        -0.5671
     21 C1'         1.3733    1.5427    0.6747 C.3       1 ATP         0.3795
     22 N9          0.4520    2.5240    0.1767 N.pl3     1 ATP        -0.4175
     23 C8          0.2216    2.8192   -1.0985 C.ar      1 ATP         0.2552
     24 N7         -0.6906    3.7763   -1.2384 N.pl3     1 ATP        -0.4731
     25 C5         -1.0575    4.1037    0.0366 C.ar      1 ATP        -0.1295
     26 C6         -2.0291    5.0943    0.5330 C.ar      1 ATP         0.7196
     27 N6         -2.7093    5.8371   -0.2800 N.2       1 ATP        -0.8094
     28 N1         -2.1051    5.1136    1.9204 N.pl3     1 ATP        -0.8312
     29 C2         -1.3354    4.2774    2.7129 C.ar      1 ATP         0.6744
     30 N3         -0.4707    3.3945    2.2944 N.2       1 ATP        -0.5937
     31 C4         -0.3734    3.3525    0.9220 C.ar      1 ATP         0.2810
     32 HOG3        2.1919    1.0363   -8.9602 H         1 ATP         0.4152
     33 HOA2       -0.1740   -2.6106   -1.8022 H         1 ATP         0.4571
     34 H5'1        2.8432    0.3119   -2.6398 H         1 ATP         0.0465
     35 H5'2        1.2128   -0.0927   -2.0428 H         1 ATP         0.0465
     36 H4'         3.8044   -0.1397   -0.4040 H         1 ATP         0.1379
     37 H3'         1.6764   -1.7639    0.2728 H         1 ATP         0.1317
     38 HO3'        2.2232   -1.2979    2.3953 H         1 ATP         0.4175
     39 H2'        -0.0011    0.0027    0.0003 H         1 ATP         0.0669
     40 HO2'       -0.6141    0.5574    2.1082 H         1 ATP         0.4064
     41 H1'         1.7826    1.9024    1.6451 H         1 ATP         0.1285
     42 H8          0.7125    2.3429   -1.9292 H         1 ATP         0.2954
     43 HN62       -3.3217    6.4517    0.2629 H         1 ATP         0.4226
     44 H2         -1.5188    4.4223    3.7890 H         1 ATP         0.0826
     45 H45        -2.7470    5.7626    2.3665 H         1 ATP         0.4581
     46 H46        -1.0305    4.1680   -2.1054 H         1 ATP         0.5252
@<TRIPOS>BOND
     1    1    2 2
     2    1    3 1
     3    1    4 1
     4    1    8 1
     5    4   32 1
     6    5    6 2
     7    5    7 1
     8    5    8 1
     9    5   12 1
    10    9   10 2
    11    9   11 1
    12    9   12 1
    13    9   13 1
    14   11   33 1
    15   13   14 1
    16   14   15 1
    17   14   34 1
    18   14   35 1
    19   15   16 1
    20   15   17 1
    21   15   36 1
    22   16   21 1
    23   17   18 1
    24   17   19 1
    25   17   37 1
    26   18   38 1
    27   19   20 1
    28   19   21 1
    29   19   39 1
    30   20   40 1
    31   21   22 1
    32   21   41 1
    33   22   23 ar
    34   22   31 ar
    35   23   24 ar
    36   23   42 1
    37   24   25 ar
    38   24   46 1
    39   25   26 ar
    40   25   31 ar
    41   26   27 2
    42   26   28 ar
    43   27   43 1
    44   28   29 ar
    45   28   45 1
    46   29   30 ar
    47   29   44 1
    48   30   31 ar
@<TRIPOS>SUBSTRUCTURE
     1 ATP         1 GROUP 0 A     ****
@<TRIPOS>MOLECULE
[[[3,4-dihydroxy-5-(6-imino-7,8-dihydro-1~{H}-purin-8-ylium-9-yl)tetrahydrofuran-2-yl]methoxy-hydroxy-phosphoryl]oxy-oxido-phosphoryl] hydrogen phosphate
   46    48     1     0     0
SMALL
USER_CHARGES

@<TRIPOS>ATOM
      1 PG          4.0950   -4.0890   -3.6911 P.3       1 ATP         1.5644
      2 O1G         3.0962   -5.1989   -3.9319 O.co2     1 ATP        -0.8581
      3 O2G         3.9141   -3.1146   -2.5486 O.co2     1 ATP        -0.8581
      4 O3G         5.5851   -4.7474   -3.5808 O.3       1 ATP        -0.7962
      5 PB          3.2596   -2.2994   -5.8960 P.3       1 ATP         1.6830
      6 O1B         4.0088   -1.6263   -7.0244 O.co2     1 ATP        -0.8633
      7 O2B         1.9902   -3.0790   -6.1583 O.co2     1 ATP        -0.8633
      8 O3B         4.2993   -3.2518   -5.0753 O.3       1 ATP        -0.8097
      9 PA          3.9521   -0.1769   -3.9527 P.3       1 ATP         1.7610
     10 O1A         4.6810    0.7861   -4.8443 O.2       1 ATP        -0.8554
     11 O2A         4.9166   -1.1746   -3.1207 O.3       1 ATP        -0.8102
     12 O3A         2.9635   -1.1884   -4.7377 O.3       1 ATP        -0.7693
     13 O5'         3.0213    0.5153   -2.8245 O.3       1 ATP        -0.5757
     14 C5'         2.2816   -0.2918   -1.9206 C.3       1 ATP         0.1911
     15 C4'         2.7248    0.0226   -0.4980 C.3       1 ATP         0.1218
     16 O4'         2.4697    1.4219   -0.2462 O.3       1 ATP        -0.4138
     17 C3'         1.9404   -0.7419    0.5596 C.3       1 ATP         0.1338
     18 O3'         2.7418   -0.8086    1.7389 O.3       1 ATP        -0.5756
     19 C2'         0.7477    0.1630    0.7858 C.3       1 ATP         0.0673
     20 O2'         0.1373   -0.0577    2.0407 O.3       1 ATP        -0.5671
     21 C1'         1.3733    1.5427    0.6747 C.3       1 ATP         0.3795
     22 N9          0.4520    2.5240    0.1767 N.pl3     1 ATP        -0.4175
     23 C8          0.2216    2.8192   -1.0985 C.ar      1 ATP         0.2552
     24 N7         -0.6906    3.7763   -1.2384 N.pl3     1 ATP        -0.4731
     25 C5         -1.0575    4.1037    0.0366 C.ar      1 ATP        -0.1295
     26 C6         -2.0291    5.0943    0.5330 C.ar      1 ATP         0.7196
     27 N6         -2.7093    5.8371   -0.2800 N.2       1 ATP        -0.8094
     28 N1         -2.1051    5.1136    1.9204 N.pl3     1 ATP        -0.8312
     29 C2         -1.3354    4.2774    2.7129 C.ar      1 ATP         0.6744
     30 N3         -0.4707    3.3945    2.2944 N.2       1 ATP        -0.5937
     31 C4         -0.3734    3.3525    0.9220 C.ar      1 ATP         0.2810
     32 HOG3        6.3483   -4.1513   -3.4240 H         1 ATP         0.4152
     33 HOA2        5.5139   -1.7769   -3.6133 H         1 ATP         0.4571
     34 H5'1        1.2163   -0.0770   -2.0471 H         1 ATP         0.0465
     35 H5'2        2.4655   -1.3443   -2.1563 H         1 ATP         0.0465
     36 H4'         3.8044   -0.1397   -0.4040 H         1 ATP         0.1379
     37 H3'         1.6764   -1.7639    0.2728 H         1 ATP         0.1317
     38 HO3'        2.2232   -1.2979    2.3953 H         1 ATP         0.4175
     39 H2'        -0.0011    0.0027    0.0003 H         1 ATP         0.0669
     40 HO2'       -0.1563   -0.9855    2.0596 H         1 ATP         0.4064
     41 H1'         1.7826    1.9024    1.6451 H         1 ATP         0.1285
     42 H8          0.7125    2.3429   -1.9292 H         1 ATP         0.2954
     43 HN62       -3.3217    6.4517    0.2629 H         1 ATP         0.4226
     44 H2         -1.5188    4.4223    3.7890 H         1 ATP         0.0826
     45 H45        -2.7470    5.7626    2.3665 H         1 ATP         0.4581
     46 H46        -1.0305    4.1680   -2.1054 H         1 ATP         0.5252
@<TRIPOS>BOND
     1    1    2 2
     2    1    3 1
     3    1    4 1
     4    1    8 1
     5    4   32 1
     6    5    6 2
     7    5    7 1
     8    5    8 1
     9    5   12 1
    10    9   10 2
    11    9   11 1
    12    9   12 1
    13    9   13 1
    14   11   33 1
    15   13   14 1
    16   14   15 1
    17   14   34 1
    18   14   35 1
    19   15   16 1
    20   15   17 1
    21   15   36 1
    22   16   21 1
    23   17   18 1
    24   17   19 1
    25   17   37 1
    26   18   38 1
    27   19   20 1
    28   19   21 1
    29   19   39 1
    30   20   40 1
    31   21   22 1
    32   21   41 1
    33   22   23 ar
    34   22   31 ar
    35   23   24 ar
    36   23   42 1
    37   24   25 ar
    38   24   46 1
    39   25   26 ar
    40   25   31 ar
    41   26   27 2
    42   26   28 ar
    43   27   43 1
    44   28   29 ar
    45   28   45 1
    46   29   30 ar
    47   29   44 1
    48   30   31 ar
@<TRIPOS>SUBSTRUCTURE
     1 ATP         1 GROUP 0 A     ****
@<TRIPOS>MOLECULE
[[[3,4-dihydroxy-5-(6-imino-7,8-dihydro-1~{H}-purin-8-ylium-9-yl)tetrahydrofuran-2-yl]methoxy-hydroxy-phosphoryl]oxy-oxido-phosphoryl] hydrogen phosphate
   46    48     1     0     0
SMALL
USER_CHARGES

@<TRIPOS>ATOM
      1 PG          1.2094    1.1768   -7.5820 P.3       1 ATP         1.5644
      2 O1G        -0.2790    1.4039   -7.7260 O.co2     1 ATP        -0.8581
      3 O2G         2.0773    0.9187   -8.7934 O.co2     1 ATP        -0.8581
      4 O3G         1.8456    2.4256   -6.7442 O.3       1 ATP        -0.7962
      5 PB          0.9182   -0.1588   -4.9565 P.3       1 ATP         1.6830
      6 O1B         1.5536    0.9203   -4.1083 O.co2     1 ATP        -0.8633
      7 O2B        -0.5827   -0.3428   -4.9890 O.co2     1 ATP        -0.8633
      8 O3B         1.4607   -0.0053   -6.4875 O.3       1 ATP        -0.8097
      9 PA          1.5776   -2.4676   -3.2256 P.3       1 ATP         1.7610
     10 O1A         1.9399   -3.9114   -3.4201 O.2       1 ATP        -0.8554
     11 O2A         0.0775   -2.2267   -2.6692 O.3       1 ATP        -0.8102
     12 O3A         1.6142   -1.5868   -4.5819 O.3       1 ATP        -0.7693
     13 O5'         2.5245   -1.6648   -2.1878 O.3       1 ATP        -0.5757
     14 C5'         2.2816   -0.2918   -1.9206 C.3       1 ATP         0.1911
     15 C4'         2.7248    0.0226   -0.4980 C.3       1 ATP         0.1218
     16 O4'         2.4697    1.4219   -0.2462 O.3       1 ATP        -0.4138
     17 C3'         1.9404   -0.7419    0.5596 C.3       1 ATP         0.1338
     18 O3'         2.7418   -0.8086    1.7389 O.3       1 ATP        -0.5756
     19 C2'         0.7477    0.1630    0.7858 C.3       1 ATP         0.0673
     20 O2'         0.1373   -0.0577    2.0407 O.3       1 ATP        -0.5671
     21 C1'         1.3733    1.5427    0.6747 C.3       1 ATP         0.3795
     22 N9          0.4520    2.5240    0.1767 N.pl3     1 ATP        -0.4175
     23 C8          0.2216    2.8192   -1.0985 C.ar      1 ATP         0.2552
     24 N7         -0.6906    3.7763   -1.2384 N.pl3     1 ATP        -0.4731
     25 C5         -1.0575    4.1037    0.0366 C.ar      1 ATP        -0.1295
     26 C6         -2.0291    5.0943    0.5330 C.ar      1 ATP         0.7196
     27 N6         -2.7093    5.8371   -0.2800 N.2       1 ATP        -0.8094
     28 N1         -2.1051    5.1136    1.9204 N.pl3     1 ATP        -0.8312
     29 C2         -1.3354    4.2774    2.7129 C.ar      1 ATP         0.6744
     30 N3         -0.4707    3.3945    2.2944 N.2       1 ATP        -0.5937
     31 C4         -0.3734    3.3525    0.9220 C.ar      1 ATP         0.2810
     32 HOG3        2.8104    2.4250   -6.5663 H         1 ATP         0.4152
     33 HOA2       -0.1740   -2.6106   -1.8022 H         1 ATP         0.4571
     34 H5'1        2.8432    0.3119   -2.6398 H         1 ATP         0.0465
     35 H5'2        1.2128   -0.0927   -2.0428 H         1 ATP         0.0465
     36 H4'         3.8044   -0.1397   -0.4040 H         1 ATP         0.1379
     37 H3'         1.6764   -1.7639    0.2728 H         1 ATP         0.1317
     38 HO3'        2.2232   -1.2979    2.3953 H         1 ATP         0.4175
     39 H2'        -0.0011    0.0027    0.0003 H         1 ATP         0.0669
     40 HO2'       -0.6141    0.5574    2.1082 H         1 ATP         0.4064
     41 H1'         1.7826    1.9024    1.6451 H         1 ATP         0.1285
     42 H8          0.7125    2.3429   -1.9292 H         1 ATP         0.2954
     43 HN62       -3.3217    6.4517    0.2629 H         1 ATP         0.4226
     44 H2         -1.5188    4.4223    3.7890 H         1 ATP         0.0826
     45 H45        -2.7470    5.7626    2.3665 H         1 ATP         0.4581
     46 H46        -1.0305    4.1680   -2.1054 H         1 ATP         0.5252
@<TRIPOS>BOND
     1    1    2 2
     2    1    3 1
     3    1    4 1
     4    1    8 1
     5    4   32 1
     6    5    6 2
     7    5    7 1
     8    5    8 1
     9    5   12 1
    10    9   10 2
    11    9   11 1
    12    9   12 1
    13    9   13 1
    14   11   33 1
    15   13   14 1
    16   14   15 1
    17   14   34 1
    18   14   35 1
    19   15   16 1
    20   15   17 1
    21   15   36 1
    22   16   21 1
    23   17   18 1
    24   17   19 1
    25   17   37 1
    26   18   38 1
    27   19   20 1
    28   19   21 1
    29   19   39 1
    30   20   40 1
    31   21   22 1
    32   21   41 1
    33   22   23 ar
    34   22   31 ar
    35   23   24 ar
    36   23   42 1
    37   24   25 ar
    38   24   46 1
    39   25   26 ar
    40   25   31 ar
    41   26   27 2
    42   26   28 ar
    43   27   43 1
    44   28   29 ar
    45   28   45 1
    46   29   30 ar
    47   29   44 1
    48   30   31 ar
@<TRIPOS>SUBSTRUCTURE
     1 ATP         1 GROUP 0 A     ****
@<TRIPOS>MOLECULE
[[[3,4-dihydroxy-5-(6-imino-7,8-dihydro-1~{H}-purin-8-ylium-9-yl)tetrahydrofuran-2-yl]methoxy-hydroxy-phosphoryl]oxy-oxido-phosphoryl] hydrogen phosphate
   46    48     1     0     0
SMALL
USER_CHARGES

@<TRIPOS>ATOM
      1 PG         -1.6952   -2.1077   -5.9512 P.3       1 ATP         1.5644
      2 O1G        -1.3878   -3.5503   -6.2855 O.co2     1 ATP        -0.8581
      3 O2G        -2.5439   -1.2599   -6.8723 O.co2     1 ATP        -0.8581
      4 O3G        -2.3388   -2.0488   -4.4517 O.3       1 ATP        -0.7962
      5 PB          0.9137   -1.6890   -4.6169 P.3       1 ATP         1.6830
      6 O1B         0.3985   -1.5566   -3.2010 O.co2     1 ATP        -0.8633
      7 O2B         1.5866   -2.9596   -5.0864 O.co2     1 ATP        -0.8633
      8 O3B        -0.2971   -1.3254   -5.6481 O.3       1 ATP        -0.8097
      9 PA          3.3429   -0.0249   -4.3155 P.3       1 ATP         1.7610
     10 O1A         4.1316    0.9232   -5.1715 O.2       1 ATP        -0.8554
     11 O2A         4.0556   -1.4579   -4.0783 O.3       1 ATP        -0.8102
     12 O3A         1.9004   -0.4266   -4.9275 O.3       1 ATP        -0.7693
     13 O5'         3.0213    0.5153   -2.8245 O.3       1 ATP        -0.5757
     14 C5'         2.2816   -0.2918   -1.9206 C.3       1 ATP         0.1911
     15 C4'         2.7248    0.0226   -0.4980 C.3       1 ATP         0.1218
     16 O4'         2.4697    1.4219   -0.2462 O.3       1 ATP        -0.4138
     17 C3'         1.9404   -0.7419    0.5596 C.3       1 ATP         0.1338
     18 O3'         2.7418   -0.8086    1.7389 O.3       1 ATP        -0.5756
     19 C2'         0.7477    0.1630    0.7858 C.3       1 ATP         0.0673
     20 O2'         0.1373   -0.0577    2.0407 O.3       1 ATP        -0.5671
     21 C1'         1.3733    1.5427    0.6747 C.3       1 ATP         0.3795
     22 N9          0.4520    2.5240    0.1767 N.pl3     1 ATP        -0.4175
     23 C8          0.2216    2.8192   -1.0985 C.ar      1 ATP         0.2552
     24 N7         -0.6906    3.7763   -1.2384 N.pl3     1 ATP        -0.4731
     25 C5         -1.0575    4.1037    0.0366 C.ar      1 ATP        -0.1295
     26 C6         -2.0291    5.0943    0.5330 C.ar      1 ATP         0.7196
     27 N6         -2.7093    5.8371   -0.2800 N.2       1 ATP        -0.8094
     28 N1         -2.1051    5.1136    1.9204 N.pl3     1 ATP        -0.8312
     29 C2         -1.3354    4.2774    2.7129 C.ar      1 ATP         0.6744
     30 N3         -0.4707    3.3945    2.2944 N.2       1 ATP        -0.5937
     31 C4         -0.3734    3.3525    0.9220 C.ar      1 ATP         0.2810
     32 HOG3       -2.5938   -1.1744   -4.0873 H         1 ATP         0.4152
     33 HOA2        4.2608   -2.0199   -4.8557 H         1 ATP         0.4571
     34 H5'1        1.2163   -0.0770   -2.0471 H         1 ATP         0.0465
     35 H5'2        2.4655   -1.3443   -2.1563 H         1 ATP         0.0465
     36 H4'         3.8044   -0.1397   -0.4040 H         1 ATP         0.1379
     37 H3'         1.6764   -1.7639    0.2728 H         1 ATP         0.1317
     38 HO3'        2.2232   -1.2979    2.3953 H         1 ATP         0.4175
     39 H2'        -0.0011    0.0027    0.0003 H         1 ATP         0.0669
     40 HO2'       -0.1563   -0.9855    2.0596 H         1 ATP         0.4064
     41 H1'         1.7826    1.9024    1.6451 H         1 ATP         0.1285
     42 H8          0.7125    2.3429   -1.9292 H         1 ATP         0.2954
     43 HN62       -3.3217    6.4517    0.2629 H         1 ATP         0.4226
     44 H2         -1.5188    4.4223    3.7890 H         1 ATP         0.0826
     45 H45        -2.7470    5.7626    2.3665 H         1 ATP         0.4581
     46 H46        -1.0305    4.1680   -2.1054 H         1 ATP         0.5252
@<TRIPOS>BOND
     1    1    2 2
     2    1    3 1
     3    1    4 1
     4    1    8 1
     5    4   32 1
     6    5    6 2
     7    5    7 1
     8    5    8 1
     9    5   12 1
    10    9   10 2
    11    9   11 1
    12    9   12 1
    13    9   13 1
    14   11   33 1
    15   13   14 1
    16   14   15 1
    17   14   34 1
    18   14   35 1
    19   15   16 1
    20   15   17 1
    21   15   36 1
    22   16   21 1
    23   17   18 1
    24   17   19 1
    25   17   37 1
    26   18   38 1
    27   19   20 1
    28   19   21 1
    29   19   39 1
    30   20   40 1
    31   21   22 1
    32   21   41 1
    33   22   23 ar
    34   22   31 ar
    35   23   24 ar
    36   23   42 1
    37   24   25 ar
    38   24   46 1
    39   25   26 ar
    40   25   31 ar
    41   26   27 2
    42   26   28 ar
    43   27   43 1
    44   28   29 ar
    45   28   45 1
    46   29   30 ar
    47   29   44 1
    48   30   31 ar
@<TRIPOS>SUBSTRUCTURE
     1 ATP         1 GROUP 0 A     ****
@<TRIPOS>MOLECULE
[[[3,4-dihydroxy-5-(6-imino-7,8-dihydro-1~{H}-purin-8-ylium-9-yl)tetrahydrofuran-2-yl]methoxy-hydroxy-phosphoryl]oxy-oxido-phosphoryl] hydrogen phosphate
   46    48     1     0     0
SMALL
USER_CHARGES

@<TRIPOS>ATOM
      1 PG         -0.7665    0.6684   -6.0276 P.3       1 ATP         1.5644
      2 O1G        -1.8018    0.6687   -7.1302 O.co2     1 ATP        -0.8581
      3 O2G         0.4532    1.5593   -6.1060 O.co2     1 ATP        -0.8581
      4 O3G        -1.5220    0.9466   -4.6070 O.3       1 ATP        -0.7962
      5 PB          0.6839   -1.4760   -4.5924 P.3       1 ATP         1.6830
      6 O1B         0.1632   -1.0311   -3.2438 O.co2     1 ATP        -0.8633
      7 O2B         0.9346   -2.9380   -4.8881 O.co2     1 ATP        -0.8633
      8 O3B        -0.2866   -0.8655   -5.7530 O.3       1 ATP        -0.8097
      9 PA          3.5004   -0.6417   -4.2282 P.3       1 ATP         1.7610
     10 O1A         4.5984   -0.0927   -5.0923 O.2       1 ATP        -0.8554
     11 O2A         3.6979   -2.1908   -3.8049 O.3       1 ATP        -0.8102
     12 O3A         2.0409   -0.6327   -4.9257 O.3       1 ATP        -0.7693
     13 O5'         3.2903    0.1346   -2.8241 O.3       1 ATP        -0.5757
     14 C5'         2.2816   -0.2918   -1.9206 C.3       1 ATP         0.1911
     15 C4'         2.7248    0.0226   -0.4980 C.3       1 ATP         0.1218
     16 O4'         2.4697    1.4219   -0.2462 O.3       1 ATP        -0.4138
     17 C3'         1.9404   -0.7419    0.5596 C.3       1 ATP         0.1338
     18 O3'         2.7418   -0.8086    1.7389 O.3       1 ATP        -0.5756
     19 C2'         0.7477    0.1630    0.7858 C.3       1 ATP         0.0673
     20 O2'         0.1373   -0.0577    2.0407 O.3       1 ATP        -0.5671
     21 C1'         1.3733    1.5427    0.6747 C.3       1 ATP         0.3795
     22 N9          0.4520    2.5240    0.1767 N.pl3     1 ATP        -0.4175
     23 C8          0.2216    2.8192   -1.0985 C.ar      1 ATP         0.2552
     24 N7         -0.6906    3.7763   -1.2384 N.pl3     1 ATP        -0.4731
     25 C5         -1.0575    4.1037    0.0366 C.ar      1 ATP        -0.1295
     26 C6         -2.0291    5.0943    0.5330 C.ar      1 ATP         0.7196
     27 N6         -2.7093    5.8371   -0.2800 N.2       1 ATP        -0.8094
     28 N1         -2.1051    5.1136    1.9204 N.pl3     1 ATP        -0.8312
     29 C2         -1.3354    4.2774    2.7129 C.ar      1 ATP         0.6744
     30 N3         -0.4707    3.3945    2.2944 N.2       1 ATP        -0.5937
     31 C4         -0.3734    3.3525    0.9220 C.ar      1 ATP         0.2810
     32 HOG3       -0.9814    0.9767   -3.7890 H         1 ATP         0.4152
     33 HOA2        3.7523   -2.8715   -4.5091 H         1 ATP         0.4571
     34 H5'1        1.3514    0.2330   -2.1577 H         1 ATP         0.0465
     35 H5'2        2.1280   -1.3678   -2.0460 H         1 ATP         0.0465
     36 H4'         3.8044   -0.1397   -0.4040 H         1 ATP         0.1379
     37 H3'         1.6764   -1.7639    0.2728 H         1 ATP         0.1317
     38 HO3'        2.2232   -1.2979    2.3953 H         1 ATP         0.4175
     39 H2'        -0.0011    0.0027    0.0003 H         1 ATP         0.0669
     40 HO2'       -0.6141    0.5574    2.1082 H         1 ATP         0.4064
     41 H1'         1.7826    1.9024    1.6451 H         1 ATP         0.1285
     42 H8          0.7125    2.3429   -1.9292 H         1 ATP         0.2954
     43 HN62       -3.3217    6.4517    0.2629 H         1 ATP         0.4226
     44 H2         -1.5188    4.4223    3.7890 H         1 ATP         0.0826
     45 H45        -2.7470    5.7626    2.3665 H         1 ATP         0.4581
     46 H46        -1.0305    4.1680   -2.1054 H         1 ATP         0.5252
@<TRIPOS>BOND
     1    1    2 2
     2    1    3 1
     3    1    4 1
     4    1    8 1
     5    4   32 1
     6    5    6 2
     7    5    7 1
     8    5    8 1
     9    5   12 1
    10    9   10 2
    11    9   11 1
    12    9   12 1
    13    9   13 1
    14   11   33 1
    15   13   14 1
    16   14   15 1
    17   14   34 1
    18   14   35 1
    19   15   16 1
    20   15   17 1
    21   15   36 1
    22   16   21 1
    23   17   18 1
    24   17   19 1
    25   17   37 1
    26   18   38 1
    27   19   20 1
    28   19   21 1
    29   19   39 1
    30   20   40 1
    31   21   22 1
    32   21   41 1
    33   22   23 ar
    34   22   31 ar
    35   23   24 ar
    36   23   42 1
    37   24   25 ar
    38   24   46 1
    39   25   26 ar
    40   25   31 ar
    41   26   27 2
    42   26   28 ar
    43   27   43 1
    44   28   29 ar
    45   28   45 1
    46   29   30 ar
    47   29   44 1
    48   30   31 ar
@<TRIPOS>SUBSTRUCTURE
     1 ATP         1 GROUP 0 A     ****
@<TRIPOS>MOLECULE
[[[3,4-dihydroxy-5-(6-imino-7,8-dihydro-1~{H}-purin-8-ylium-9-yl)tetrahydrofuran-2-yl]methoxy-hydroxy-phosphoryl]oxy-oxido-phosphoryl] hydrogen phosphate
   46    48     1     0     0
SMALL
USER_CHARGES

@<TRIPOS>ATOM
      1 PG         -0.1317   -0.8861   -7.3761 P.3       1 ATP         1.5644
      2 O1G        -0.2616   -2.3121   -7.8633 O.co2     1 ATP        -0.8581
      3 O2G         1.0559   -0.0356   -7.7681 O.co2     1 ATP        -0.8581
      4 O3G        -1.4979   -0.0797   -7.7627 O.3       1 ATP        -0.7962
      5 PB          0.6839   -1.4760   -4.5924 P.3       1 ATP         1.6830
      6 O1B         0.1632   -1.0311   -3.2438 O.co2     1 ATP        -0.8633
      7 O2B         0.9346   -2.9380   -4.8881 O.co2     1 ATP        -0.8633
      8 O3B        -0.2866   -0.8655   -5.7530 O.3       1 ATP        -0.8097
      9 PA          3.5004   -0.6417   -4.2282 P.3       1 ATP         1.7610
     10 O1A         4.5984   -0.0927   -5.0923 O.2       1 ATP        -0.8554
     11 O2A         3.6979   -2.1908   -3.8049 O.3       1 ATP        -0.8102
     12 O3A         2.0409   -0.6327   -4.9257 O.3       1 ATP        -0.7693
     13 O5'         3.2903    0.1346   -2.8241 O.3       1 ATP        -0.5757
     14 C5'         2.2816   -0.2918   -1.9206 C.3       1 ATP         0.1911
     15 C4'         2.7248    0.0226   -0.4980 C.3       1 ATP         0.1218
     16 O4'         2.4697    1.4219   -0.2462 O.3       1 ATP        -0.4138
     17 C3'         1.9404   -0.7419    0.5596 C.3       1 ATP         0.1338
     18 O3'         2.7418   -0.8086    1.7389 O.3       1 ATP        -0.5756
     19 C2'         0.7477    0.1630    0.7858 C.3       1 ATP         0.0673
     20 O2'         0.1373   -0.0577    2.0407 O.3       1 ATP        -0.5671
     21 C1'         1.3733    1.5427    0.6747 C.3       1 ATP         0.3795
     22 N9          0.4520    2.5240    0.1767 N.pl3     1 ATP        -0.4175
     23 C8          0.2216    2.8192   -1.0985 C.ar      1 ATP         0.2552
     24 N7         -0.6906    3.7763   -1.2384 N.pl3     1 ATP        -0.4731
     25 C5         -1.0575    4.1037    0.0366 C.ar      1 ATP        -0.1295
     26 C6         -2.0291    5.0943    0.5330 C.ar      1 ATP         0.7196
     27 N6         -2.7093    5.8371   -0.2800 N.2       1 ATP        -0.8094
     28 N1         -2.1051    5.1136    1.9204 N.pl3     1 ATP        -0.8312
     29 C2         -1.3354    4.2774    2.7129 C.ar      1 ATP         0.6744
     30 N3         -0.4707    3.3945    2.2944 N.2       1 ATP        -0.5937
     31 C4         -0.3734    3.3525    0.9220 C.ar      1 ATP         0.2810
     32 HOG3       -1.5685    0.8660   -7.5116 H         1 ATP         0.4152
     33 HOA2        3.7523   -2.8715   -4.5091 H         1 ATP         0.4571
     34 H5'1        1.3514    0.2330   -2.1577 H         1 ATP         0.0465
     35 H5'2        2.1280   -1.3678   -2.0460 H         1 ATP         0.0465
     36 H4'         3.8044   -0.1397   -0.4040 H         1 ATP         0.1379
     37 H3'         1.6764   -1.7639    0.2728 H         1 ATP         0.1317
     38 HO3'        2.2232   -1.2979    2.3953 H         1 ATP         0.4175
     39 H2'        -0.0011    0.0027    0.0003 H         1 ATP         0.0669
     40 HO2'       -0.1563   -0.9855    2.0596 H         1 ATP         0.4064
     41 H1'         1.7826    1.9024    1.6451 H         1 ATP         0.1285
     42 H8          0.7125    2.3429   -1.9292 H         1 ATP         0.2954
     43 HN62       -3.3217    6.4517    0.2629 H         1 ATP         0.4226
     44 H2         -1.5188    4.4223    3.7890 H         1 ATP         0.0826
     45 H45        -2.7470    5.7626    2.3665 H         1 ATP         0.4581
     46 H46        -1.0305    4.1680   -2.1054 H         1 ATP         0.5252
@<TRIPOS>BOND
     1    1    2 2
     2    1    3 1
     3    1    4 1
     4    1    8 1
     5    4   32 1
     6    5    6 2
     7    5    7 1
     8    5    8 1
     9    5   12 1
    10    9   10 2
    11    9   11 1
    12    9   12 1
    13    9   13 1
    14   11   33 1
    15   13   14 1
    16   14   15 1
    17   14   34 1
    18   14   35 1
    19   15   16 1
    20   15   17 1
    21   15   36 1
    22   16   21 1
    23   17   18 1
    24   17   19 1
    25   17   37 1
    26   18   38 1
    27   19   20 1
    28   19   21 1
    29   19   39 1
    30   20   40 1
    31   21   22 1
    32   21   41 1
    33   22   23 ar
    34   22   31 ar
    35   23   24 ar
    36   23   42 1
    37   24   25 ar
    38   24   46 1
    39   25   26 ar
    40   25   31 ar
    41   26   27 2
    42   26   28 ar
    43   27   43 1
    44   28   29 ar
    45   28   45 1
    46   29   30 ar
    47   29   44 1
    48   30   31 ar
@<TRIPOS>SUBSTRUCTURE
     1 ATP         1 GROUP 0 A     ****
@<TRIPOS>MOLECULE
[[[3,4-dihydroxy-5-(6-imino-7,8-dihydro-1~{H}-purin-8-ylium-9-yl)tetrahydrofuran-2-yl]methoxy-hydroxy-phosphoryl]oxy-oxido-phosphoryl] hydrogen phosphate
   46    48     1     0     0
SMALL
USER_CHARGES

@<TRIPOS>ATOM
      1 PG         -0.8781   -0.2477   -3.6611 P.3       1 ATP         1.5644
      2 O1G        -1.2969    0.8708   -4.5891 O.co2     1 ATP        -0.8581
      3 O2G        -1.1039   -0.1458   -2.1691 O.co2     1 ATP        -0.8581
      4 O3G        -1.5451   -1.6399   -4.1932 O.3       1 ATP        -0.7962
      5 PB          1.4565   -0.9782   -5.3279 P.3       1 ATP         1.6830
      6 O1B         0.9446   -2.3137   -5.8200 O.co2     1 ATP        -0.8633
      7 O2B         1.4513    0.2384   -6.2267 O.co2     1 ATP        -0.8633
      8 O3B         0.6884   -0.6058   -3.9375 O.3       1 ATP        -0.8097
      9 PA          3.9521   -0.1769   -3.9527 P.3       1 ATP         1.7610
     10 O1A         4.6810    0.7861   -4.8443 O.2       1 ATP        -0.8554
     11 O2A         4.9166   -1.1746   -3.1207 O.3       1 ATP        -0.8102
     12 O3A         2.9635   -1.1884   -4.7377 O.3       1 ATP        -0.7693
     13 O5'         3.0213    0.5153   -2.8245 O.3       1 ATP        -0.5757
     14 C5'         2.2816   -0.2918   -1.9206 C.3       1 ATP         0.1911
     15 C4'         2.7248    0.0226   -0.4980 C.3       1 ATP         0.1218
     16 O4'         2.4697    1.4219   -0.2462 O.3       1 ATP        -0.4138
     17 C3'         1.9404   -0.7419    0.5596 C.3       1 ATP         0.1338
     18 O3'         2.7418   -0.8086    1.7389 O.3       1 ATP        -0.5756
     19 C2'         0.7477    0.1630    0.7858 C.3       1 ATP         0.0673
     20 O2'         0.1373   -0.0577    2.0407 O.3       1 ATP        -0.5671
     21 C1'         1.3733    1.5427    0.6747 C.3       1 ATP         0.3795
     22 N9          0.4520    2.5240    0.1767 N.pl3     1 ATP        -0.4175
     23 C8          0.2216    2.8192   -1.0985 C.ar      1 ATP         0.2552
     24 N7         -0.6906    3.7763   -1.2384 N.pl3     1 ATP        -0.4731
     25 C5         -1.0575    4.1037    0.0366 C.ar      1 ATP        -0.1295
     26 C6         -2.0291    5.0943    0.5330 C.ar      1 ATP         0.7196
     27 N6         -2.7093    5.8371   -0.2800 N.2       1 ATP        -0.8094
     28 N1         -2.1051    5.1136    1.9204 N.pl3     1 ATP        -0.8312
     29 C2         -1.3354    4.2774    2.7129 C.ar      1 ATP         0.6744
     30 N3         -0.4707    3.3945    2.2944 N.2       1 ATP        -0.5937
     31 C4         -0.3734    3.3525    0.9220 C.ar      1 ATP         0.2810
     32 HOG3       -1.3658   -2.4644   -3.6928 H         1 ATP         0.4152
     33 HOA2        5.5732   -0.7917   -2.5006 H         1 ATP         0.4571
     34 H5'1        1.2163   -0.0770   -2.0471 H         1 ATP         0.0465
     35 H5'2        2.4655   -1.3443   -2.1563 H         1 ATP         0.0465
     36 H4'         3.8044   -0.1397   -0.4040 H         1 ATP         0.1379
     37 H3'         1.6764   -1.7639    0.2728 H         1 ATP         0.1317
     38 HO3'        3.5554   -1.2733    1.4914 H         1 ATP         0.4175
     39 H2'        -0.0011    0.0027    0.0003 H         1 ATP         0.0669
     40 HO2'       -0.1563   -0.9855    2.0596 H         1 ATP         0.4064
     41 H1'         1.7826    1.9024    1.6451 H         1 ATP         0.1285
     42 H8          0.7125    2.3429   -1.9292 H         1 ATP         0.2954
     43 HN62       -3.3217    6.4517    0.2629 H         1 ATP         0.4226
     44 H2         -1.5188    4.4223    3.7890 H         1 ATP         0.0826
     45 H45        -2.7470    5.7626    2.3665 H         1 ATP         0.4581
     46 H46        -1.0305    4.1680   -2.1054 H         1 ATP         0.5252
@<TRIPOS>BOND
     1    1    2 2
     2    1    3 1
     3    1    4 1
     4    1    8 1
     5    4   32 1
     6    5    6 2
     7    5    7 1
     8    5    8 1
     9    5   12 1
    10    9   10 2
    11    9   11 1
    12    9   12 1
    13    9   13 1
    14   11   33 1
    15   13   14 1
    16   14   15 1
    17   14   34 1
    18   14   35 1
    19   15   16 1
    20   15   17 1
    21   15   36 1
    22   16   21 1
    23   17   18 1
    24   17   19 1
    25   17   37 1
    26   18   38 1
    27   19   20 1
    28   19   21 1
    29   19   39 1
    30   20   40 1
    31   21   22 1
    32   21   41 1
    33   22   23 ar
    34   22   31 ar
    35   23   24 ar
    36   23   42 1
    37   24   25 ar
    38   24   46 1
    39   25   26 ar
    40   25   31 ar
    41   26   27 2
    42   26   28 ar
    43   27   43 1
    44   28   29 ar
    45   28   45 1
    46   29   30 ar
    47   29   44 1
    48   30   31 ar
@<TRIPOS>SUBSTRUCTURE
     1 ATP         1 GROUP 0 A     ****
@<TRIPOS>MOLECULE
[[[3,4-dihydroxy-5-(6-imino-7,8-dihydro-1~{H}-purin-8-ylium-9-yl)tetrahydrofuran-2-yl]methoxy-hydroxy-phosphoryl]oxy-oxido-phosphoryl] hydrogen phosphate
   46    48     1     0     0
SMALL
USER_CHARGES

@<TRIPOS>ATOM
      1 PG         -1.6952   -2.1077   -5.9512 P.3       1 ATP         1.5644
      2 O1G        -2.5734   -2.0372   -4.7218 O.co2     1 ATP        -0.8581
      3 O2G        -1.3848   -3.4332   -6.6101 O.co2     1 ATP        -0.8581
      4 O3G        -2.3020   -1.0962   -7.0803 O.3       1 ATP        -0.7962
      5 PB          0.9137   -1.6890   -4.6169 P.3       1 ATP         1.6830
      6 O1B         0.3985   -1.5566   -3.2010 O.co2     1 ATP        -0.8633
      7 O2B         1.5866   -2.9596   -5.0864 O.co2     1 ATP        -0.8633
      8 O3B        -0.2971   -1.3254   -5.6481 O.3       1 ATP        -0.8097
      9 PA          3.3429   -0.0249   -4.3155 P.3       1 ATP         1.7610
     10 O1A         4.1316    0.9232   -5.1715 O.2       1 ATP        -0.8554
     11 O2A         4.0556   -1.4579   -4.0783 O.3       1 ATP        -0.8102
     12 O3A         1.9004   -0.4266   -4.9275 O.3       1 ATP        -0.7693
     13 O5'         3.0213    0.5153   -2.8245 O.3       1 ATP        -0.5757
     14 C5'         2.2816   -0.2918   -1.9206 C.3       1 ATP         0.1911
     15 C4'         2.7248    0.0226   -0.4980 C.3       1 ATP         0.1218
     16 O4'         2.4697    1.4219   -0.2462 O.3       1 ATP        -0.4138
     17 C3'         1.9404   -0.7419    0.5596 C.3       1 ATP         0.1338
     18 O3'         2.7418   -0.8086    1.7389 O.3       1 ATP        -0.5756
     19 C2'         0.7477    0.1630    0.7858 C.3       1 ATP         0.0673
     20 O2'         0.1373   -0.0577    2.0407 O.3       1 ATP        -0.5671
     21 C1'         1.3733    1.5427    0.6747 C.3       1 ATP         0.3795
     22 N9          0.4520    2.5240    0.1767 N.pl3     1 ATP        -0.4175
     23 C8         -0.2004    2.4829   -0.9804 C.ar      1 ATP         0.2552
     24 N7         -0.9830    3.5431   -1.1568 N.pl3     1 ATP        -0.4731
     25 C5         -0.8095    4.3012   -0.0331 C.ar      1 ATP        -0.1295
     26 C6         -1.4065    5.5904    0.3585 C.ar      1 ATP         0.7196
     27 N6         -2.2501    6.2030   -0.4084 N.2       1 ATP        -0.8094
     28 N1         -0.9585    6.0272    1.5994 N.pl3     1 ATP        -0.8312
     29 C2         -0.0508    5.3009    2.3532 C.ar      1 ATP         0.6744
     30 N3          0.4890    4.1592    2.0257 N.2       1 ATP        -0.5937
     31 C4          0.0637    3.7006    0.7995 C.ar      1 ATP         0.2810
     32 HOG3       -1.8397   -1.0284   -7.9430 H         1 ATP         0.4152
     33 HOA2        4.9339   -1.4843   -3.6423 H         1 ATP         0.4571
     34 H5'1        1.2163   -0.0770   -2.0471 H         1 ATP         0.0465
     35 H5'2        2.4655   -1.3443   -2.1563 H         1 ATP         0.0465
     36 H4'         3.8044   -0.1397   -0.4040 H         1 ATP         0.1379
     37 H3'         1.6764   -1.7639    0.2728 H         1 ATP         0.1317
     38 HO3'        2.2232   -1.2979    2.3953 H         1 ATP         0.4175
     39 H2'        -0.0011    0.0027    0.0003 H         1 ATP         0.0669
     40 HO2'       -0.6141    0.5574    2.1082 H         1 ATP         0.4064
     41 H1'         1.7826    1.9024    1.6451 H         1 ATP         0.1285
     42 H8         -0.1116    1.6863   -1.6984 H         1 ATP         0.2954
     43 HN62       -2.5420    7.0730    0.0447 H         1 ATP         0.4226
     44 H2          0.1969    5.7893    3.3086 H         1 ATP         0.0826
     45 H45        -1.3097    6.9080    1.9642 H         1 ATP         0.4581
     46 H46        -1.5735    3.7351   -1.9538 H         1 ATP         0.5252
@<TRIPOS>BOND
     1    1    2 2
     2    1    3 1
     3    1    4 1
     4    1    8 1
     5    4   32 1
     6    5    6 2
     7    5    7 1
     8    5    8 1
     9    5   12 1
    10    9   10 2
    11    9   11 1
    12    9   12 1
    13    9   13 1
    14   11   33 1
    15   13   14 1
    16   14   15 1
    17   14   34 1
    18   14   35 1
    19   15   16 1
    20   15   17 1
    21   15   36 1
    22   16   21 1
    23   17   18 1
    24   17   19 1
    25   17   37 1
    26   18   38 1
    27   19   20 1
    28   19   21 1
    29   19   39 1
    30   20   40 1
    31   21   22 1
    32   21   41 1
    33   22   23 ar
    34   22   31 ar
    35   23   24 ar
    36   23   42 1
    37   24   25 ar
    38   24   46 1
    39   25   26 ar
    40   25   31 ar
    41   26   27 2
    42   26   28 ar
    43   27   43 1
    44   28   29 ar
    45   28   45 1
    46   29   30 ar
    47   29   44 1
    48   30   31 ar
@<TRIPOS>SUBSTRUCTURE
     1 ATP         1 GROUP 0 A     ****
@<TRIPOS>MOLECULE
[[[3,4-dihydroxy-5-(6-imino-7,8-dihydro-1~{H}-purin-8-ylium-9-yl)tetrahydrofuran-2-yl]methoxy-hydroxy-phosphoryl]oxy-oxido-phosphoryl] hydrogen phosphate
   46    48     1     0     0
SMALL
USER_CHARGES

@<TRIPOS>ATOM
      1 PG          1.2094    1.1768   -7.5820 P.3       1 ATP         1.5644
      2 O1G         1.8817    2.4430   -7.0999 O.co2     1 ATP        -0.8581
      3 O2G        -0.2491    1.1750   -7.9825 O.co2     1 ATP        -0.8581
      4 O3G         2.0866    0.5607   -8.8137 O.3       1 ATP        -0.7962
      5 PB          0.9182   -0.1588   -4.9565 P.3       1 ATP         1.6830
      6 O1B         1.5536    0.9203   -4.1083 O.co2     1 ATP        -0.8633
      7 O2B        -0.5827   -0.3428   -4.9890 O.co2     1 ATP        -0.8633
      8 O3B         1.4607   -0.0053   -6.4875 O.3       1 ATP        -0.8097
      9 PA          1.5776   -2.4676   -3.2256 P.3       1 ATP         1.7610
     10 O1A         1.9399   -3.9114   -3.4201 O.2       1 ATP        -0.8554
     11 O2A         0.0775   -2.2267   -2.6692 O.3       1 ATP        -0.8102
     12 O3A         1.6142   -1.5868   -4.5819 O.3       1 ATP        -0.7693
     13 O5'         2.5245   -1.6648   -2.1878 O.3       1 ATP        -0.5757
     14 C5'         2.2816   -0.2918   -1.9206 C.3       1 ATP         0.1911
     15 C4'         2.7248    0.0226   -0.4980 C.3       1 ATP         0.1218
     16 O4'         2.4697    1.4219   -0.2462 O.3       1 ATP        -0.4138
     17 C3'         1.9404   -0.7419    0.5596 C.3       1 ATP         0.1338
     18 O3'         2.7418   -0.8086    1.7389 O.3       1 ATP        -0.5756
     19 C2'         0.7477    0.1630    0.7858 C.3       1 ATP         0.0673
     20 O2'         0.1373   -0.0577    2.0407 O.3       1 ATP        -0.5671
     21 C1'         1.3733    1.5427    0.6747 C.3       1 ATP         0.3795
     22 N9          0.4520    2.5240    0.1767 N.pl3     1 ATP        -0.4175
     23 C8         -0.2004    2.4829   -0.9804 C.ar      1 ATP         0.2552
     24 N7         -0.9830    3.5431   -1.1568 N.pl3     1 ATP        -0.4731
     25 C5         -0.8095    4.3012   -0.0331 C.ar      1 ATP        -0.1295
     26 C6         -1.4065    5.5904    0.3585 C.ar      1 ATP         0.7196
     27 N6         -2.2501    6.2030   -0.4084 N.2       1 ATP        -0.8094
     28 N1         -0.9585    6.0272    1.5994 N.pl3     1 ATP        -0.8312
     29 C2         -0.0508    5.3009    2.3532 C.ar      1 ATP         0.6744
     30 N3          0.4890    4.1592    2.0257 N.2       1 ATP        -0.5937
     31 C4          0.0637    3.7006    0.7995 C.ar      1 ATP         0.2810
     32 HOG3        1.7776   -0.2681   -9.2378 H         1 ATP         0.4152
     33 HOA2       -0.6823   -2.5501   -3.1987 H         1 ATP         0.4571
     34 H5'1        2.8432    0.3119   -2.6398 H         1 ATP         0.0465
     35 H5'2        1.2128   -0.0927   -2.0428 H         1 ATP         0.0465
     36 H4'         3.8044   -0.1397   -0.4040 H         1 ATP         0.1379
     37 H3'         1.6764   -1.7639    0.2728 H         1 ATP         0.1317
     38 HO3'        2.2232   -1.2979    2.3953 H         1 ATP         0.4175
     39 H2'        -0.0011    0.0027    0.0003 H         1 ATP         0.0669
     40 HO2'       -0.1563   -0.9855    2.0596 H         1 ATP         0.4064
     41 H1'         1.7826    1.9024    1.6451 H         1 ATP         0.1285
     42 H8         -0.1116    1.6863   -1.6984 H         1 ATP         0.2954
     43 HN62       -2.5420    7.0730    0.0447 H         1 ATP         0.4226
     44 H2          0.1969    5.7893    3.3086 H         1 ATP         0.0826
     45 H45        -1.3097    6.9080    1.9642 H         1 ATP         0.4581
     46 H46        -1.5735    3.7351   -1.9538 H         1 ATP         0.5252
@<TRIPOS>BOND
     1    1    2 2
     2    1    3 1
     3    1    4 1
     4    1    8 1
     5    4   32 1
     6    5    6 2
     7    5    7 1
     8    5    8 1
     9    5   12 1
    10    9   10 2
    11    9   11 1
    12    9   12 1
    13    9   13 1
    14   11   33 1
    15   13   14 1
    16   14   15 1
    17   14   34 1
    18   14   35 1
    19   15   16 1
    20   15   17 1
    21   15   36 1
    22   16   21 1
    23   17   18 1
    24   17   19 1
    25   17   37 1
    26   18   38 1
    27   19   20 1
    28   19   21 1
    29   19   39 1
    30   20   40 1
    31   21   22 1
    32   21   41 1
    33   22   23 ar
    34   22   31 ar
    35   23   24 ar
    36   23   42 1
    37   24   25 ar
    38   24   46 1
    39   25   26 ar
    40   25   31 ar
    41   26   27 2
    42   26   28 ar
    43   27   43 1
    44   28   29 ar
    45   28   45 1
    46   29   30 ar
    47   29   44 1
    48   30   31 ar
@<TRIPOS>SUBSTRUCTURE
     1 ATP         1 GROUP 0 A     ****
@<TRIPOS>MOLECULE
[[[3,4-dihydroxy-5-(6-imino-7,8-dihydro-1~{H}-purin-8-ylium-9-yl)tetrahydrofuran-2-yl]methoxy-hydroxy-phosphoryl]oxy-oxido-phosphoryl] hydrogen phosphate
   46    48     1     0     0
SMALL
USER_CHARGES

@<TRIPOS>ATOM
      1 PG          1.2410   -0.9668   -7.7858 P.3       1 ATP         1.5644
      2 O1G         2.0991   -0.4593   -8.9232 O.co2     1 ATP        -0.8581
      3 O2G        -0.2403   -1.2061   -7.9762 O.co2     1 ATP        -0.8581
      4 O3G         1.9157   -2.3320   -7.1965 O.3       1 ATP        -0.7962
      5 PB          0.9182   -0.1588   -4.9565 P.3       1 ATP         1.6830
      6 O1B         1.5536    0.9203   -4.1083 O.co2     1 ATP        -0.8633
      7 O2B        -0.5827   -0.3428   -4.9890 O.co2     1 ATP        -0.8633
      8 O3B         1.4607   -0.0053   -6.4875 O.3       1 ATP        -0.8097
      9 PA          1.5776   -2.4676   -3.2256 P.3       1 ATP         1.7610
     10 O1A         1.9399   -3.9114   -3.4201 O.2       1 ATP        -0.8554
     11 O2A         0.0775   -2.2267   -2.6692 O.3       1 ATP        -0.8102
     12 O3A         1.6142   -1.5868   -4.5819 O.3       1 ATP        -0.7693
     13 O5'         2.5245   -1.6648   -2.1878 O.3       1 ATP        -0.5757
     14 C5'         2.2816   -0.2918   -1.9206 C.3       1 ATP         0.1911
     15 C4'         2.7248    0.0226   -0.4980 C.3       1 ATP         0.1218
     16 O4'         2.4697    1.4219   -0.2462 O.3       1 ATP        -0.4138
     17 C3'         1.9404   -0.7419    0.5596 C.3       1 ATP         0.1338
     18 O3'         2.7418   -0.8086    1.7389 O.3       1 ATP        -0.5756
     19 C2'         0.7477    0.1630    0.7858 C.3       1 ATP         0.0673
     20 O2'         0.1373   -0.0577    2.0407 O.3       1 ATP        -0.5671
     21 C1'         1.3733    1.5427    0.6747 C.3       1 ATP         0.3795
     22 N9          0.4520    2.5240    0.1767 N.pl3     1 ATP        -0.4175
     23 C8          0.2216    2.8192   -1.0985 C.ar      1 ATP         0.2552
     24 N7         -0.6906    3.7763   -1.2384 N.pl3     1 ATP        -0.4731
     25 C5         -1.0575    4.1037    0.0366 C.ar      1 ATP        -0.1295
     26 C6         -2.0291    5.0943    0.5330 C.ar      1 ATP         0.7196
     27 N6         -2.7093    5.8371   -0.2800 N.2       1 ATP        -0.8094
     28 N1         -2.1051    5.1136    1.9204 N.pl3     1 ATP        -0.8312
     29 C2         -1.3354    4.2774    2.7129 C.ar      1 ATP         0.6744
     30 N3         -0.4707    3.3945    2.2944 N.2       1 ATP        -0.5937
     31 C4         -0.3734    3.3525    0.9220 C.ar      1 ATP         0.2810
     32 HOG3        1.4729   -2.7860   -6.4481 H         1 ATP         0.4152
     33 HOA2       -0.1740   -2.6106   -1.8022 H         1 ATP         0.4571
     34 H5'1        2.8432    0.3119   -2.6398 H         1 ATP         0.0465
     35 H5'2        1.2128   -0.0927   -2.0428 H         1 ATP         0.0465
     36 H4'         3.8044   -0.1397   -0.4040 H         1 ATP         0.1379
     37 H3'         1.6764   -1.7639    0.2728 H         1 ATP         0.1317
     38 HO3'        2.2232   -1.2979    2.3953 H         1 ATP         0.4175
     39 H2'        -0.0011    0.0027    0.0003 H         1 ATP         0.0669
     40 HO2'       -0.6141    0.5574    2.1082 H         1 ATP         0.4064
     41 H1'         1.7826    1.9024    1.6451 H         1 ATP         0.1285
     42 H8          0.7125    2.3429   -1.9292 H         1 ATP         0.2954
     43 HN62       -3.3217    6.4517    0.2629 H         1 ATP         0.4226
     44 H2         -1.5188    4.4223    3.7890 H         1 ATP         0.0826
     45 H45        -2.7470    5.7626    2.3665 H         1 ATP         0.4581
     46 H46        -1.0305    4.1680   -2.1054 H         1 ATP         0.5252
@<TRIPOS>BOND
     1    1    2 2
     2    1    3 1
     3    1    4 1
     4    1    8 1
     5    4   32 1
     6    5    6 2
     7    5    7 1
     8    5    8 1
     9    5   12 1
    10    9   10 2
    11    9   11 1
    12    9   12 1
    13    9   13 1
    14   11   33 1
    15   13   14 1
    16   14   15 1
    17   14   34 1
    18   14   35 1
    19   15   16 1
    20   15   17 1
    21   15   36 1
    22   16   21 1
    23   17   18 1
    24   17   19 1
    25   17   37 1
    26   18   38 1
    27   19   20 1
    28   19   21 1
    29   19   39 1
    30   20   40 1
    31   21   22 1
    32   21   41 1
    33   22   23 ar
    34   22   31 ar
    35   23   24 ar
    36   23   42 1
    37   24   25 ar
    38   24   46 1
    39   25   26 ar
    40   25   31 ar
    41   26   27 2
    42   26   28 ar
    43   27   43 1
    44   28   29 ar
    45   28   45 1
    46   29   30 ar
    47   29   44 1
    48   30   31 ar
@<TRIPOS>SUBSTRUCTURE
     1 ATP         1 GROUP 0 A     ****
@<TRIPOS>MOLECULE
[[[3,4-dihydroxy-5-(6-imino-7,8-dihydro-1~{H}-purin-8-ylium-9-yl)tetrahydrofuran-2-yl]methoxy-hydroxy-phosphoryl]oxy-oxido-phosphoryl] hydrogen phosphate
   46    48     1     0     0
SMALL
USER_CHARGES

@<TRIPOS>ATOM
      1 PG         -0.2855   -1.1521   -7.2694 P.3       1 ATP         1.5644
      2 O1G         0.7918   -0.1608   -7.6492 O.co2     1 ATP        -0.8581
      3 O2G        -1.7071   -0.9802   -7.7562 O.co2     1 ATP        -0.8581
      4 O3G         0.2235   -2.6504   -7.6721 O.3       1 ATP        -0.7962
      5 PB          0.9137   -1.6890   -4.6169 P.3       1 ATP         1.6830
      6 O1B         0.3985   -1.5566   -3.2010 O.co2     1 ATP        -0.8633
      7 O2B         1.5866   -2.9596   -5.0864 O.co2     1 ATP        -0.8633
      8 O3B        -0.2971   -1.3254   -5.6481 O.3       1 ATP        -0.8097
      9 PA          3.3429   -0.0249   -4.3155 P.3       1 ATP         1.7610
     10 O1A         4.1316    0.9232   -5.1715 O.2       1 ATP        -0.8554
     11 O2A         4.0556   -1.4579   -4.0783 O.3       1 ATP        -0.8102
     12 O3A         1.9004   -0.4266   -4.9275 O.3       1 ATP        -0.7693
     13 O5'         3.0213    0.5153   -2.8245 O.3       1 ATP        -0.5757
     14 C5'         2.2816   -0.2918   -1.9206 C.3       1 ATP         0.1911
     15 C4'         2.7248    0.0226   -0.4980 C.3       1 ATP         0.1218
     16 O4'         2.4697    1.4219   -0.2462 O.3       1 ATP        -0.4138
     17 C3'         1.9404   -0.7419    0.5596 C.3       1 ATP         0.1338
     18 O3'         2.7418   -0.8086    1.7389 O.3       1 ATP        -0.5756
     19 C2'         0.7477    0.1630    0.7858 C.3       1 ATP         0.0673
     20 O2'         0.1373   -0.0577    2.0407 O.3       1 ATP        -0.5671
     21 C1'         1.3733    1.5427    0.6747 C.3       1 ATP         0.3795
     22 N9          0.4520    2.5240    0.1767 N.pl3     1 ATP        -0.4175
     23 C8          0.2216    2.8192   -1.0985 C.ar      1 ATP         0.2552
     24 N7         -0.6906    3.7763   -1.2384 N.pl3     1 ATP        -0.4731
     25 C5         -1.0575    4.1037    0.0366 C.ar      1 ATP        -0.1295
     26 C6         -2.0291    5.0943    0.5330 C.ar      1 ATP         0.7196
     27 N6         -2.7093    5.8371   -0.2800 N.2       1 ATP        -0.8094
     28 N1         -2.1051    5.1136    1.9204 N.pl3     1 ATP        -0.8312
     29 C2         -1.3354    4.2774    2.7129 C.ar      1 ATP         0.6744
     30 N3         -0.4707    3.3945    2.2944 N.2       1 ATP        -0.5937
     31 C4         -0.3734    3.3525    0.9220 C.ar      1 ATP         0.2810
     32 HOG3       -0.3692   -3.4100   -7.4875 H         1 ATP         0.4152
     33 HOA2        4.2608   -2.0199   -4.8557 H         1 ATP         0.4571
     34 H5'1        1.2163   -0.0770   -2.0471 H         1 ATP         0.0465
     35 H5'2        2.4655   -1.3443   -2.1563 H         1 ATP         0.0465
     36 H4'         3.8044   -0.1397   -0.4040 H         1 ATP         0.1379
     37 H3'         1.6764   -1.7639    0.2728 H         1 ATP         0.1317
     38 HO3'        3.5554   -1.2733    1.4914 H         1 ATP         0.4175
     39 H2'        -0.0011    0.0027    0.0003 H         1 ATP         0.0669
     40 HO2'       -0.6141    0.5574    2.1082 H         1 ATP         0.4064
     41 H1'         1.7826    1.9024    1.6451 H         1 ATP         0.1285
     42 H8          0.7125    2.3429   -1.9292 H         1 ATP         0.2954
     43 HN62       -3.3217    6.4517    0.2629 H         1 ATP         0.4226
     44 H2         -1.5188    4.4223    3.7890 H         1 ATP         0.0826
     45 H45        -2.7470    5.7626    2.3665 H         1 ATP         0.4581
     46 H46        -1.0305    4.1680   -2.1054 H         1 ATP         0.5252
@<TRIPOS>BOND
     1    1    2 2
     2    1    3 1
     3    1    4 1
     4    1    8 1
     5    4   32 1
     6    5    6 2
     7    5    7 1
     8    5    8 1
     9    5   12 1
    10    9   10 2
    11    9   11 1
    12    9   12 1
    13    9   13 1
    14   11   33 1
    15   13   14 1
    16   14   15 1
    17   14   34 1
    18   14   35 1
    19   15   16 1
    20   15   17 1
    21   15   36 1
    22   16   21 1
    23   17   18 1
    24   17   19 1
    25   17   37 1
    26   18   38 1
    27   19   20 1
    28   19   21 1
    29   19   39 1
    30   20   40 1
    31   21   22 1
    32   21   41 1
    33   22   23 ar
    34   22   31 ar
    35   23   24 ar
    36   23   42 1
    37   24   25 ar
    38   24   46 1
    39   25   26 ar
    40   25   31 ar
    41   26   27 2
    42   26   28 ar
    43   27   43 1
    44   28   29 ar
    45   28   45 1
    46   29   30 ar
    47   29   44 1
    48   30   31 ar
@<TRIPOS>SUBSTRUCTURE
     1 ATP         1 GROUP 0 A     ****
@<TRIPOS>MOLECULE
[[[3,4-dihydroxy-5-(6-imino-7,8-dihydro-1~{H}-purin-8-ylium-9-yl)tetrahydrofuran-2-yl]methoxy-hydroxy-phosphoryl]oxy-oxido-phosphoryl] hydrogen phosphate
   46    48     1     0     0
SMALL
USER_CHARGES

@<TRIPOS>ATOM
      1 PG          0.3120    1.2432   -7.3171 P.3       1 ATP         1.5644
      2 O1G         0.8878    1.1488   -8.7125 O.co2     1 ATP        -0.8581
      3 O2G         0.2885    2.5598   -6.5731 O.co2     1 ATP        -0.8581
      4 O3G        -1.2020    0.6320   -7.3386 O.3       1 ATP        -0.7962
      5 PB          0.6873   -0.3402   -4.8445 P.3       1 ATP         1.6830
      6 O1B         1.0205    0.8074   -3.9172 O.co2     1 ATP        -0.8633
      7 O2B        -0.6755   -0.9957   -4.8158 O.co2     1 ATP        -0.8633
      8 O3B         1.0181    0.1143   -6.3760 O.3       1 ATP        -0.8097
      9 PA          2.1902   -2.4548   -3.4193 P.3       1 ATP         1.7610
     10 O1A         2.9716   -3.6811   -3.7924 O.2       1 ATP        -0.8554
     11 O2A         0.7452   -2.7614   -2.7590 O.3       1 ATP        -0.8102
     12 O3A         1.8285   -1.4938   -4.6692 O.3       1 ATP        -0.7693
     13 O5'         2.9216   -1.4836   -2.3516 O.3       1 ATP        -0.5757
     14 C5'         2.2816   -0.2918   -1.9206 C.3       1 ATP         0.1911
     15 C4'         2.7248    0.0226   -0.4980 C.3       1 ATP         0.1218
     16 O4'         2.4697    1.4219   -0.2462 O.3       1 ATP        -0.4138
     17 C3'         1.9404   -0.7419    0.5596 C.3       1 ATP         0.1338
     18 O3'         2.7418   -0.8086    1.7389 O.3       1 ATP        -0.5756
     19 C2'         0.7477    0.1630    0.7858 C.3       1 ATP         0.0673
     20 O2'         0.1373   -0.0577    2.0407 O.3       1 ATP        -0.5671
     21 C1'         1.3733    1.5427    0.6747 C.3       1 ATP         0.3795
     22 N9          0.4520    2.5240    0.1767 N.pl3     1 ATP        -0.4175
     23 C8          0.2216    2.8192   -1.0985 C.ar      1 ATP         0.2552
     24 N7         -0.6906    3.7763   -1.2384 N.pl3     1 ATP        -0.4731
     25 C5         -1.0575    4.1037    0.0366 C.ar      1 ATP        -0.1295
     26 C6         -2.0291    5.0943    0.5330 C.ar      1 ATP         0.7196
     27 N6         -2.7093    5.8371   -0.2800 N.2       1 ATP        -0.8094
     28 N1         -2.1051    5.1136    1.9204 N.pl3     1 ATP        -0.8312
     29 C2         -1.3354    4.2774    2.7129 C.ar      1 ATP         0.6744
     30 N3         -0.4707    3.3945    2.2944 N.2       1 ATP        -0.5937
     31 C4         -0.3734    3.3525    0.9220 C.ar      1 ATP         0.2810
     32 HOG3       -1.7133    0.6223   -6.5014 H         1 ATP         0.4152
     33 HOA2        0.7043   -3.2806   -1.9277 H         1 ATP         0.4571
     34 H5'1        2.5589    0.5217   -2.5976 H         1 ATP         0.0465
     35 H5'2        1.1982   -0.4388   -1.9617 H         1 ATP         0.0465
     36 H4'         3.8044   -0.1397   -0.4040 H         1 ATP         0.1379
     37 H3'         1.6764   -1.7639    0.2728 H         1 ATP         0.1317
     38 HO3'        2.2232   -1.2979    2.3953 H         1 ATP         0.4175
     39 H2'        -0.0011    0.0027    0.0003 H         1 ATP         0.0669
     40 HO2'       -0.6141    0.5574    2.1082 H         1 ATP         0.4064
     41 H1'         1.7826    1.9024    1.6451 H         1 ATP         0.1285
     42 H8          0.7125    2.3429   -1.9292 H         1 ATP         0.2954
     43 HN62       -3.3217    6.4517    0.2629 H         1 ATP         0.4226
     44 H2         -1.5188    4.4223    3.7890 H         1 ATP         0.0826
     45 H45        -2.7470    5.7626    2.3665 H         1 ATP         0.4581
     46 H46        -1.0305    4.1680   -2.1054 H         1 ATP         0.5252
@<TRIPOS>BOND
     1    1    2 2
     2    1    3 1
     3    1    4 1
     4    1    8 1
     5    4   32 1
     6    5    6 2
     7    5    7 1
     8    5    8 1
     9    5   12 1
    10    9   10 2
    11    9   11 1
    12    9   12 1
    13    9   13 1
    14   11   33 1
    15   13   14 1
    16   14   15 1
    17   14   34 1
    18   14   35 1
    19   15   16 1
    20   15   17 1
    21   15   36 1
    22   16   21 1
    23   17   18 1
    24   17   19 1
    25   17   37 1
    26   18   38 1
    27   19   20 1
    28   19   21 1
    29   19   39 1
    30   20   40 1
    31   21   22 1
    32   21   41 1
    33   22   23 ar
    34   22   31 ar
    35   23   24 ar
    36   23   42 1
    37   24   25 ar
    38   24   46 1
    39   25   26 ar
    40   25   31 ar
    41   26   27 2
    42   26   28 ar
    43   27   43 1
    44   28   29 ar
    45   28   45 1
    46   29   30 ar
    47   29   44 1
    48   30   31 ar
@<TRIPOS>SUBSTRUCTURE
     1 ATP         1 GROUP 0 A     ****
@<TRIPOS>MOLECULE
[[[3,4-dihydroxy-5-(6-imino-7,8-dihydro-1~{H}-purin-8-ylium-9-yl)tetrahydrofuran-2-yl]methoxy-hydroxy-phosphoryl]oxy-oxido-phosphoryl] hydrogen phosphate
   46    48     1     0     0
SMALL
USER_CHARGES

@<TRIPOS>ATOM
      1 PG          2.3668    5.2247   -1.3165 P.3       1 ATP         1.5644
      2 O1G         1.7855    5.6883    0.0005 O.co2     1 ATP        -0.8581
      3 O2G         3.1090    6.1843   -2.2197 O.co2     1 ATP        -0.8581
      4 O3G         3.3236    3.9319   -1.0345 O.3       1 ATP        -0.7962
      5 PB          1.2853    3.6613   -3.5856 P.3       1 ATP         1.6830
      6 O1B        -0.0603    3.0270   -3.8588 O.co2     1 ATP        -0.8633
      7 O2B         1.9583    4.5382   -4.6179 O.co2     1 ATP        -0.8633
      8 O3B         1.1988    4.4812   -2.1777 O.3       1 ATP        -0.8097
      9 PA          2.9499    1.2416   -3.9540 P.3       1 ATP         1.7610
     10 O1A         4.1019    1.6058   -4.8451 O.2       1 ATP        -0.8554
     11 O2A         1.6689    0.6367   -4.7357 O.3       1 ATP        -0.8102
     12 O3A         2.3267    2.4887   -3.1336 O.3       1 ATP        -0.7693
     13 O5'         3.2903    0.1346   -2.8241 O.3       1 ATP        -0.5757
     14 C5'         2.2816   -0.2918   -1.9206 C.3       1 ATP         0.1911
     15 C4'         2.7248    0.0226   -0.4980 C.3       1 ATP         0.1218
     16 O4'         2.4697    1.4219   -0.2462 O.3       1 ATP        -0.4138
     17 C3'         1.9404   -0.7419    0.5596 C.3       1 ATP         0.1338
     18 O3'         2.7418   -0.8086    1.7389 O.3       1 ATP        -0.5756
     19 C2'         0.7477    0.1630    0.7858 C.3       1 ATP         0.0673
     20 O2'         0.1373   -0.0577    2.0407 O.3       1 ATP        -0.5671
     21 C1'         1.3733    1.5427    0.6747 C.3       1 ATP         0.3795
     22 N9          0.4520    2.5240    0.1767 N.pl3     1 ATP        -0.4175
     23 C8         -0.2004    2.4829   -0.9804 C.ar      1 ATP         0.2552
     24 N7         -0.9830    3.5431   -1.1568 N.pl3     1 ATP        -0.4731
     25 C5         -0.8095    4.3012   -0.0331 C.ar      1 ATP        -0.1295
     26 C6         -1.4065    5.5904    0.3585 C.ar      1 ATP         0.7196
     27 N6         -2.2501    6.2030   -0.4084 N.2       1 ATP        -0.8094
     28 N1         -0.9585    6.0272    1.5994 N.pl3     1 ATP        -0.8312
     29 C2         -0.0508    5.3009    2.3532 C.ar      1 ATP         0.6744
     30 N3          0.4890    4.1592    2.0257 N.2       1 ATP        -0.5937
     31 C4          0.0637    3.7006    0.7995 C.ar      1 ATP         0.2810
     32 HOG3        3.7775    3.5122   -1.7962 H         1 ATP         0.4152
     33 HOA2        1.7782   -0.1847   -5.2607 H         1 ATP         0.4571
     34 H5'1        1.3514    0.2330   -2.1577 H         1 ATP         0.0465
     35 H5'2        2.1280   -1.3678   -2.0460 H         1 ATP         0.0465
     36 H4'         3.8044   -0.1397   -0.4040 H         1 ATP         0.1379
     37 H3'         1.6764   -1.7639    0.2728 H         1 ATP         0.1317
     38 HO3'        2.2232   -1.2979    2.3953 H         1 ATP         0.4175
     39 H2'        -0.0011    0.0027    0.0003 H         1 ATP         0.0669
     40 HO2'       -0.6141    0.5574    2.1082 H         1 ATP         0.4064
     41 H1'         1.7826    1.9024    1.6451 H         1 ATP         0.1285
     42 H8         -0.1116    1.6863   -1.6984 H         1 ATP         0.2954
     43 HN62       -2.5420    7.0730    0.0447 H         1 ATP         0.4226
     44 H2          0.1969    5.7893    3.3086 H         1 ATP         0.0826
     45 H45        -1.3097    6.9080    1.9642 H         1 ATP         0.4581
     46 H46        -1.5735    3.7351   -1.9538 H         1 ATP         0.5252
@<TRIPOS>BOND
     1    1    2 2
     2    1    3 1
     3    1    4 1
     4    1    8 1
     5    4   32 1
     6    5    6 2
     7    5    7 1
     8    5    8 1
     9    5   12 1
    10    9   10 2
    11    9   11 1
    12    9   12 1
    13    9   13 1
    14   11   33 1
    15   13   14 1
    16   14   15 1
    17   14   34 1
    18   14   35 1
    19   15   16 1
    20   15   17 1
    21   15   36 1
    22   16   21 1
    23   17   18 1
    24   17   19 1
    25   17   37 1
    26   18   38 1
    27   19   20 1
    28   19   21 1
    29   19   39 1
    30   20   40 1
    31   21   22 1
    32   21   41 1
    33   22   23 ar
    34   22   31 ar
    35   23   24 ar
    36   23   42 1
    37   24   25 ar
    38   24   46 1
    39   25   26 ar
    40   25   31 ar
    41   26   27 2
    42   26   28 ar
    43   27   43 1
    44   28   29 ar
    45   28   45 1
    46   29   30 ar
    47   29   44 1
    48   30   31 ar
@<TRIPOS>SUBSTRUCTURE
     1 ATP         1 GROUP 0 A     ****
@<TRIPOS>MOLECULE
[[[3,4-dihydroxy-5-(6-imino-7,8-dihydro-1~{H}-purin-8-ylium-9-yl)tetrahydrofuran-2-yl]methoxy-hydroxy-phosphoryl]oxy-oxido-phosphoryl] hydrogen phosphate
   46    48     1     0     0
SMALL
USER_CHARGES

@<TRIPOS>ATOM
      1 PG          7.4744   -3.9200   -1.2939 P.3       1 ATP         1.5644
      2 O1G         7.6300   -5.2398   -2.0161 O.co2     1 ATP        -0.8581
      3 O2G         7.1377   -3.8751    0.1799 O.co2     1 ATP        -0.8581
      4 O3G         8.8193   -3.0291   -1.5465 O.3       1 ATP        -0.7962
      5 PB          5.9760   -1.4364   -1.8841 P.3       1 ATP         1.6830
      6 O1B         5.2389   -1.3264   -0.5679 O.co2     1 ATP        -0.8633
      7 O2B         7.1642   -0.5515   -2.1890 O.co2     1 ATP        -0.8633
      8 O3B         6.4100   -2.9928   -2.1099 O.3       1 ATP        -0.8097
      9 PA          3.5156   -2.0921   -3.3934 P.3       1 ATP         1.7610
     10 O1A         3.6877   -3.5728   -3.5714 O.2       1 ATP        -0.8554
     11 O2A         2.9211   -1.3302   -4.6911 O.3       1 ATP        -0.8102
     12 O3A         4.8921   -1.2960   -3.0962 O.3       1 ATP        -0.7693
     13 O5'         2.5245   -1.6648   -2.1878 O.3       1 ATP        -0.5757
     14 C5'         2.2816   -0.2918   -1.9206 C.3       1 ATP         0.1911
     15 C4'         2.7248    0.0226   -0.4980 C.3       1 ATP         0.1218
     16 O4'         2.4697    1.4219   -0.2462 O.3       1 ATP        -0.4138
     17 C3'         1.9404   -0.7419    0.5596 C.3       1 ATP         0.1338
     18 O3'         2.7418   -0.8086    1.7389 O.3       1 ATP        -0.5756
     19 C2'         0.7477    0.1630    0.7858 C.3       1 ATP         0.0673
     20 O2'         0.1373   -0.0577    2.0407 O.3       1 ATP        -0.5671
     21 C1'         1.3733    1.5427    0.6747 C.3       1 ATP         0.3795
     22 N9          0.4520    2.5240    0.1767 N.pl3     1 ATP        -0.4175
     23 C8          0.2216    2.8192   -1.0985 C.ar      1 ATP         0.2552
     24 N7         -0.6906    3.7763   -1.2384 N.pl3     1 ATP        -0.4731
     25 C5         -1.0575    4.1037    0.0366 C.ar      1 ATP        -0.1295
     26 C6         -2.0291    5.0943    0.5330 C.ar      1 ATP         0.7196
     27 N6         -2.7093    5.8371   -0.2800 N.2       1 ATP        -0.8094
     28 N1         -2.1051    5.1136    1.9204 N.pl3     1 ATP        -0.8312
     29 C2         -1.3354    4.2774    2.7129 C.ar      1 ATP         0.6744
     30 N3         -0.4707    3.3945    2.2944 N.2       1 ATP        -0.5937
     31 C4         -0.3734    3.3525    0.9220 C.ar      1 ATP         0.2810
     32 HOG3        8.8721   -2.1381   -1.1395 H         1 ATP         0.4152
     33 HOA2        3.4207   -1.3697   -5.5343 H         1 ATP         0.4571
     34 H5'1        2.8432    0.3119   -2.6398 H         1 ATP         0.0465
     35 H5'2        1.2128   -0.0927   -2.0428 H         1 ATP         0.0465
     36 H4'         3.8044   -0.1397   -0.4040 H         1 ATP         0.1379
     37 H3'         1.6764   -1.7639    0.2728 H         1 ATP         0.1317
     38 HO3'        3.5554   -1.2733    1.4914 H         1 ATP         0.4175
     39 H2'        -0.0011    0.0027    0.0003 H         1 ATP         0.0669
     40 HO2'        0.8082    0.1199    2.7232 H         1 ATP         0.4064
     41 H1'         1.7826    1.9024    1.6451 H         1 ATP         0.1285
     42 H8          0.7125    2.3429   -1.9292 H         1 ATP         0.2954
     43 HN62       -3.3217    6.4517    0.2629 H         1 ATP         0.4226
     44 H2         -1.5188    4.4223    3.7890 H         1 ATP         0.0826
     45 H45        -2.7470    5.7626    2.3665 H         1 ATP         0.4581
     46 H46        -1.0305    4.1680   -2.1054 H         1 ATP         0.5252
@<TRIPOS>BOND
     1    1    2 2
     2    1    3 1
     3    1    4 1
     4    1    8 1
     5    4   32 1
     6    5    6 2
     7    5    7 1
     8    5    8 1
     9    5   12 1
    10    9   10 2
    11    9   11 1
    12    9   12 1
    13    9   13 1
    14   11   33 1
    15   13   14 1
    16   14   15 1
    17   14   34 1
    18   14   35 1
    19   15   16 1
    20   15   17 1
    21   15   36 1
    22   16   21 1
    23   17   18 1
    24   17   19 1
    25   17   37 1
    26   18   38 1
    27   19   20 1
    28   19   21 1
    29   19   39 1
    30   20   40 1
    31   21   22 1
    32   21   41 1
    33   22   23 ar
    34   22   31 ar
    35   23   24 ar
    36   23   42 1
    37   24   25 ar
    38   24   46 1
    39   25   26 ar
    40   25   31 ar
    41   26   27 2
    42   26   28 ar
    43   27   43 1
    44   28   29 ar
    45   28   45 1
    46   29   30 ar
    47   29   44 1
    48   30   31 ar
@<TRIPOS>SUBSTRUCTURE
     1 ATP         1 GROUP 0 A     ****
@<TRIPOS>MOLECULE
[[[3,4-dihydroxy-5-(6-imino-7,8-dihydro-1~{H}-purin-8-ylium-9-yl)tetrahydrofuran-2-yl]methoxy-hydroxy-phosphoryl]oxy-oxido-phosphoryl] hydrogen phosphate
   46    48     1     0     0
SMALL
USER_CHARGES

@<TRIPOS>ATOM
      1 PG          0.0735    3.0295   -6.1603 P.3       1 ATP         1.5644
      2 O1G        -0.3244    3.7806   -4.9093 O.co2     1 ATP        -0.8581
      3 O2G        -0.9600    2.6325   -7.1908 O.co2     1 ATP        -0.8581
      4 O3G         1.2605    3.8632   -6.9101 O.3       1 ATP        -0.7962
      5 PB          0.4742    0.3668   -4.9307 P.3       1 ATP         1.6830
      6 O1B         0.1353    0.7478   -3.5067 O.co2     1 ATP        -0.8633
      7 O2B        -0.5078   -0.4009   -5.7875 O.co2     1 ATP        -0.8633
      8 O3B         0.9324    1.7104   -5.7347 O.3       1 ATP        -0.8097
      9 PA          3.3429   -0.0249   -4.3155 P.3       1 ATP         1.7610
     10 O1A         4.1316    0.9232   -5.1715 O.2       1 ATP        -0.8554
     11 O2A         4.0556   -1.4579   -4.0783 O.3       1 ATP        -0.8102
     12 O3A         1.9004   -0.4266   -4.9275 O.3       1 ATP        -0.7693
     13 O5'         3.0213    0.5153   -2.8245 O.3       1 ATP        -0.5757
     14 C5'         2.2816   -0.2918   -1.9206 C.3       1 ATP         0.1911
     15 C4'         2.7248    0.0226   -0.4980 C.3       1 ATP         0.1218
     16 O4'         2.4697    1.4219   -0.2462 O.3       1 ATP        -0.4138
     17 C3'         1.9404   -0.7419    0.5596 C.3       1 ATP         0.1338
     18 O3'         2.7418   -0.8086    1.7389 O.3       1 ATP        -0.5756
     19 C2'         0.7477    0.1630    0.7858 C.3       1 ATP         0.0673
     20 O2'         0.1373   -0.0577    2.0407 O.3       1 ATP        -0.5671
     21 C1'         1.3733    1.5427    0.6747 C.3       1 ATP         0.3795
     22 N9          0.4520    2.5240    0.1767 N.pl3     1 ATP        -0.4175
     23 C8         -0.2004    2.4829   -0.9804 C.ar      1 ATP         0.2552
     24 N7         -0.9830    3.5431   -1.1568 N.pl3     1 ATP        -0.4731
     25 C5         -0.8095    4.3012   -0.0331 C.ar      1 ATP        -0.1295
     26 C6         -1.4065    5.5904    0.3585 C.ar      1 ATP         0.7196
     27 N6         -2.2501    6.2030   -0.4084 N.2       1 ATP        -0.8094
     28 N1         -0.9585    6.0272    1.5994 N.pl3     1 ATP        -0.8312
     29 C2         -0.0508    5.3009    2.3532 C.ar      1 ATP         0.6744
     30 N3          0.4890    4.1592    2.0257 N.2       1 ATP        -0.5937
     31 C4          0.0637    3.7006    0.7995 C.ar      1 ATP         0.2810
     32 HOG3        1.6291    3.5021   -7.7444 H         1 ATP         0.4152
     33 HOA2        4.9339   -1.4843   -3.6423 H         1 ATP         0.4571
     34 H5'1        1.2163   -0.0770   -2.0471 H         1 ATP         0.0465
     35 H5'2        2.4655   -1.3443   -2.1563 H         1 ATP         0.0465
     36 H4'         3.8044   -0.1397   -0.4040 H         1 ATP         0.1379
     37 H3'         1.6764   -1.7639    0.2728 H         1 ATP         0.1317
     38 HO3'        3.5554   -1.2733    1.4914 H         1 ATP         0.4175
     39 H2'        -0.0011    0.0027    0.0003 H         1 ATP         0.0669
     40 HO2'       -0.1563   -0.9855    2.0596 H         1 ATP         0.4064
     41 H1'         1.7826    1.9024    1.6451 H         1 ATP         0.1285
     42 H8         -0.1116    1.6863   -1.6984 H         1 ATP         0.2954
     43 HN62       -2.5420    7.0730    0.0447 H         1 ATP         0.4226
     44 H2          0.1969    5.7893    3.3086 H         1 ATP         0.0826
     45 H45        -1.3097    6.9080    1.9642 H         1 ATP         0.4581
     46 H46        -1.5735    3.7351   -1.9538 H         1 ATP         0.5252
@<TRIPOS>BOND
     1    1    2 2
     2    1    3 1
     3    1    4 1
     4    1    8 1
     5    4   32 1
     6    5    6 2
     7    5    7 1
     8    5    8 1
     9    5   12 1
    10    9   10 2
    11    9   11 1
    12    9   12 1
    13    9   13 1
    14   11   33 1
    15   13   14 1
    16   14   15 1
    17   14   34 1
    18   14   35 1
    19   15   16 1
    20   15   17 1
    21   15   36 1
    22   16   21 1
    23   17   18 1
    24   17   19 1
    25   17   37 1
    26   18   38 1
    27   19   20 1
    28   19   21 1
    29   19   39 1
    30   20   40 1
    31   21   22 1
    32   21   41 1
    33   22   23 ar
    34   22   31 ar
    35   23   24 ar
    36   23   42 1
    37   24   25 ar
    38   24   46 1
    39   25   26 ar
    40   25   31 ar
    41   26   27 2
    42   26   28 ar
    43   27   43 1
    44   28   29 ar
    45   28   45 1
    46   29   30 ar
    47   29   44 1
    48   30   31 ar
@<TRIPOS>SUBSTRUCTURE
     1 ATP         1 GROUP 0 A     ****
@<TRIPOS>MOLECULE
[[[3,4-dihydroxy-5-(6-imino-7,8-dihydro-1~{H}-purin-8-ylium-9-yl)tetrahydrofuran-2-yl]methoxy-hydroxy-phosphoryl]oxy-oxido-phosphoryl] hydrogen phosphate
   46    48     1     0     0
SMALL
USER_CHARGES

@<TRIPOS>ATOM
      1 PG         -0.3822    5.1933   -3.4570 P.3       1 ATP         1.5644
      2 O1G        -1.8675    4.9731   -3.2750 O.co2     1 ATP        -0.8581
      3 O2G         0.1376    6.1939   -4.4650 O.co2     1 ATP        -0.8581
      4 O3G         0.2736    5.5346   -2.0011 O.3       1 ATP        -0.7962
      5 PB          1.9196    3.3696   -3.8284 P.3       1 ATP         1.6830
      6 O1B         2.4866    4.0100   -5.0758 O.co2     1 ATP        -0.8633
      7 O2B         2.5668    3.5842   -2.4783 O.co2     1 ATP        -0.8633
      8 O3B         0.3378    3.7539   -3.7182 O.3       1 ATP        -0.8097
      9 PA          2.8900    0.6162   -4.3161 P.3       1 ATP         1.7610
     10 O1A         4.0478    1.0418   -5.1716 O.2       1 ATP        -0.8554
     11 O2A         2.0339   -0.6169   -4.9198 O.3       1 ATP        -0.8102
     12 O3A         1.7740    1.7656   -4.0918 O.3       1 ATP        -0.7693
     13 O5'         3.2903    0.1346   -2.8241 O.3       1 ATP        -0.5757
     14 C5'         2.2816   -0.2918   -1.9206 C.3       1 ATP         0.1911
     15 C4'         2.7248    0.0226   -0.4980 C.3       1 ATP         0.1218
     16 O4'         2.4697    1.4219   -0.2462 O.3       1 ATP        -0.4138
     17 C3'         1.9404   -0.7419    0.5596 C.3       1 ATP         0.1338
     18 O3'         2.7418   -0.8086    1.7389 O.3       1 ATP        -0.5756
     19 C2'         0.7477    0.1630    0.7858 C.3       1 ATP         0.0673
     20 O2'         0.1373   -0.0577    2.0407 O.3       1 ATP        -0.5671
     21 C1'         1.3733    1.5427    0.6747 C.3       1 ATP         0.3795
     22 N9          0.4520    2.5240    0.1767 N.pl3     1 ATP        -0.4175
     23 C8         -0.2004    2.4829   -0.9804 C.ar      1 ATP         0.2552
     24 N7         -0.9830    3.5431   -1.1568 N.pl3     1 ATP        -0.4731
     25 C5         -0.8095    4.3012   -0.0331 C.ar      1 ATP        -0.1295
     26 C6         -1.4065    5.5904    0.3585 C.ar      1 ATP         0.7196
     27 N6         -2.2501    6.2030   -0.4084 N.2       1 ATP        -0.8094
     28 N1         -0.9585    6.0272    1.5994 N.pl3     1 ATP        -0.8312
     29 C2         -0.0508    5.3009    2.3532 C.ar      1 ATP         0.6744
     30 N3          0.4890    4.1592    2.0257 N.2       1 ATP        -0.5937
     31 C4          0.0637    3.7006    0.7995 C.ar      1 ATP         0.2810
     32 HOG3        1.2385    5.7043   -1.9522 H         1 ATP         0.4152
     33 HOA2        2.4845   -1.4733   -5.0803 H         1 ATP         0.4571
     34 H5'1        1.3514    0.2330   -2.1577 H         1 ATP         0.0465
     35 H5'2        2.1280   -1.3678   -2.0460 H         1 ATP         0.0465
     36 H4'         3.8044   -0.1397   -0.4040 H         1 ATP         0.1379
     37 H3'         1.6764   -1.7639    0.2728 H         1 ATP         0.1317
     38 HO3'        3.5554   -1.2733    1.4914 H         1 ATP         0.4175
     39 H2'        -0.0011    0.0027    0.0003 H         1 ATP         0.0669
     40 HO2'       -0.1563   -0.9855    2.0596 H         1 ATP         0.4064
     41 H1'         1.7826    1.9024    1.6451 H         1 ATP         0.1285
     42 H8         -0.1116    1.6863   -1.6984 H         1 ATP         0.2954
     43 HN62       -2.5420    7.0730    0.0447 H         1 ATP         0.4226
     44 H2          0.1969    5.7893    3.3086 H         1 ATP         0.0826
     45 H45        -1.3097    6.9080    1.9642 H         1 ATP         0.4581
     46 H46        -1.5735    3.7351   -1.9538 H         1 ATP         0.5252
@<TRIPOS>BOND
     1    1    2 2
     2    1    3 1
     3    1    4 1
     4    1    8 1
     5    4   32 1
     6    5    6 2
     7    5    7 1
     8    5    8 1
     9    5   12 1
    10    9   10 2
    11    9   11 1
    12    9   12 1
    13    9   13 1
    14   11   33 1
    15   13   14 1
    16   14   15 1
    17   14   34 1
    18   14   35 1
    19   15   16 1
    20   15   17 1
    21   15   36 1
    22   16   21 1
    23   17   18 1
    24   17   19 1
    25   17   37 1
    26   18   38 1
    27   19   20 1
    28   19   21 1
    29   19   39 1
    30   20   40 1
    31   21   22 1
    32   21   41 1
    33   22   23 ar
    34   22   31 ar
    35   23   24 ar
    36   23   42 1
    37   24   25 ar
    38   24   46 1
    39   25   26 ar
    40   25   31 ar
    41   26   27 2
    42   26   28 ar
    43   27   43 1
    44   28   29 ar
    45   28   45 1
    46   29   30 ar
    47   29   44 1
    48   30   31 ar
@<TRIPOS>SUBSTRUCTURE
     1 ATP         1 GROUP 0 A     ****
@<TRIPOS>MOLECULE
[[[3,4-dihydroxy-5-(6-imino-7,8-dihydro-1~{H}-purin-8-ylium-9-yl)tetrahydrofuran-2-yl]methoxy-hydroxy-phosphoryl]oxy-oxido-phosphoryl] hydrogen phosphate
   46    48     1     0     0
SMALL
USER_CHARGES

@<TRIPOS>ATOM
      1 PG         -0.9268    0.2105   -5.1291 P.3       1 ATP         1.5644
      2 O1G        -2.1864    0.8934   -4.6447 O.co2     1 ATP        -0.8581
      3 O2G        -0.1054   -0.6555   -4.2003 O.co2     1 ATP        -0.8581
      4 O3G        -1.2884   -0.6575   -6.4640 O.3       1 ATP        -0.7962
      5 PB          0.8430    2.5831   -5.1541 P.3       1 ATP         1.6830
      6 O1B         1.7414    3.1945   -6.2061 O.co2     1 ATP        -0.8633
      7 O2B        -0.1447    3.4307   -4.3836 O.co2     1 ATP        -0.8633
      8 O3B         0.0468    1.3229   -5.8171 O.3       1 ATP        -0.8097
      9 PA          2.8900    0.6162   -4.3161 P.3       1 ATP         1.7610
     10 O1A         4.0478    1.0418   -5.1716 O.2       1 ATP        -0.8554
     11 O2A         2.0339   -0.6169   -4.9198 O.3       1 ATP        -0.8102
     12 O3A         1.7740    1.7656   -4.0918 O.3       1 ATP        -0.7693
     13 O5'         3.2903    0.1346   -2.8241 O.3       1 ATP        -0.5757
     14 C5'         2.2816   -0.2918   -1.9206 C.3       1 ATP         0.1911
     15 C4'         2.7248    0.0226   -0.4980 C.3       1 ATP         0.1218
     16 O4'         2.4697    1.4219   -0.2462 O.3       1 ATP        -0.4138
     17 C3'         1.9404   -0.7419    0.5596 C.3       1 ATP         0.1338
     18 O3'         2.7418   -0.8086    1.7389 O.3       1 ATP        -0.5756
     19 C2'         0.7477    0.1630    0.7858 C.3       1 ATP         0.0673
     20 O2'         0.1373   -0.0577    2.0407 O.3       1 ATP        -0.5671
     21 C1'         1.3733    1.5427    0.6747 C.3       1 ATP         0.3795
     22 N9          0.4520    2.5240    0.1767 N.pl3     1 ATP        -0.4175
     23 C8          0.2216    2.8192   -1.0985 C.ar      1 ATP         0.2552
     24 N7         -0.6906    3.7763   -1.2384 N.pl3     1 ATP        -0.4731
     25 C5         -1.0575    4.1037    0.0366 C.ar      1 ATP        -0.1295
     26 C6         -2.0291    5.0943    0.5330 C.ar      1 ATP         0.7196
     27 N6         -2.7093    5.8371   -0.2800 N.2       1 ATP        -0.8094
     28 N1         -2.1051    5.1136    1.9204 N.pl3     1 ATP        -0.8312
     29 C2         -1.3354    4.2774    2.7129 C.ar      1 ATP         0.6744
     30 N3         -0.4707    3.3945    2.2944 N.2       1 ATP        -0.5937
     31 C4         -0.3734    3.3525    0.9220 C.ar      1 ATP         0.2810
     32 HOG3       -0.5699   -1.1629   -6.9009 H         1 ATP         0.4152
     33 HOA2        1.2614   -0.9499   -4.4152 H         1 ATP         0.4571
     34 H5'1        1.3514    0.2330   -2.1577 H         1 ATP         0.0465
     35 H5'2        2.1280   -1.3678   -2.0460 H         1 ATP         0.0465
     36 H4'         3.8044   -0.1397   -0.4040 H         1 ATP         0.1379
     37 H3'         1.6764   -1.7639    0.2728 H         1 ATP         0.1317
     38 HO3'        2.2232   -1.2979    2.3953 H         1 ATP         0.4175
     39 H2'        -0.0011    0.0027    0.0003 H         1 ATP         0.0669
     40 HO2'        0.8082    0.1199    2.7232 H         1 ATP         0.4064
     41 H1'         1.7826    1.9024    1.6451 H         1 ATP         0.1285
     42 H8          0.7125    2.3429   -1.9292 H         1 ATP         0.2954
     43 HN62       -3.3217    6.4517    0.2629 H         1 ATP         0.4226
     44 H2         -1.5188    4.4223    3.7890 H         1 ATP         0.0826
     45 H45        -2.7470    5.7626    2.3665 H         1 ATP         0.4581
     46 H46        -1.0305    4.1680   -2.1054 H         1 ATP         0.5252
@<TRIPOS>BOND
     1    1    2 2
     2    1    3 1
     3    1    4 1
     4    1    8 1
     5    4   32 1
     6    5    6 2
     7    5    7 1
     8    5    8 1
     9    5   12 1
    10    9   10 2
    11    9   11 1
    12    9   12 1
    13    9   13 1
    14   11   33 1
    15   13   14 1
    16   14   15 1
    17   14   34 1
    18   14   35 1
    19   15   16 1
    20   15   17 1
    21   15   36 1
    22   16   21 1
    23   17   18 1
    24   17   19 1
    25   17   37 1
    26   18   38 1
    27   19   20 1
    28   19   21 1
    29   19   39 1
    30   20   40 1
    31   21   22 1
    32   21   41 1
    33   22   23 ar
    34   22   31 ar
    35   23   24 ar
    36   23   42 1
    37   24   25 ar
    38   24   46 1
    39   25   26 ar
    40   25   31 ar
    41   26   27 2
    42   26   28 ar
    43   27   43 1
    44   28   29 ar
    45   28   45 1
    46   29   30 ar
    47   29   44 1
    48   30   31 ar
@<TRIPOS>SUBSTRUCTURE
     1 ATP         1 GROUP 0 A     ****
