@<TRIPOS>MOLECULE
ATP
44   46    1
SMALL
USER_CHARGES


@<TRIPOS>ATOM
      1 PG         46.1070   45.1820   56.9500 P.3       1 ATP         0.0000 
      2 O1G        45.7790   46.3300   56.0520 O.co2     1 ATP         0.0000 
      3 O2G        47.3820   44.4970   56.6260 O.co2     1 ATP         0.0000 
      4 O3G        45.9720   45.5300   58.3750 O.3       1 ATP         0.0000 
      5 PB         43.9110   43.7400   55.6550 P.3       1 ATP         0.0000 
      6 O1B        42.9750   42.7220   55.9860 O.co2     1 ATP         0.0000 
      7 O2B        43.6030   44.7670   54.6780 O.co2     1 ATP         0.0000 
      8 O3B        45.0410   44.0150   56.7380 O.3       1 ATP         0.0000 
      9 PA         45.2280   42.6690   53.2570 P.3       1 ATP         0.0000 
     10 O1A        46.3800   43.3960   52.7880 O.co2     1 ATP         0.0000 
     11 O2A        44.1830   42.1900   52.3510 O.co2     1 ATP         0.0000 
     12 O3A        44.9170   42.7160   54.7890 O.3       1 ATP         0.0000 
     13 O5'        46.1720   41.5680   53.3020 O.3       1 ATP         0.0000 
     14 C5'        46.6090   40.4220   53.5420 C.3       1 ATP         0.0000 
     15 C4'        46.5200   38.9890   53.3640 C.3       1 ATP         0.0000 
     16 O4'        46.7850   38.9080   51.9480 O.3       1 ATP         0.0000 
     17 C3'        47.8080   38.8740   54.1120 C.3       1 ATP         0.0000 
     18 O3'        47.7130   38.3570   55.4230 O.3       1 ATP         0.0000 
     19 C2'        48.7190   38.1160   53.1390 C.3       1 ATP         0.0000 
     20 O2'        48.6320   36.7370   53.4250 O.3       1 ATP         0.0000 
     21 C1'        48.1330   38.4090   51.7210 C.3       1 ATP         0.0000 
     22 N9         48.8460   39.4640   50.9860 N.pl3     1 ATP         0.0000 
     23 C8         48.6160   40.8420   50.9450 C.ar      1 ATP         0.0000 
     24 N7         49.4250   41.4890   50.1650 N.2       1 ATP         0.0000 
     25 C5         50.2320   40.4700   49.6640 C.ar      1 ATP         0.0000 
     26 C6         51.3080   40.4660   48.7310 C.ar      1 ATP         0.0000 
     27 N6         51.7210   41.5680   48.1290 N.pl3     1 ATP         0.0000 
     28 N1         51.9120   39.2740   48.4470 N.ar      1 ATP         0.0000 
     29 C2         51.4930   38.1510   49.0290 C.ar      1 ATP         0.0000 
     30 N3         50.4910   38.0160   49.9000 N.ar      1 ATP         0.0000 
     31 C4         49.8920   39.2530   50.1710 C.ar      1 ATP         0.0000 
     32 HOG3       46.5992   46.3224   58.8095 H         1 ATP         0.0000 
     33 H5'1       47.6492   40.3457   53.1926 H         1 ATP         0.0000 
     34 H5'2       46.5714   40.2346   54.6253 H         1 ATP         0.0000 
     35 H4'        45.6654   38.3452   53.6190 H         1 ATP         0.0000 
     36 H3'        48.2020   39.8423   54.4542 H         1 ATP         0.0000 
     37 HO3'       47.0751   38.8571   56.1666 H         1 ATP         0.0000 
     38 H2'        49.7910   38.3380   53.2466 H         1 ATP         0.0000 
     39 HO2'       49.0003   36.3505   54.3868 H         1 ATP         0.0000 
     40 H1'        48.1676   37.5175   51.0776 H         1 ATP         0.0000 
     41 H8         47.8360   41.3900   51.4990 H         1 ATP         0.0000 
     42 HN61       51.2389   42.5309   48.3533 H         1 ATP         0.0000 
     43 HN62       52.5468   41.5221   47.4038 H         1 ATP         0.0000 
     44 H2         52.0360   37.2290   48.7590 H         1 ATP         0.0000 
@<TRIPOS>BOND
     1    1    2 2    
     2    1    3 1    
     3    1    4 1    
     4    1    8 1    
     5    4   32 1    
     6    5    6 2    
     7    5    7 1    
     8    5    8 1    
     9    5   12 1    
    10    9   10 2    
    11    9   11 1    
    12    9   12 1    
    13    9   13 1    
    14   13   14 1    
    15   14   15 1    
    16   14   33 1    
    17   14   34 1    
    18   15   16 1    
    19   15   17 1    
    20   15   35 1    
    21   16   21 1    
    22   17   18 1    
    23   17   19 1    
    24   17   36 1    
    25   18   37 1    
    26   19   20 1    
    27   19   21 1    
    28   19   38 1    
    29   20   39 1    
    30   21   22 1    
    31   21   40 1    
    32   22   23 ar   
    33   22   31 ar   
    34   23   24 ar   
    35   23   41 1    
    36   24   25 ar   
    37   25   26 ar   
    38   25   31 ar   
    39   26   27 1    
    40   26   28 ar   
    41   27   42 1    
    42   27   43 1    
    43   28   29 ar   
    44   29   30 ar   
    45   29   44 1    
    46   30   31 ar   
@<TRIPOS>SUBSTRUCTURE
     1 ATP         1 GROUP             0       ****    0 ROOT    
@<TRIPOS>MOLECULE
ATP
45   47    1
SMALL
USER_CHARGES


@<TRIPOS>ATOM
      1 PG         46.1070   45.1820   56.9500 P.3       1 ATP         0.0000 
      2 O1G        45.7790   46.3300   56.0520 O.co2     1 ATP         0.0000 
      3 O2G        47.3820   44.4970   56.6260 O.co2     1 ATP         0.0000 
      4 O3G        45.9720   45.5300   58.3750 O.3       1 ATP         0.0000 
      5 PB         43.9110   43.7400   55.6550 P.3       1 ATP         0.0000 
      6 O1B        42.9750   42.7220   55.9860 O.co2     1 ATP         0.0000 
      7 O2B        43.6030   44.7670   54.6780 O.co2     1 ATP         0.0000 
      8 O3B        45.0410   44.0150   56.7380 O.3       1 ATP         0.0000 
      9 PA         45.2280   42.6690   53.2570 P.3       1 ATP         0.0000 
     10 O1A        46.3800   43.3960   52.7880 O.2       1 ATP         0.0000 
     11 O2A        44.1830   42.1900   52.3510 O.3       1 ATP         0.0000 
     12 O3A        44.9170   42.7160   54.7890 O.3       1 ATP         0.0000 
     13 O5'        46.1720   41.5680   53.3020 O.3       1 ATP         0.0000 
     14 C5'        46.6090   40.4220   53.5420 C.3       1 ATP         0.0000 
     15 C4'        46.5200   38.9890   53.3640 C.3       1 ATP         0.0000 
     16 O4'        46.7850   38.9080   51.9480 O.3       1 ATP         0.0000 
     17 C3'        47.8080   38.8740   54.1120 C.3       1 ATP         0.0000 
     18 O3'        47.7130   38.3570   55.4230 O.3       1 ATP         0.0000 
     19 C2'        48.7190   38.1160   53.1390 C.3       1 ATP         0.0000 
     20 O2'        48.6320   36.7370   53.4250 O.3       1 ATP         0.0000 
     21 C1'        48.1330   38.4090   51.7210 C.3       1 ATP         0.0000 
     22 N9         48.8460   39.4640   50.9860 N.pl3     1 ATP         0.0000 
     23 C8         48.6160   40.8420   50.9450 C.ar      1 ATP         0.0000 
     24 N7         49.4250   41.4890   50.1650 N.2       1 ATP         0.0000 
     25 C5         50.2320   40.4700   49.6640 C.ar      1 ATP         0.0000 
     26 C6         51.3080   40.4660   48.7310 C.ar      1 ATP         0.0000 
     27 N6         51.7210   41.5680   48.1290 N.pl3     1 ATP         0.0000 
     28 N1         51.9120   39.2740   48.4470 N.ar      1 ATP         0.0000 
     29 C2         51.4930   38.1510   49.0290 C.ar      1 ATP         0.0000 
     30 N3         50.4910   38.0160   49.9000 N.ar      1 ATP         0.0000 
     31 C4         49.8920   39.2530   50.1710 C.ar      1 ATP         0.0000 
     32 HOG3       46.5992   46.3224   58.8095 H         1 ATP         0.0000 
     33 HOA2       43.3173   42.8293   52.1230 H         1 ATP         0.0000 
     34 H5'1       47.6492   40.3457   53.1926 H         1 ATP         0.0000 
     35 H5'2       46.5714   40.2346   54.6253 H         1 ATP         0.0000 
     36 H4'        45.6654   38.3452   53.6190 H         1 ATP         0.0000 
     37 H3'        48.2020   39.8423   54.4542 H         1 ATP         0.0000 
     38 HO3'       47.0751   38.8571   56.1666 H         1 ATP         0.0000 
     39 H2'        49.7910   38.3380   53.2466 H         1 ATP         0.0000 
     40 HO2'       49.0003   36.3505   54.3868 H         1 ATP         0.0000 
     41 H1'        48.1676   37.5175   51.0776 H         1 ATP         0.0000 
     42 H8         47.8360   41.3900   51.4990 H         1 ATP         0.0000 
     43 HN61       51.2389   42.5309   48.3533 H         1 ATP         0.0000 
     44 HN62       52.5468   41.5221   47.4038 H         1 ATP         0.0000 
     45 H2         52.0360   37.2290   48.7590 H         1 ATP         0.0000 
@<TRIPOS>BOND
     1    1    2 2    
     2    1    3 1    
     3    1    4 1    
     4    1    8 1    
     5    4   32 1    
     6    5    6 2    
     7    5    7 1    
     8    5    8 1    
     9    5   12 1    
    10    9   10 2    
    11    9   11 1    
    12    9   12 1    
    13    9   13 1    
    14   11   33 1    
    15   13   14 1    
    16   14   15 1    
    17   14   34 1    
    18   14   35 1    
    19   15   16 1    
    20   15   17 1    
    21   15   36 1    
    22   16   21 1    
    23   17   18 1    
    24   17   19 1    
    25   17   37 1    
    26   18   38 1    
    27   19   20 1    
    28   19   21 1    
    29   19   39 1    
    30   20   40 1    
    31   21   22 1    
    32   21   41 1    
    33   22   23 ar   
    34   22   31 ar   
    35   23   24 ar   
    36   23   42 1    
    37   24   25 ar   
    38   25   26 ar   
    39   25   31 ar   
    40   26   27 1    
    41   26   28 ar   
    42   27   43 1    
    43   27   44 1    
    44   28   29 ar   
    45   29   30 ar   
    46   29   45 1    
    47   30   31 ar   
@<TRIPOS>SUBSTRUCTURE
     1 ATP         1 GROUP             0       ****    0 ROOT    
@<TRIPOS>MOLECULE
ATP
45   47    1
SMALL
USER_CHARGES


@<TRIPOS>ATOM
      1 PG         46.1070   45.1820   56.9500 P.3       1 ATP         0.0000 
      2 O1G        45.7790   46.3300   56.0520 O.co2     1 ATP         0.0000 
      3 O2G        47.3820   44.4970   56.6260 O.co2     1 ATP         0.0000 
      4 O3G        45.9720   45.5300   58.3750 O.3       1 ATP         0.0000 
      5 PB         43.9110   43.7400   55.6550 P.3       1 ATP         0.0000 
      6 O1B        42.9750   42.7220   55.9860 O.2       1 ATP         0.0000 
      7 O2B        43.6030   44.7670   54.6780 O.3       1 ATP         0.0000 
      8 O3B        45.0410   44.0150   56.7380 O.3       1 ATP         0.0000 
      9 PA         45.2280   42.6690   53.2570 P.3       1 ATP         0.0000 
     10 O1A        46.3800   43.3960   52.7880 O.co2     1 ATP         0.0000 
     11 O2A        44.1830   42.1900   52.3510 O.co2     1 ATP         0.0000 
     12 O3A        44.9170   42.7160   54.7890 O.3       1 ATP         0.0000 
     13 O5'        46.1720   41.5680   53.3020 O.3       1 ATP         0.0000 
     14 C5'        46.6090   40.4220   53.5420 C.3       1 ATP         0.0000 
     15 C4'        46.5200   38.9890   53.3640 C.3       1 ATP         0.0000 
     16 O4'        46.7850   38.9080   51.9480 O.3       1 ATP         0.0000 
     17 C3'        47.8080   38.8740   54.1120 C.3       1 ATP         0.0000 
     18 O3'        47.7130   38.3570   55.4230 O.3       1 ATP         0.0000 
     19 C2'        48.7190   38.1160   53.1390 C.3       1 ATP         0.0000 
     20 O2'        48.6320   36.7370   53.4250 O.3       1 ATP         0.0000 
     21 C1'        48.1330   38.4090   51.7210 C.3       1 ATP         0.0000 
     22 N9         48.8460   39.4640   50.9860 N.pl3     1 ATP         0.0000 
     23 C8         48.6160   40.8420   50.9450 C.ar      1 ATP         0.0000 
     24 N7         49.4250   41.4890   50.1650 N.2       1 ATP         0.0000 
     25 C5         50.2320   40.4700   49.6640 C.ar      1 ATP         0.0000 
     26 C6         51.3080   40.4660   48.7310 C.ar      1 ATP         0.0000 
     27 N6         51.7210   41.5680   48.1290 N.pl3     1 ATP         0.0000 
     28 N1         51.9120   39.2740   48.4470 N.ar      1 ATP         0.0000 
     29 C2         51.4930   38.1510   49.0290 C.ar      1 ATP         0.0000 
     30 N3         50.4910   38.0160   49.9000 N.ar      1 ATP         0.0000 
     31 C4         49.8920   39.2530   50.1710 C.ar      1 ATP         0.0000 
     32 HOG3       46.5992   46.3224   58.8095 H         1 ATP         0.0000 
     33 HOB2       42.9452   45.6055   54.9502 H         1 ATP         0.0000 
     34 H5'1       47.6492   40.3457   53.1926 H         1 ATP         0.0000 
     35 H5'2       46.5714   40.2346   54.6253 H         1 ATP         0.0000 
     36 H4'        45.6654   38.3452   53.6190 H         1 ATP         0.0000 
     37 H3'        48.2020   39.8423   54.4542 H         1 ATP         0.0000 
     38 HO3'       47.0751   38.8571   56.1666 H         1 ATP         0.0000 
     39 H2'        49.7910   38.3380   53.2466 H         1 ATP         0.0000 
     40 HO2'       49.0003   36.3505   54.3868 H         1 ATP         0.0000 
     41 H1'        48.1676   37.5175   51.0776 H         1 ATP         0.0000 
     42 H8         47.8360   41.3900   51.4990 H         1 ATP         0.0000 
     43 HN61       51.2389   42.5309   48.3533 H         1 ATP         0.0000 
     44 HN62       52.5468   41.5221   47.4038 H         1 ATP         0.0000 
     45 H2         52.0360   37.2290   48.7590 H         1 ATP         0.0000 
@<TRIPOS>BOND
     1    1    2 2    
     2    1    3 1    
     3    1    4 1    
     4    1    8 1    
     5    4   32 1    
     6    5    6 2    
     7    5    7 1    
     8    5    8 1    
     9    5   12 1    
    10    7   33 1    
    11    9   10 2    
    12    9   11 1    
    13    9   12 1    
    14    9   13 1    
    15   13   14 1    
    16   14   15 1    
    17   14   34 1    
    18   14   35 1    
    19   15   16 1    
    20   15   17 1    
    21   15   36 1    
    22   16   21 1    
    23   17   18 1    
    24   17   19 1    
    25   17   37 1    
    26   18   38 1    
    27   19   20 1    
    28   19   21 1    
    29   19   39 1    
    30   20   40 1    
    31   21   22 1    
    32   21   41 1    
    33   22   23 ar   
    34   22   31 ar   
    35   23   24 ar   
    36   23   42 1    
    37   24   25 ar   
    38   25   26 ar   
    39   25   31 ar   
    40   26   27 1    
    41   26   28 ar   
    42   27   43 1    
    43   27   44 1    
    44   28   29 ar   
    45   29   30 ar   
    46   29   45 1    
    47   30   31 ar   
@<TRIPOS>SUBSTRUCTURE
     1 ATP         1 GROUP             0       ****    0 ROOT    
@<TRIPOS>MOLECULE
ATP
45   47    1
SMALL
USER_CHARGES


@<TRIPOS>ATOM
      1 PG         46.1070   45.1820   56.9500 P.3       1 ATP         0.0000 
      2 O1G        45.7790   46.3300   56.0520 O.co2     1 ATP         0.0000 
      3 O2G        47.3820   44.4970   56.6260 O.co2     1 ATP         0.0000 
      4 O3G        45.9720   45.5300   58.3750 O.3       1 ATP         0.0000 
      5 PB         43.9110   43.7400   55.6550 P.3       1 ATP         0.0000 
      6 O1B        42.9750   42.7220   55.9860 O.co2     1 ATP         0.0000 
      7 O2B        43.6030   44.7670   54.6780 O.co2     1 ATP         0.0000 
      8 O3B        45.0410   44.0150   56.7380 O.3       1 ATP         0.0000 
      9 PA         45.2280   42.6690   53.2570 P.3       1 ATP         0.0000 
     10 O1A        46.3800   43.3960   52.7880 O.co2     1 ATP         0.0000 
     11 O2A        44.1830   42.1900   52.3510 O.co2     1 ATP         0.0000 
     12 O3A        44.9170   42.7160   54.7890 O.3       1 ATP         0.0000 
     13 O5'        46.1720   41.5680   53.3020 O.3       1 ATP         0.0000 
     14 C5'        46.6090   40.4220   53.5420 C.3       1 ATP         0.0000 
     15 C4'        46.5200   38.9890   53.3640 C.3       1 ATP         0.0000 
     16 O4'        46.7850   38.9080   51.9480 O.3       1 ATP         0.0000 
     17 C3'        47.8080   38.8740   54.1120 C.3       1 ATP         0.0000 
     18 O3'        47.7130   38.3570   55.4230 O.3       1 ATP         0.0000 
     19 C2'        48.7190   38.1160   53.1390 C.3       1 ATP         0.0000 
     20 O2'        48.6320   36.7370   53.4250 O.3       1 ATP         0.0000 
     21 C1'        48.1330   38.4090   51.7210 C.3       1 ATP         0.0000 
     22 N9         48.8460   39.4640   50.9860 N.pl3     1 ATP         0.0000 
     23 C8         48.6160   40.8420   50.9450 C.ar      1 ATP         0.0000 
     24 N7         49.4250   41.4890   50.1650 N.2       1 ATP         0.0000 
     25 C5         50.2320   40.4700   49.6640 C.ar      1 ATP         0.0000 
     26 C6         51.3080   40.4660   48.7310 C.ar      1 ATP         0.0000 
     27 N6         51.7210   41.5680   48.1290 N.pl3     1 ATP         0.0000 
     28 N1         51.9120   39.2740   48.4470 N.pl3     1 ATP         0.0000 
     29 C2         51.4930   38.1510   49.0290 C.ar      1 ATP         0.0000 
     30 N3         50.4910   38.0160   49.9000 N.ar      1 ATP         0.0000 
     31 C4         49.8920   39.2530   50.1710 C.ar      1 ATP         0.0000 
     32 HOG3       46.5992   46.3224   58.8095 H         1 ATP         0.0000 
     33 H5'1       47.6492   40.3457   53.1926 H         1 ATP         0.0000 
     34 H5'2       46.5714   40.2346   54.6253 H         1 ATP         0.0000 
     35 H4'        45.6654   38.3452   53.6190 H         1 ATP         0.0000 
     36 H3'        48.2020   39.8423   54.4542 H         1 ATP         0.0000 
     37 HO3'       47.0751   38.8571   56.1666 H         1 ATP         0.0000 
     38 H2'        49.7910   38.3380   53.2466 H         1 ATP         0.0000 
     39 HO2'       49.0003   36.3505   54.3868 H         1 ATP         0.0000 
     40 H1'        48.1676   37.5175   51.0776 H         1 ATP         0.0000 
     41 H8         47.8360   41.3900   51.4990 H         1 ATP         0.0000 
     42 HN61       51.2389   42.5309   48.3533 H         1 ATP         0.0000 
     43 HN62       52.5468   41.5221   47.4038 H         1 ATP         0.0000 
     44 H2         52.0360   37.2290   48.7590 H         1 ATP         0.0000 
     45 H45        52.7492   39.2376   47.7344 H         1 ATP         0.0000 
@<TRIPOS>BOND
     1    1    2 2    
     2    1    3 1    
     3    1    4 1    
     4    1    8 1    
     5    4   32 1    
     6    5    6 2    
     7    5    7 1    
     8    5    8 1    
     9    5   12 1    
    10    9   10 2    
    11    9   11 1    
    12    9   12 1    
    13    9   13 1    
    14   13   14 1    
    15   14   15 1    
    16   14   33 1    
    17   14   34 1    
    18   15   16 1    
    19   15   17 1    
    20   15   35 1    
    21   16   21 1    
    22   17   18 1    
    23   17   19 1    
    24   17   36 1    
    25   18   37 1    
    26   19   20 1    
    27   19   21 1    
    28   19   38 1    
    29   20   39 1    
    30   21   22 1    
    31   21   40 1    
    32   22   23 ar   
    33   22   31 ar   
    34   23   24 ar   
    35   23   41 1    
    36   24   25 ar   
    37   25   26 ar   
    38   25   31 ar   
    39   26   27 1    
    40   26   28 ar   
    41   27   42 1    
    42   27   43 1    
    43   28   29 ar   
    44   28   45 1    
    45   29   30 ar   
    46   29   44 1    
    47   30   31 ar   
@<TRIPOS>SUBSTRUCTURE
     1 ATP         1 GROUP             0       ****    0 ROOT    
@<TRIPOS>MOLECULE
ATP
45   47    1
SMALL
USER_CHARGES


@<TRIPOS>ATOM
      1 PG         46.1070   45.1820   56.9500 P.3       1 ATP         0.0000 
      2 O1G        45.7790   46.3300   56.0520 O.2       1 ATP         0.0000 
      3 O2G        47.3820   44.4970   56.6260 O.3       1 ATP         0.0000 
      4 O3G        45.9720   45.5300   58.3750 O.3       1 ATP         0.0000 
      5 PB         43.9110   43.7400   55.6550 P.3       1 ATP         0.0000 
      6 O1B        42.9750   42.7220   55.9860 O.co2     1 ATP         0.0000 
      7 O2B        43.6030   44.7670   54.6780 O.co2     1 ATP         0.0000 
      8 O3B        45.0410   44.0150   56.7380 O.3       1 ATP         0.0000 
      9 PA         45.2280   42.6690   53.2570 P.3       1 ATP         0.0000 
     10 O1A        46.3800   43.3960   52.7880 O.co2     1 ATP         0.0000 
     11 O2A        44.1830   42.1900   52.3510 O.co2     1 ATP         0.0000 
     12 O3A        44.9170   42.7160   54.7890 O.3       1 ATP         0.0000 
     13 O5'        46.1720   41.5680   53.3020 O.3       1 ATP         0.0000 
     14 C5'        46.6090   40.4220   53.5420 C.3       1 ATP         0.0000 
     15 C4'        46.5200   38.9890   53.3640 C.3       1 ATP         0.0000 
     16 O4'        46.7850   38.9080   51.9480 O.3       1 ATP         0.0000 
     17 C3'        47.8080   38.8740   54.1120 C.3       1 ATP         0.0000 
     18 O3'        47.7130   38.3570   55.4230 O.3       1 ATP         0.0000 
     19 C2'        48.7190   38.1160   53.1390 C.3       1 ATP         0.0000 
     20 O2'        48.6320   36.7370   53.4250 O.3       1 ATP         0.0000 
     21 C1'        48.1330   38.4090   51.7210 C.3       1 ATP         0.0000 
     22 N9         48.8460   39.4640   50.9860 N.pl3     1 ATP         0.0000 
     23 C8         48.6160   40.8420   50.9450 C.ar      1 ATP         0.0000 
     24 N7         49.4250   41.4890   50.1650 N.2       1 ATP         0.0000 
     25 C5         50.2320   40.4700   49.6640 C.ar      1 ATP         0.0000 
     26 C6         51.3080   40.4660   48.7310 C.ar      1 ATP         0.0000 
     27 N6         51.7210   41.5680   48.1290 N.pl3     1 ATP         0.0000 
     28 N1         51.9120   39.2740   48.4470 N.ar      1 ATP         0.0000 
     29 C2         51.4930   38.1510   49.0290 C.ar      1 ATP         0.0000 
     30 N3         50.4910   38.0160   49.9000 N.ar      1 ATP         0.0000 
     31 C4         49.8920   39.2530   50.1710 C.ar      1 ATP         0.0000 
     32 HOG2       48.3320   45.0490   56.6795 H         1 ATP         0.0000 
     33 HOG3       46.5992   46.3224   58.8095 H         1 ATP         0.0000 
     34 H5'1       47.6492   40.3457   53.1926 H         1 ATP         0.0000 
     35 H5'2       46.5714   40.2346   54.6253 H         1 ATP         0.0000 
     36 H4'        45.6654   38.3452   53.6190 H         1 ATP         0.0000 
     37 H3'        48.2020   39.8423   54.4542 H         1 ATP         0.0000 
     38 HO3'       47.0751   38.8571   56.1666 H         1 ATP         0.0000 
     39 H2'        49.7910   38.3380   53.2466 H         1 ATP         0.0000 
     40 HO2'       49.0003   36.3505   54.3868 H         1 ATP         0.0000 
     41 H1'        48.1676   37.5175   51.0776 H         1 ATP         0.0000 
     42 H8         47.8360   41.3900   51.4990 H         1 ATP         0.0000 
     43 HN61       51.2389   42.5309   48.3533 H         1 ATP         0.0000 
     44 HN62       52.5468   41.5221   47.4038 H         1 ATP         0.0000 
     45 H2         52.0360   37.2290   48.7590 H         1 ATP         0.0000 
@<TRIPOS>BOND
     1    1    2 2    
     2    1    3 1    
     3    1    4 1    
     4    1    8 1    
     5    3   32 1    
     6    4   33 1    
     7    5    6 2    
     8    5    7 1    
     9    5    8 1    
    10    5   12 1    
    11    9   10 2    
    12    9   11 1    
    13    9   12 1    
    14    9   13 1    
    15   13   14 1    
    16   14   15 1    
    17   14   34 1    
    18   14   35 1    
    19   15   16 1    
    20   15   17 1    
    21   15   36 1    
    22   16   21 1    
    23   17   18 1    
    24   17   19 1    
    25   17   37 1    
    26   18   38 1    
    27   19   20 1    
    28   19   21 1    
    29   19   39 1    
    30   20   40 1    
    31   21   22 1    
    32   21   41 1    
    33   22   23 ar   
    34   22   31 ar   
    35   23   24 ar   
    36   23   42 1    
    37   24   25 ar   
    38   25   26 ar   
    39   25   31 ar   
    40   26   27 1    
    41   26   28 ar   
    42   27   43 1    
    43   27   44 1    
    44   28   29 ar   
    45   29   30 ar   
    46   29   45 1    
    47   30   31 ar   
@<TRIPOS>SUBSTRUCTURE
     1 ATP         1 GROUP             0       ****    0 ROOT    
@<TRIPOS>MOLECULE
ATP
46   48    1
SMALL
USER_CHARGES


@<TRIPOS>ATOM
      1 PG         46.1070   45.1820   56.9500 P.3       1 ATP         0.0000 
      2 O1G        45.7790   46.3300   56.0520 O.co2     1 ATP         0.0000 
      3 O2G        47.3820   44.4970   56.6260 O.co2     1 ATP         0.0000 
      4 O3G        45.9720   45.5300   58.3750 O.3       1 ATP         0.0000 
      5 PB         43.9110   43.7400   55.6550 P.3       1 ATP         0.0000 
      6 O1B        42.9750   42.7220   55.9860 O.co2     1 ATP         0.0000 
      7 O2B        43.6030   44.7670   54.6780 O.co2     1 ATP         0.0000 
      8 O3B        45.0410   44.0150   56.7380 O.3       1 ATP         0.0000 
      9 PA         45.2280   42.6690   53.2570 P.3       1 ATP         0.0000 
     10 O1A        46.3800   43.3960   52.7880 O.2       1 ATP         0.0000 
     11 O2A        44.1830   42.1900   52.3510 O.3       1 ATP         0.0000 
     12 O3A        44.9170   42.7160   54.7890 O.3       1 ATP         0.0000 
     13 O5'        46.1720   41.5680   53.3020 O.3       1 ATP         0.0000 
     14 C5'        46.6090   40.4220   53.5420 C.3       1 ATP         0.0000 
     15 C4'        46.5200   38.9890   53.3640 C.3       1 ATP         0.0000 
     16 O4'        46.7850   38.9080   51.9480 O.3       1 ATP         0.0000 
     17 C3'        47.8080   38.8740   54.1120 C.3       1 ATP         0.0000 
     18 O3'        47.7130   38.3570   55.4230 O.3       1 ATP         0.0000 
     19 C2'        48.7190   38.1160   53.1390 C.3       1 ATP         0.0000 
     20 O2'        48.6320   36.7370   53.4250 O.3       1 ATP         0.0000 
     21 C1'        48.1330   38.4090   51.7210 C.3       1 ATP         0.0000 
     22 N9         48.8460   39.4640   50.9860 N.pl3     1 ATP         0.0000 
     23 C8         48.6160   40.8420   50.9450 C.ar      1 ATP         0.0000 
     24 N7         49.4250   41.4890   50.1650 N.2       1 ATP         0.0000 
     25 C5         50.2320   40.4700   49.6640 C.ar      1 ATP         0.0000 
     26 C6         51.3080   40.4660   48.7310 C.ar      1 ATP         0.0000 
     27 N6         51.7210   41.5680   48.1290 N.pl3     1 ATP         0.0000 
     28 N1         51.9120   39.2740   48.4470 N.pl3     1 ATP         0.0000 
     29 C2         51.4930   38.1510   49.0290 C.ar      1 ATP         0.0000 
     30 N3         50.4910   38.0160   49.9000 N.ar      1 ATP         0.0000 
     31 C4         49.8920   39.2530   50.1710 C.ar      1 ATP         0.0000 
     32 HOG3       46.5992   46.3224   58.8095 H         1 ATP         0.0000 
     33 HOA2       43.3173   42.8293   52.1230 H         1 ATP         0.0000 
     34 H5'1       47.6492   40.3457   53.1926 H         1 ATP         0.0000 
     35 H5'2       46.5714   40.2346   54.6253 H         1 ATP         0.0000 
     36 H4'        45.6654   38.3452   53.6190 H         1 ATP         0.0000 
     37 H3'        48.2020   39.8423   54.4542 H         1 ATP         0.0000 
     38 HO3'       47.0751   38.8571   56.1666 H         1 ATP         0.0000 
     39 H2'        49.7910   38.3380   53.2466 H         1 ATP         0.0000 
     40 HO2'       49.0003   36.3505   54.3868 H         1 ATP         0.0000 
     41 H1'        48.1676   37.5175   51.0776 H         1 ATP         0.0000 
     42 H8         47.8360   41.3900   51.4990 H         1 ATP         0.0000 
     43 HN61       51.2389   42.5309   48.3533 H         1 ATP         0.0000 
     44 HN62       52.5468   41.5221   47.4038 H         1 ATP         0.0000 
     45 H2         52.0360   37.2290   48.7590 H         1 ATP         0.0000 
     46 H46        52.7492   39.2376   47.7344 H         1 ATP         0.0000 
@<TRIPOS>BOND
     1    1    2 2    
     2    1    3 1    
     3    1    4 1    
     4    1    8 1    
     5    4   32 1    
     6    5    6 2    
     7    5    7 1    
     8    5    8 1    
     9    5   12 1    
    10    9   10 2    
    11    9   11 1    
    12    9   12 1    
    13    9   13 1    
    14   11   33 1    
    15   13   14 1    
    16   14   15 1    
    17   14   34 1    
    18   14   35 1    
    19   15   16 1    
    20   15   17 1    
    21   15   36 1    
    22   16   21 1    
    23   17   18 1    
    24   17   19 1    
    25   17   37 1    
    26   18   38 1    
    27   19   20 1    
    28   19   21 1    
    29   19   39 1    
    30   20   40 1    
    31   21   22 1    
    32   21   41 1    
    33   22   23 ar   
    34   22   31 ar   
    35   23   24 ar   
    36   23   42 1    
    37   24   25 ar   
    38   25   26 ar   
    39   25   31 ar   
    40   26   27 1    
    41   26   28 ar   
    42   27   43 1    
    43   27   44 1    
    44   28   29 ar   
    45   28   46 1    
    46   29   30 ar   
    47   29   45 1    
    48   30   31 ar   
@<TRIPOS>SUBSTRUCTURE
     1 ATP         1 GROUP             0       ****    0 ROOT    
@<TRIPOS>MOLECULE
ATP
46   48    1
SMALL
USER_CHARGES


@<TRIPOS>ATOM
      1 PG         46.1070   45.1820   56.9500 P.3       1 ATP         0.0000 
      2 O1G        45.7790   46.3300   56.0520 O.co2     1 ATP         0.0000 
      3 O2G        47.3820   44.4970   56.6260 O.co2     1 ATP         0.0000 
      4 O3G        45.9720   45.5300   58.3750 O.3       1 ATP         0.0000 
      5 PB         43.9110   43.7400   55.6550 P.3       1 ATP         0.0000 
      6 O1B        42.9750   42.7220   55.9860 O.2       1 ATP         0.0000 
      7 O2B        43.6030   44.7670   54.6780 O.3       1 ATP         0.0000 
      8 O3B        45.0410   44.0150   56.7380 O.3       1 ATP         0.0000 
      9 PA         45.2280   42.6690   53.2570 P.3       1 ATP         0.0000 
     10 O1A        46.3800   43.3960   52.7880 O.co2     1 ATP         0.0000 
     11 O2A        44.1830   42.1900   52.3510 O.co2     1 ATP         0.0000 
     12 O3A        44.9170   42.7160   54.7890 O.3       1 ATP         0.0000 
     13 O5'        46.1720   41.5680   53.3020 O.3       1 ATP         0.0000 
     14 C5'        46.6090   40.4220   53.5420 C.3       1 ATP         0.0000 
     15 C4'        46.5200   38.9890   53.3640 C.3       1 ATP         0.0000 
     16 O4'        46.7850   38.9080   51.9480 O.3       1 ATP         0.0000 
     17 C3'        47.8080   38.8740   54.1120 C.3       1 ATP         0.0000 
     18 O3'        47.7130   38.3570   55.4230 O.3       1 ATP         0.0000 
     19 C2'        48.7190   38.1160   53.1390 C.3       1 ATP         0.0000 
     20 O2'        48.6320   36.7370   53.4250 O.3       1 ATP         0.0000 
     21 C1'        48.1330   38.4090   51.7210 C.3       1 ATP         0.0000 
     22 N9         48.8460   39.4640   50.9860 N.pl3     1 ATP         0.0000 
     23 C8         48.6160   40.8420   50.9450 C.ar      1 ATP         0.0000 
     24 N7         49.4250   41.4890   50.1650 N.2       1 ATP         0.0000 
     25 C5         50.2320   40.4700   49.6640 C.ar      1 ATP         0.0000 
     26 C6         51.3080   40.4660   48.7310 C.ar      1 ATP         0.0000 
     27 N6         51.7210   41.5680   48.1290 N.pl3     1 ATP         0.0000 
     28 N1         51.9120   39.2740   48.4470 N.pl3     1 ATP         0.0000 
     29 C2         51.4930   38.1510   49.0290 C.ar      1 ATP         0.0000 
     30 N3         50.4910   38.0160   49.9000 N.ar      1 ATP         0.0000 
     31 C4         49.8920   39.2530   50.1710 C.ar      1 ATP         0.0000 
     32 HOG3       46.5992   46.3224   58.8095 H         1 ATP         0.0000 
     33 HOB2       42.9452   45.6055   54.9502 H         1 ATP         0.0000 
     34 H5'1       47.6492   40.3457   53.1926 H         1 ATP         0.0000 
     35 H5'2       46.5714   40.2346   54.6253 H         1 ATP         0.0000 
     36 H4'        45.6654   38.3452   53.6190 H         1 ATP         0.0000 
     37 H3'        48.2020   39.8423   54.4542 H         1 ATP         0.0000 
     38 HO3'       47.0751   38.8571   56.1666 H         1 ATP         0.0000 
     39 H2'        49.7910   38.3380   53.2466 H         1 ATP         0.0000 
     40 HO2'       49.0003   36.3505   54.3868 H         1 ATP         0.0000 
     41 H1'        48.1676   37.5175   51.0776 H         1 ATP         0.0000 
     42 H8         47.8360   41.3900   51.4990 H         1 ATP         0.0000 
     43 HN61       51.2389   42.5309   48.3533 H         1 ATP         0.0000 
     44 HN62       52.5468   41.5221   47.4038 H         1 ATP         0.0000 
     45 H2         52.0360   37.2290   48.7590 H         1 ATP         0.0000 
     46 H46        52.7492   39.2376   47.7344 H         1 ATP         0.0000 
@<TRIPOS>BOND
     1    1    2 2    
     2    1    3 1    
     3    1    4 1    
     4    1    8 1    
     5    4   32 1    
     6    5    6 2    
     7    5    7 1    
     8    5    8 1    
     9    5   12 1    
    10    7   33 1    
    11    9   10 2    
    12    9   11 1    
    13    9   12 1    
    14    9   13 1    
    15   13   14 1    
    16   14   15 1    
    17   14   34 1    
    18   14   35 1    
    19   15   16 1    
    20   15   17 1    
    21   15   36 1    
    22   16   21 1    
    23   17   18 1    
    24   17   19 1    
    25   17   37 1    
    26   18   38 1    
    27   19   20 1    
    28   19   21 1    
    29   19   39 1    
    30   20   40 1    
    31   21   22 1    
    32   21   41 1    
    33   22   23 ar   
    34   22   31 ar   
    35   23   24 ar   
    36   23   42 1    
    37   24   25 ar   
    38   25   26 ar   
    39   25   31 ar   
    40   26   27 1    
    41   26   28 ar   
    42   27   43 1    
    43   27   44 1    
    44   28   29 ar   
    45   28   46 1    
    46   29   30 ar   
    47   29   45 1    
    48   30   31 ar   
@<TRIPOS>SUBSTRUCTURE
     1 ATP         1 GROUP             0       ****    0 ROOT    
@<TRIPOS>MOLECULE
ATP
45   47    1
SMALL
USER_CHARGES


@<TRIPOS>ATOM
      1 PG         46.1070   45.1820   56.9500 P.3       1 ATP         0.0000 
      2 O1G        45.7790   46.3300   56.0520 O.co2     1 ATP         0.0000 
      3 O2G        47.3820   44.4970   56.6260 O.co2     1 ATP         0.0000 
      4 O3G        45.9720   45.5300   58.3750 O.3       1 ATP         0.0000 
      5 PB         43.9110   43.7400   55.6550 P.3       1 ATP         0.0000 
      6 O1B        42.9750   42.7220   55.9860 O.co2     1 ATP         0.0000 
      7 O2B        43.6030   44.7670   54.6780 O.co2     1 ATP         0.0000 
      8 O3B        45.0410   44.0150   56.7380 O.3       1 ATP         0.0000 
      9 PA         45.2280   42.6690   53.2570 P.3       1 ATP         0.0000 
     10 O1A        46.3800   43.3960   52.7880 O.co2     1 ATP         0.0000 
     11 O2A        44.1830   42.1900   52.3510 O.co2     1 ATP         0.0000 
     12 O3A        44.9170   42.7160   54.7890 O.3       1 ATP         0.0000 
     13 O5'        46.1720   41.5680   53.3020 O.3       1 ATP         0.0000 
     14 C5'        46.6090   40.4220   53.5420 C.3       1 ATP         0.0000 
     15 C4'        46.5200   38.9890   53.3640 C.3       1 ATP         0.0000 
     16 O4'        46.7850   38.9080   51.9480 O.3       1 ATP         0.0000 
     17 C3'        47.8080   38.8740   54.1120 C.3       1 ATP         0.0000 
     18 O3'        47.7130   38.3570   55.4230 O.3       1 ATP         0.0000 
     19 C2'        48.7190   38.1160   53.1390 C.3       1 ATP         0.0000 
     20 O2'        48.6320   36.7370   53.4250 O.3       1 ATP         0.0000 
     21 C1'        48.1330   38.4090   51.7210 C.3       1 ATP         0.0000 
     22 N9         48.8460   39.4640   50.9860 N.pl3     1 ATP         0.0000 
     23 C8         48.6160   40.8420   50.9450 C.ar      1 ATP         0.0000 
     24 N7         49.4250   41.4890   50.1650 N.pl3     1 ATP         0.0000 
     25 C5         50.2320   40.4700   49.6640 C.ar      1 ATP         0.0000 
     26 C6         51.3080   40.4660   48.7310 C.ar      1 ATP         0.0000 
     27 N6         51.7210   41.5680   48.1290 N.pl3     1 ATP         0.0000 
     28 N1         51.9120   39.2740   48.4470 N.ar      1 ATP         0.0000 
     29 C2         51.4930   38.1510   49.0290 C.ar      1 ATP         0.0000 
     30 N3         50.4910   38.0160   49.9000 N.ar      1 ATP         0.0000 
     31 C4         49.8920   39.2530   50.1710 C.ar      1 ATP         0.0000 
     32 HOG3       46.5992   46.3224   58.8095 H         1 ATP         0.0000 
     33 H5'1       47.6492   40.3457   53.1926 H         1 ATP         0.0000 
     34 H5'2       46.5714   40.2346   54.6253 H         1 ATP         0.0000 
     35 H4'        45.6654   38.3452   53.6190 H         1 ATP         0.0000 
     36 H3'        48.2020   39.8423   54.4542 H         1 ATP         0.0000 
     37 HO3'       47.0751   38.8571   56.1666 H         1 ATP         0.0000 
     38 H2'        49.7910   38.3380   53.2466 H         1 ATP         0.0000 
     39 HO2'       49.0003   36.3505   54.3868 H         1 ATP         0.0000 
     40 H1'        48.1676   37.5175   51.0776 H         1 ATP         0.0000 
     41 H8         47.8360   41.3900   51.4990 H         1 ATP         0.0000 
     42 HN61       51.2389   42.5309   48.3533 H         1 ATP         0.0000 
     43 HN62       52.5468   41.5221   47.4038 H         1 ATP         0.0000 
     44 H2         52.0360   37.2290   48.7590 H         1 ATP         0.0000 
     45 H45        49.3328   42.5801   50.0600 H         1 ATP         0.0000 
@<TRIPOS>BOND
     1    1    2 2    
     2    1    3 1    
     3    1    4 1    
     4    1    8 1    
     5    4   32 1    
     6    5    6 2    
     7    5    7 1    
     8    5    8 1    
     9    5   12 1    
    10    9   10 2    
    11    9   11 1    
    12    9   12 1    
    13    9   13 1    
    14   13   14 1    
    15   14   15 1    
    16   14   33 1    
    17   14   34 1    
    18   15   16 1    
    19   15   17 1    
    20   15   35 1    
    21   16   21 1    
    22   17   18 1    
    23   17   19 1    
    24   17   36 1    
    25   18   37 1    
    26   19   20 1    
    27   19   21 1    
    28   19   38 1    
    29   20   39 1    
    30   21   22 1    
    31   21   40 1    
    32   22   23 ar   
    33   22   31 ar   
    34   23   24 ar   
    35   23   41 1    
    36   24   25 ar   
    37   24   45 1    
    38   25   26 ar   
    39   25   31 ar   
    40   26   27 1    
    41   26   28 ar   
    42   27   42 1    
    43   27   43 1    
    44   28   29 ar   
    45   29   30 ar   
    46   29   44 1    
    47   30   31 ar   
@<TRIPOS>SUBSTRUCTURE
     1 ATP         1 GROUP             0       ****    0 ROOT    
@<TRIPOS>MOLECULE
ATP
46   48    1
SMALL
USER_CHARGES


@<TRIPOS>ATOM
      1 PG         46.1070   45.1820   56.9500 P.3       1 ATP         0.0000 
      2 O1G        45.7790   46.3300   56.0520 O.2       1 ATP         0.0000 
      3 O2G        47.3820   44.4970   56.6260 O.3       1 ATP         0.0000 
      4 O3G        45.9720   45.5300   58.3750 O.3       1 ATP         0.0000 
      5 PB         43.9110   43.7400   55.6550 P.3       1 ATP         0.0000 
      6 O1B        42.9750   42.7220   55.9860 O.co2     1 ATP         0.0000 
      7 O2B        43.6030   44.7670   54.6780 O.co2     1 ATP         0.0000 
      8 O3B        45.0410   44.0150   56.7380 O.3       1 ATP         0.0000 
      9 PA         45.2280   42.6690   53.2570 P.3       1 ATP         0.0000 
     10 O1A        46.3800   43.3960   52.7880 O.co2     1 ATP         0.0000 
     11 O2A        44.1830   42.1900   52.3510 O.co2     1 ATP         0.0000 
     12 O3A        44.9170   42.7160   54.7890 O.3       1 ATP         0.0000 
     13 O5'        46.1720   41.5680   53.3020 O.3       1 ATP         0.0000 
     14 C5'        46.6090   40.4220   53.5420 C.3       1 ATP         0.0000 
     15 C4'        46.5200   38.9890   53.3640 C.3       1 ATP         0.0000 
     16 O4'        46.7850   38.9080   51.9480 O.3       1 ATP         0.0000 
     17 C3'        47.8080   38.8740   54.1120 C.3       1 ATP         0.0000 
     18 O3'        47.7130   38.3570   55.4230 O.3       1 ATP         0.0000 
     19 C2'        48.7190   38.1160   53.1390 C.3       1 ATP         0.0000 
     20 O2'        48.6320   36.7370   53.4250 O.3       1 ATP         0.0000 
     21 C1'        48.1330   38.4090   51.7210 C.3       1 ATP         0.0000 
     22 N9         48.8460   39.4640   50.9860 N.pl3     1 ATP         0.0000 
     23 C8         48.6160   40.8420   50.9450 C.ar      1 ATP         0.0000 
     24 N7         49.4250   41.4890   50.1650 N.2       1 ATP         0.0000 
     25 C5         50.2320   40.4700   49.6640 C.ar      1 ATP         0.0000 
     26 C6         51.3080   40.4660   48.7310 C.ar      1 ATP         0.0000 
     27 N6         51.7210   41.5680   48.1290 N.pl3     1 ATP         0.0000 
     28 N1         51.9120   39.2740   48.4470 N.pl3     1 ATP         0.0000 
     29 C2         51.4930   38.1510   49.0290 C.ar      1 ATP         0.0000 
     30 N3         50.4910   38.0160   49.9000 N.ar      1 ATP         0.0000 
     31 C4         49.8920   39.2530   50.1710 C.ar      1 ATP         0.0000 
     32 HOG2       48.3320   45.0490   56.6795 H         1 ATP         0.0000 
     33 HOG3       46.5992   46.3224   58.8095 H         1 ATP         0.0000 
     34 H5'1       47.6492   40.3457   53.1926 H         1 ATP         0.0000 
     35 H5'2       46.5714   40.2346   54.6253 H         1 ATP         0.0000 
     36 H4'        45.6654   38.3452   53.6190 H         1 ATP         0.0000 
     37 H3'        48.2020   39.8423   54.4542 H         1 ATP         0.0000 
     38 HO3'       47.0751   38.8571   56.1666 H         1 ATP         0.0000 
     39 H2'        49.7910   38.3380   53.2466 H         1 ATP         0.0000 
     40 HO2'       49.0003   36.3505   54.3868 H         1 ATP         0.0000 
     41 H1'        48.1676   37.5175   51.0776 H         1 ATP         0.0000 
     42 H8         47.8360   41.3900   51.4990 H         1 ATP         0.0000 
     43 HN61       51.2389   42.5309   48.3533 H         1 ATP         0.0000 
     44 HN62       52.5468   41.5221   47.4038 H         1 ATP         0.0000 
     45 H2         52.0360   37.2290   48.7590 H         1 ATP         0.0000 
     46 H46        52.7492   39.2376   47.7344 H         1 ATP         0.0000 
@<TRIPOS>BOND
     1    1    2 2    
     2    1    3 1    
     3    1    4 1    
     4    1    8 1    
     5    3   32 1    
     6    4   33 1    
     7    5    6 2    
     8    5    7 1    
     9    5    8 1    
    10    5   12 1    
    11    9   10 2    
    12    9   11 1    
    13    9   12 1    
    14    9   13 1    
    15   13   14 1    
    16   14   15 1    
    17   14   34 1    
    18   14   35 1    
    19   15   16 1    
    20   15   17 1    
    21   15   36 1    
    22   16   21 1    
    23   17   18 1    
    24   17   19 1    
    25   17   37 1    
    26   18   38 1    
    27   19   20 1    
    28   19   21 1    
    29   19   39 1    
    30   20   40 1    
    31   21   22 1    
    32   21   41 1    
    33   22   23 ar   
    34   22   31 ar   
    35   23   24 ar   
    36   23   42 1    
    37   24   25 ar   
    38   25   26 ar   
    39   25   31 ar   
    40   26   27 1    
    41   26   28 ar   
    42   27   43 1    
    43   27   44 1    
    44   28   29 ar   
    45   28   46 1    
    46   29   30 ar   
    47   29   45 1    
    48   30   31 ar   
@<TRIPOS>SUBSTRUCTURE
     1 ATP         1 GROUP             0       ****    0 ROOT    
@<TRIPOS>MOLECULE
ATP
46   48    1
SMALL
USER_CHARGES


@<TRIPOS>ATOM
      1 PG         46.1070   45.1820   56.9500 P.3       1 ATP         0.0000 
      2 O1G        45.7790   46.3300   56.0520 O.2       1 ATP         0.0000 
      3 O2G        47.3820   44.4970   56.6260 O.3       1 ATP         0.0000 
      4 O3G        45.9720   45.5300   58.3750 O.3       1 ATP         0.0000 
      5 PB         43.9110   43.7400   55.6550 P.3       1 ATP         0.0000 
      6 O1B        42.9750   42.7220   55.9860 O.co2     1 ATP         0.0000 
      7 O2B        43.6030   44.7670   54.6780 O.co2     1 ATP         0.0000 
      8 O3B        45.0410   44.0150   56.7380 O.3       1 ATP         0.0000 
      9 PA         45.2280   42.6690   53.2570 P.3       1 ATP         0.0000 
     10 O1A        46.3800   43.3960   52.7880 O.2       1 ATP         0.0000 
     11 O2A        44.1830   42.1900   52.3510 O.3       1 ATP         0.0000 
     12 O3A        44.9170   42.7160   54.7890 O.3       1 ATP         0.0000 
     13 O5'        46.1720   41.5680   53.3020 O.3       1 ATP         0.0000 
     14 C5'        46.6090   40.4220   53.5420 C.3       1 ATP         0.0000 
     15 C4'        46.5200   38.9890   53.3640 C.3       1 ATP         0.0000 
     16 O4'        46.7850   38.9080   51.9480 O.3       1 ATP         0.0000 
     17 C3'        47.8080   38.8740   54.1120 C.3       1 ATP         0.0000 
     18 O3'        47.7130   38.3570   55.4230 O.3       1 ATP         0.0000 
     19 C2'        48.7190   38.1160   53.1390 C.3       1 ATP         0.0000 
     20 O2'        48.6320   36.7370   53.4250 O.3       1 ATP         0.0000 
     21 C1'        48.1330   38.4090   51.7210 C.3       1 ATP         0.0000 
     22 N9         48.8460   39.4640   50.9860 N.pl3     1 ATP         0.0000 
     23 C8         48.6160   40.8420   50.9450 C.ar      1 ATP         0.0000 
     24 N7         49.4250   41.4890   50.1650 N.2       1 ATP         0.0000 
     25 C5         50.2320   40.4700   49.6640 C.ar      1 ATP         0.0000 
     26 C6         51.3080   40.4660   48.7310 C.ar      1 ATP         0.0000 
     27 N6         51.7210   41.5680   48.1290 N.pl3     1 ATP         0.0000 
     28 N1         51.9120   39.2740   48.4470 N.ar      1 ATP         0.0000 
     29 C2         51.4930   38.1510   49.0290 C.ar      1 ATP         0.0000 
     30 N3         50.4910   38.0160   49.9000 N.ar      1 ATP         0.0000 
     31 C4         49.8920   39.2530   50.1710 C.ar      1 ATP         0.0000 
     32 HOG2       48.3320   45.0490   56.6795 H         1 ATP         0.0000 
     33 HOG3       46.5992   46.3224   58.8095 H         1 ATP         0.0000 
     34 HOA2       43.3173   42.8293   52.1230 H         1 ATP         0.0000 
     35 H5'1       47.6492   40.3457   53.1926 H         1 ATP         0.0000 
     36 H5'2       46.5714   40.2346   54.6253 H         1 ATP         0.0000 
     37 H4'        45.6654   38.3452   53.6190 H         1 ATP         0.0000 
     38 H3'        48.2020   39.8423   54.4542 H         1 ATP         0.0000 
     39 HO3'       47.0751   38.8571   56.1666 H         1 ATP         0.0000 
     40 H2'        49.7910   38.3380   53.2466 H         1 ATP         0.0000 
     41 HO2'       49.0003   36.3505   54.3868 H         1 ATP         0.0000 
     42 H1'        48.1676   37.5175   51.0776 H         1 ATP         0.0000 
     43 H8         47.8360   41.3900   51.4990 H         1 ATP         0.0000 
     44 HN61       51.2389   42.5309   48.3533 H         1 ATP         0.0000 
     45 HN62       52.5468   41.5221   47.4038 H         1 ATP         0.0000 
     46 H2         52.0360   37.2290   48.7590 H         1 ATP         0.0000 
@<TRIPOS>BOND
     1    1    2 2    
     2    1    3 1    
     3    1    4 1    
     4    1    8 1    
     5    3   32 1    
     6    4   33 1    
     7    5    6 2    
     8    5    7 1    
     9    5    8 1    
    10    5   12 1    
    11    9   10 2    
    12    9   11 1    
    13    9   12 1    
    14    9   13 1    
    15   11   34 1    
    16   13   14 1    
    17   14   15 1    
    18   14   35 1    
    19   14   36 1    
    20   15   16 1    
    21   15   17 1    
    22   15   37 1    
    23   16   21 1    
    24   17   18 1    
    25   17   19 1    
    26   17   38 1    
    27   18   39 1    
    28   19   20 1    
    29   19   21 1    
    30   19   40 1    
    31   20   41 1    
    32   21   22 1    
    33   21   42 1    
    34   22   23 ar   
    35   22   31 ar   
    36   23   24 ar   
    37   23   43 1    
    38   24   25 ar   
    39   25   26 ar   
    40   25   31 ar   
    41   26   27 1    
    42   26   28 ar   
    43   27   44 1    
    44   27   45 1    
    45   28   29 ar   
    46   29   30 ar   
    47   29   46 1    
    48   30   31 ar   
@<TRIPOS>SUBSTRUCTURE
     1 ATP         1 GROUP             0       ****    0 ROOT    
@<TRIPOS>MOLECULE
ATP
46   48    1
SMALL
USER_CHARGES


@<TRIPOS>ATOM
      1 PG         46.1070   45.1820   56.9500 P.3       1 ATP         0.0000 
      2 O1G        45.7790   46.3300   56.0520 O.co2     1 ATP         0.0000 
      3 O2G        47.3820   44.4970   56.6260 O.co2     1 ATP         0.0000 
      4 O3G        45.9720   45.5300   58.3750 O.3       1 ATP         0.0000 
      5 PB         43.9110   43.7400   55.6550 P.3       1 ATP         0.0000 
      6 O1B        42.9750   42.7220   55.9860 O.2       1 ATP         0.0000 
      7 O2B        43.6030   44.7670   54.6780 O.3       1 ATP         0.0000 
      8 O3B        45.0410   44.0150   56.7380 O.3       1 ATP         0.0000 
      9 PA         45.2280   42.6690   53.2570 P.3       1 ATP         0.0000 
     10 O1A        46.3800   43.3960   52.7880 O.2       1 ATP         0.0000 
     11 O2A        44.1830   42.1900   52.3510 O.3       1 ATP         0.0000 
     12 O3A        44.9170   42.7160   54.7890 O.3       1 ATP         0.0000 
     13 O5'        46.1720   41.5680   53.3020 O.3       1 ATP         0.0000 
     14 C5'        46.6090   40.4220   53.5420 C.3       1 ATP         0.0000 
     15 C4'        46.5200   38.9890   53.3640 C.3       1 ATP         0.0000 
     16 O4'        46.7850   38.9080   51.9480 O.3       1 ATP         0.0000 
     17 C3'        47.8080   38.8740   54.1120 C.3       1 ATP         0.0000 
     18 O3'        47.7130   38.3570   55.4230 O.3       1 ATP         0.0000 
     19 C2'        48.7190   38.1160   53.1390 C.3       1 ATP         0.0000 
     20 O2'        48.6320   36.7370   53.4250 O.3       1 ATP         0.0000 
     21 C1'        48.1330   38.4090   51.7210 C.3       1 ATP         0.0000 
     22 N9         48.8460   39.4640   50.9860 N.pl3     1 ATP         0.0000 
     23 C8         48.6160   40.8420   50.9450 C.ar      1 ATP         0.0000 
     24 N7         49.4250   41.4890   50.1650 N.2       1 ATP         0.0000 
     25 C5         50.2320   40.4700   49.6640 C.ar      1 ATP         0.0000 
     26 C6         51.3080   40.4660   48.7310 C.ar      1 ATP         0.0000 
     27 N6         51.7210   41.5680   48.1290 N.pl3     1 ATP         0.0000 
     28 N1         51.9120   39.2740   48.4470 N.ar      1 ATP         0.0000 
     29 C2         51.4930   38.1510   49.0290 C.ar      1 ATP         0.0000 
     30 N3         50.4910   38.0160   49.9000 N.ar      1 ATP         0.0000 
     31 C4         49.8920   39.2530   50.1710 C.ar      1 ATP         0.0000 
     32 HOG3       46.5992   46.3224   58.8095 H         1 ATP         0.0000 
     33 HOB2       42.9452   45.6055   54.9502 H         1 ATP         0.0000 
     34 HOA2       43.3173   42.8293   52.1230 H         1 ATP         0.0000 
     35 H5'1       47.6492   40.3457   53.1926 H         1 ATP         0.0000 
     36 H5'2       46.5714   40.2346   54.6253 H         1 ATP         0.0000 
     37 H4'        45.6654   38.3452   53.6190 H         1 ATP         0.0000 
     38 H3'        48.2020   39.8423   54.4542 H         1 ATP         0.0000 
     39 HO3'       47.0751   38.8571   56.1666 H         1 ATP         0.0000 
     40 H2'        49.7910   38.3380   53.2466 H         1 ATP         0.0000 
     41 HO2'       49.0003   36.3505   54.3868 H         1 ATP         0.0000 
     42 H1'        48.1676   37.5175   51.0776 H         1 ATP         0.0000 
     43 H8         47.8360   41.3900   51.4990 H         1 ATP         0.0000 
     44 HN61       51.2389   42.5309   48.3533 H         1 ATP         0.0000 
     45 HN62       52.5468   41.5221   47.4038 H         1 ATP         0.0000 
     46 H2         52.0360   37.2290   48.7590 H         1 ATP         0.0000 
@<TRIPOS>BOND
     1    1    2 2    
     2    1    3 1    
     3    1    4 1    
     4    1    8 1    
     5    4   32 1    
     6    5    6 2    
     7    5    7 1    
     8    5    8 1    
     9    5   12 1    
    10    7   33 1    
    11    9   10 2    
    12    9   11 1    
    13    9   12 1    
    14    9   13 1    
    15   11   34 1    
    16   13   14 1    
    17   14   15 1    
    18   14   35 1    
    19   14   36 1    
    20   15   16 1    
    21   15   17 1    
    22   15   37 1    
    23   16   21 1    
    24   17   18 1    
    25   17   19 1    
    26   17   38 1    
    27   18   39 1    
    28   19   20 1    
    29   19   21 1    
    30   19   40 1    
    31   20   41 1    
    32   21   22 1    
    33   21   42 1    
    34   22   23 ar   
    35   22   31 ar   
    36   23   24 ar   
    37   23   43 1    
    38   24   25 ar   
    39   25   26 ar   
    40   25   31 ar   
    41   26   27 1    
    42   26   28 ar   
    43   27   44 1    
    44   27   45 1    
    45   28   29 ar   
    46   29   30 ar   
    47   29   46 1    
    48   30   31 ar   
@<TRIPOS>SUBSTRUCTURE
     1 ATP         1 GROUP             0       ****    0 ROOT    
@<TRIPOS>MOLECULE
ATP
47   49    1
SMALL
USER_CHARGES


@<TRIPOS>ATOM
      1 PG         46.1070   45.1820   56.9500 P.3       1 ATP         0.0000 
      2 O1G        45.7790   46.3300   56.0520 O.2       1 ATP         0.0000 
      3 O2G        47.3820   44.4970   56.6260 O.3       1 ATP         0.0000 
      4 O3G        45.9720   45.5300   58.3750 O.3       1 ATP         0.0000 
      5 PB         43.9110   43.7400   55.6550 P.3       1 ATP         0.0000 
      6 O1B        42.9750   42.7220   55.9860 O.co2     1 ATP         0.0000 
      7 O2B        43.6030   44.7670   54.6780 O.co2     1 ATP         0.0000 
      8 O3B        45.0410   44.0150   56.7380 O.3       1 ATP         0.0000 
      9 PA         45.2280   42.6690   53.2570 P.3       1 ATP         0.0000 
     10 O1A        46.3800   43.3960   52.7880 O.2       1 ATP         0.0000 
     11 O2A        44.1830   42.1900   52.3510 O.3       1 ATP         0.0000 
     12 O3A        44.9170   42.7160   54.7890 O.3       1 ATP         0.0000 
     13 O5'        46.1720   41.5680   53.3020 O.3       1 ATP         0.0000 
     14 C5'        46.6090   40.4220   53.5420 C.3       1 ATP         0.0000 
     15 C4'        46.5200   38.9890   53.3640 C.3       1 ATP         0.0000 
     16 O4'        46.7850   38.9080   51.9480 O.3       1 ATP         0.0000 
     17 C3'        47.8080   38.8740   54.1120 C.3       1 ATP         0.0000 
     18 O3'        47.7130   38.3570   55.4230 O.3       1 ATP         0.0000 
     19 C2'        48.7190   38.1160   53.1390 C.3       1 ATP         0.0000 
     20 O2'        48.6320   36.7370   53.4250 O.3       1 ATP         0.0000 
     21 C1'        48.1330   38.4090   51.7210 C.3       1 ATP         0.0000 
     22 N9         48.8460   39.4640   50.9860 N.pl3     1 ATP         0.0000 
     23 C8         48.6160   40.8420   50.9450 C.ar      1 ATP         0.0000 
     24 N7         49.4250   41.4890   50.1650 N.2       1 ATP         0.0000 
     25 C5         50.2320   40.4700   49.6640 C.ar      1 ATP         0.0000 
     26 C6         51.3080   40.4660   48.7310 C.ar      1 ATP         0.0000 
     27 N6         51.7210   41.5680   48.1290 N.pl3     1 ATP         0.0000 
     28 N1         51.9120   39.2740   48.4470 N.pl3     1 ATP         0.0000 
     29 C2         51.4930   38.1510   49.0290 C.ar      1 ATP         0.0000 
     30 N3         50.4910   38.0160   49.9000 N.ar      1 ATP         0.0000 
     31 C4         49.8920   39.2530   50.1710 C.ar      1 ATP         0.0000 
     32 HOG2       48.3320   45.0490   56.6795 H         1 ATP         0.0000 
     33 HOG3       46.5992   46.3224   58.8095 H         1 ATP         0.0000 
     34 HOA2       43.3173   42.8293   52.1230 H         1 ATP         0.0000 
     35 H5'1       47.6492   40.3457   53.1926 H         1 ATP         0.0000 
     36 H5'2       46.5714   40.2346   54.6253 H         1 ATP         0.0000 
     37 H4'        45.6654   38.3452   53.6190 H         1 ATP         0.0000 
     38 H3'        48.2020   39.8423   54.4542 H         1 ATP         0.0000 
     39 HO3'       47.0751   38.8571   56.1666 H         1 ATP         0.0000 
     40 H2'        49.7910   38.3380   53.2466 H         1 ATP         0.0000 
     41 HO2'       49.0003   36.3505   54.3868 H         1 ATP         0.0000 
     42 H1'        48.1676   37.5175   51.0776 H         1 ATP         0.0000 
     43 H8         47.8360   41.3900   51.4990 H         1 ATP         0.0000 
     44 HN61       51.2389   42.5309   48.3533 H         1 ATP         0.0000 
     45 HN62       52.5468   41.5221   47.4038 H         1 ATP         0.0000 
     46 H2         52.0360   37.2290   48.7590 H         1 ATP         0.0000 
     47 H47        52.7492   39.2376   47.7344 H         1 ATP         0.0000 
@<TRIPOS>BOND
     1    1    2 2    
     2    1    3 1    
     3    1    4 1    
     4    1    8 1    
     5    3   32 1    
     6    4   33 1    
     7    5    6 2    
     8    5    7 1    
     9    5    8 1    
    10    5   12 1    
    11    9   10 2    
    12    9   11 1    
    13    9   12 1    
    14    9   13 1    
    15   11   34 1    
    16   13   14 1    
    17   14   15 1    
    18   14   35 1    
    19   14   36 1    
    20   15   16 1    
    21   15   17 1    
    22   15   37 1    
    23   16   21 1    
    24   17   18 1    
    25   17   19 1    
    26   17   38 1    
    27   18   39 1    
    28   19   20 1    
    29   19   21 1    
    30   19   40 1    
    31   20   41 1    
    32   21   22 1    
    33   21   42 1    
    34   22   23 ar   
    35   22   31 ar   
    36   23   24 ar   
    37   23   43 1    
    38   24   25 ar   
    39   25   26 ar   
    40   25   31 ar   
    41   26   27 1    
    42   26   28 ar   
    43   27   44 1    
    44   27   45 1    
    45   28   29 ar   
    46   28   47 1    
    47   29   30 ar   
    48   29   46 1    
    49   30   31 ar   
@<TRIPOS>SUBSTRUCTURE
     1 ATP         1 GROUP             0       ****    0 ROOT    
@<TRIPOS>MOLECULE
ATP
46   48    1
SMALL
USER_CHARGES


@<TRIPOS>ATOM
      1 PG         46.1070   45.1820   56.9500 P.3       1 ATP         0.0000 
      2 O1G        45.7790   46.3300   56.0520 O.co2     1 ATP         0.0000 
      3 O2G        47.3820   44.4970   56.6260 O.co2     1 ATP         0.0000 
      4 O3G        45.9720   45.5300   58.3750 O.3       1 ATP         0.0000 
      5 PB         43.9110   43.7400   55.6550 P.3       1 ATP         0.0000 
      6 O1B        42.9750   42.7220   55.9860 O.co2     1 ATP         0.0000 
      7 O2B        43.6030   44.7670   54.6780 O.co2     1 ATP         0.0000 
      8 O3B        45.0410   44.0150   56.7380 O.3       1 ATP         0.0000 
      9 PA         45.2280   42.6690   53.2570 P.3       1 ATP         0.0000 
     10 O1A        46.3800   43.3960   52.7880 O.2       1 ATP         0.0000 
     11 O2A        44.1830   42.1900   52.3510 O.3       1 ATP         0.0000 
     12 O3A        44.9170   42.7160   54.7890 O.3       1 ATP         0.0000 
     13 O5'        46.1720   41.5680   53.3020 O.3       1 ATP         0.0000 
     14 C5'        46.6090   40.4220   53.5420 C.3       1 ATP         0.0000 
     15 C4'        46.5200   38.9890   53.3640 C.3       1 ATP         0.0000 
     16 O4'        46.7850   38.9080   51.9480 O.3       1 ATP         0.0000 
     17 C3'        47.8080   38.8740   54.1120 C.3       1 ATP         0.0000 
     18 O3'        47.7130   38.3570   55.4230 O.3       1 ATP         0.0000 
     19 C2'        48.7190   38.1160   53.1390 C.3       1 ATP         0.0000 
     20 O2'        48.6320   36.7370   53.4250 O.3       1 ATP         0.0000 
     21 C1'        48.1330   38.4090   51.7210 C.3       1 ATP         0.0000 
     22 N9         48.8460   39.4640   50.9860 N.pl3     1 ATP         0.0000 
     23 C8         48.6160   40.8420   50.9450 C.ar      1 ATP         0.0000 
     24 N7         49.4250   41.4890   50.1650 N.pl3     1 ATP         0.0000 
     25 C5         50.2320   40.4700   49.6640 C.ar      1 ATP         0.0000 
     26 C6         51.3080   40.4660   48.7310 C.ar      1 ATP         0.0000 
     27 N6         51.7210   41.5680   48.1290 N.pl3     1 ATP         0.0000 
     28 N1         51.9120   39.2740   48.4470 N.ar      1 ATP         0.0000 
     29 C2         51.4930   38.1510   49.0290 C.ar      1 ATP         0.0000 
     30 N3         50.4910   38.0160   49.9000 N.ar      1 ATP         0.0000 
     31 C4         49.8920   39.2530   50.1710 C.ar      1 ATP         0.0000 
     32 HOG3       46.5992   46.3224   58.8095 H         1 ATP         0.0000 
     33 HOA2       43.3173   42.8293   52.1230 H         1 ATP         0.0000 
     34 H5'1       47.6492   40.3457   53.1926 H         1 ATP         0.0000 
     35 H5'2       46.5714   40.2346   54.6253 H         1 ATP         0.0000 
     36 H4'        45.6654   38.3452   53.6190 H         1 ATP         0.0000 
     37 H3'        48.2020   39.8423   54.4542 H         1 ATP         0.0000 
     38 HO3'       47.0751   38.8571   56.1666 H         1 ATP         0.0000 
     39 H2'        49.7910   38.3380   53.2466 H         1 ATP         0.0000 
     40 HO2'       49.0003   36.3505   54.3868 H         1 ATP         0.0000 
     41 H1'        48.1676   37.5175   51.0776 H         1 ATP         0.0000 
     42 H8         47.8360   41.3900   51.4990 H         1 ATP         0.0000 
     43 HN61       51.2389   42.5309   48.3533 H         1 ATP         0.0000 
     44 HN62       52.5468   41.5221   47.4038 H         1 ATP         0.0000 
     45 H2         52.0360   37.2290   48.7590 H         1 ATP         0.0000 
     46 H46        49.3328   42.5801   50.0600 H         1 ATP         0.0000 
@<TRIPOS>BOND
     1    1    2 2    
     2    1    3 1    
     3    1    4 1    
     4    1    8 1    
     5    4   32 1    
     6    5    6 2    
     7    5    7 1    
     8    5    8 1    
     9    5   12 1    
    10    9   10 2    
    11    9   11 1    
    12    9   12 1    
    13    9   13 1    
    14   11   33 1    
    15   13   14 1    
    16   14   15 1    
    17   14   34 1    
    18   14   35 1    
    19   15   16 1    
    20   15   17 1    
    21   15   36 1    
    22   16   21 1    
    23   17   18 1    
    24   17   19 1    
    25   17   37 1    
    26   18   38 1    
    27   19   20 1    
    28   19   21 1    
    29   19   39 1    
    30   20   40 1    
    31   21   22 1    
    32   21   41 1    
    33   22   23 ar   
    34   22   31 ar   
    35   23   24 ar   
    36   23   42 1    
    37   24   25 ar   
    38   24   46 1    
    39   25   26 ar   
    40   25   31 ar   
    41   26   27 1    
    42   26   28 ar   
    43   27   43 1    
    44   27   44 1    
    45   28   29 ar   
    46   29   30 ar   
    47   29   45 1    
    48   30   31 ar   
@<TRIPOS>SUBSTRUCTURE
     1 ATP         1 GROUP             0       ****    0 ROOT    
@<TRIPOS>MOLECULE
ATP
46   48    1
SMALL
USER_CHARGES


@<TRIPOS>ATOM
      1 PG         46.1070   45.1820   56.9500 P.3       1 ATP         0.0000 
      2 O1G        45.7790   46.3300   56.0520 O.2       1 ATP         0.0000 
      3 O2G        47.3820   44.4970   56.6260 O.3       1 ATP         0.0000 
      4 O3G        45.9720   45.5300   58.3750 O.3       1 ATP         0.0000 
      5 PB         43.9110   43.7400   55.6550 P.3       1 ATP         0.0000 
      6 O1B        42.9750   42.7220   55.9860 O.2       1 ATP         0.0000 
      7 O2B        43.6030   44.7670   54.6780 O.3       1 ATP         0.0000 
      8 O3B        45.0410   44.0150   56.7380 O.3       1 ATP         0.0000 
      9 PA         45.2280   42.6690   53.2570 P.3       1 ATP         0.0000 
     10 O1A        46.3800   43.3960   52.7880 O.co2     1 ATP         0.0000 
     11 O2A        44.1830   42.1900   52.3510 O.co2     1 ATP         0.0000 
     12 O3A        44.9170   42.7160   54.7890 O.3       1 ATP         0.0000 
     13 O5'        46.1720   41.5680   53.3020 O.3       1 ATP         0.0000 
     14 C5'        46.6090   40.4220   53.5420 C.3       1 ATP         0.0000 
     15 C4'        46.5200   38.9890   53.3640 C.3       1 ATP         0.0000 
     16 O4'        46.7850   38.9080   51.9480 O.3       1 ATP         0.0000 
     17 C3'        47.8080   38.8740   54.1120 C.3       1 ATP         0.0000 
     18 O3'        47.7130   38.3570   55.4230 O.3       1 ATP         0.0000 
     19 C2'        48.7190   38.1160   53.1390 C.3       1 ATP         0.0000 
     20 O2'        48.6320   36.7370   53.4250 O.3       1 ATP         0.0000 
     21 C1'        48.1330   38.4090   51.7210 C.3       1 ATP         0.0000 
     22 N9         48.8460   39.4640   50.9860 N.pl3     1 ATP         0.0000 
     23 C8         48.6160   40.8420   50.9450 C.ar      1 ATP         0.0000 
     24 N7         49.4250   41.4890   50.1650 N.2       1 ATP         0.0000 
     25 C5         50.2320   40.4700   49.6640 C.ar      1 ATP         0.0000 
     26 C6         51.3080   40.4660   48.7310 C.ar      1 ATP         0.0000 
     27 N6         51.7210   41.5680   48.1290 N.pl3     1 ATP         0.0000 
     28 N1         51.9120   39.2740   48.4470 N.ar      1 ATP         0.0000 
     29 C2         51.4930   38.1510   49.0290 C.ar      1 ATP         0.0000 
     30 N3         50.4910   38.0160   49.9000 N.ar      1 ATP         0.0000 
     31 C4         49.8920   39.2530   50.1710 C.ar      1 ATP         0.0000 
     32 HOG2       48.3320   45.0490   56.6795 H         1 ATP         0.0000 
     33 HOG3       46.5992   46.3224   58.8095 H         1 ATP         0.0000 
     34 HOB2       42.9452   45.6055   54.9502 H         1 ATP         0.0000 
     35 H5'1       47.6492   40.3457   53.1926 H         1 ATP         0.0000 
     36 H5'2       46.5714   40.2346   54.6253 H         1 ATP         0.0000 
     37 H4'        45.6654   38.3452   53.6190 H         1 ATP         0.0000 
     38 H3'        48.2020   39.8423   54.4542 H         1 ATP         0.0000 
     39 HO3'       47.0751   38.8571   56.1666 H         1 ATP         0.0000 
     40 H2'        49.7910   38.3380   53.2466 H         1 ATP         0.0000 
     41 HO2'       49.0003   36.3505   54.3868 H         1 ATP         0.0000 
     42 H1'        48.1676   37.5175   51.0776 H         1 ATP         0.0000 
     43 H8         47.8360   41.3900   51.4990 H         1 ATP         0.0000 
     44 HN61       51.2389   42.5309   48.3533 H         1 ATP         0.0000 
     45 HN62       52.5468   41.5221   47.4038 H         1 ATP         0.0000 
     46 H2         52.0360   37.2290   48.7590 H         1 ATP         0.0000 
@<TRIPOS>BOND
     1    1    2 2    
     2    1    3 1    
     3    1    4 1    
     4    1    8 1    
     5    3   32 1    
     6    4   33 1    
     7    5    6 2    
     8    5    7 1    
     9    5    8 1    
    10    5   12 1    
    11    7   34 1    
    12    9   10 2    
    13    9   11 1    
    14    9   12 1    
    15    9   13 1    
    16   13   14 1    
    17   14   15 1    
    18   14   35 1    
    19   14   36 1    
    20   15   16 1    
    21   15   17 1    
    22   15   37 1    
    23   16   21 1    
    24   17   18 1    
    25   17   19 1    
    26   17   38 1    
    27   18   39 1    
    28   19   20 1    
    29   19   21 1    
    30   19   40 1    
    31   20   41 1    
    32   21   22 1    
    33   21   42 1    
    34   22   23 ar   
    35   22   31 ar   
    36   23   24 ar   
    37   23   43 1    
    38   24   25 ar   
    39   25   26 ar   
    40   25   31 ar   
    41   26   27 1    
    42   26   28 ar   
    43   27   44 1    
    44   27   45 1    
    45   28   29 ar   
    46   29   30 ar   
    47   29   46 1    
    48   30   31 ar   
@<TRIPOS>SUBSTRUCTURE
     1 ATP         1 GROUP             0       ****    0 ROOT    
@<TRIPOS>MOLECULE
ATP
47   49    1
SMALL
USER_CHARGES


@<TRIPOS>ATOM
      1 PG         46.1070   45.1820   56.9500 P.3       1 ATP         0.0000 
      2 O1G        45.7790   46.3300   56.0520 O.co2     1 ATP         0.0000 
      3 O2G        47.3820   44.4970   56.6260 O.co2     1 ATP         0.0000 
      4 O3G        45.9720   45.5300   58.3750 O.3       1 ATP         0.0000 
      5 PB         43.9110   43.7400   55.6550 P.3       1 ATP         0.0000 
      6 O1B        42.9750   42.7220   55.9860 O.2       1 ATP         0.0000 
      7 O2B        43.6030   44.7670   54.6780 O.3       1 ATP         0.0000 
      8 O3B        45.0410   44.0150   56.7380 O.3       1 ATP         0.0000 
      9 PA         45.2280   42.6690   53.2570 P.3       1 ATP         0.0000 
     10 O1A        46.3800   43.3960   52.7880 O.2       1 ATP         0.0000 
     11 O2A        44.1830   42.1900   52.3510 O.3       1 ATP         0.0000 
     12 O3A        44.9170   42.7160   54.7890 O.3       1 ATP         0.0000 
     13 O5'        46.1720   41.5680   53.3020 O.3       1 ATP         0.0000 
     14 C5'        46.6090   40.4220   53.5420 C.3       1 ATP         0.0000 
     15 C4'        46.5200   38.9890   53.3640 C.3       1 ATP         0.0000 
     16 O4'        46.7850   38.9080   51.9480 O.3       1 ATP         0.0000 
     17 C3'        47.8080   38.8740   54.1120 C.3       1 ATP         0.0000 
     18 O3'        47.7130   38.3570   55.4230 O.3       1 ATP         0.0000 
     19 C2'        48.7190   38.1160   53.1390 C.3       1 ATP         0.0000 
     20 O2'        48.6320   36.7370   53.4250 O.3       1 ATP         0.0000 
     21 C1'        48.1330   38.4090   51.7210 C.3       1 ATP         0.0000 
     22 N9         48.8460   39.4640   50.9860 N.pl3     1 ATP         0.0000 
     23 C8         48.6160   40.8420   50.9450 C.ar      1 ATP         0.0000 
     24 N7         49.4250   41.4890   50.1650 N.2       1 ATP         0.0000 
     25 C5         50.2320   40.4700   49.6640 C.ar      1 ATP         0.0000 
     26 C6         51.3080   40.4660   48.7310 C.ar      1 ATP         0.0000 
     27 N6         51.7210   41.5680   48.1290 N.pl3     1 ATP         0.0000 
     28 N1         51.9120   39.2740   48.4470 N.pl3     1 ATP         0.0000 
     29 C2         51.4930   38.1510   49.0290 C.ar      1 ATP         0.0000 
     30 N3         50.4910   38.0160   49.9000 N.ar      1 ATP         0.0000 
     31 C4         49.8920   39.2530   50.1710 C.ar      1 ATP         0.0000 
     32 HOG3       46.5992   46.3224   58.8095 H         1 ATP         0.0000 
     33 HOB2       42.9452   45.6055   54.9502 H         1 ATP         0.0000 
     34 HOA2       43.3173   42.8293   52.1230 H         1 ATP         0.0000 
     35 H5'1       47.6492   40.3457   53.1926 H         1 ATP         0.0000 
     36 H5'2       46.5714   40.2346   54.6253 H         1 ATP         0.0000 
     37 H4'        45.6654   38.3452   53.6190 H         1 ATP         0.0000 
     38 H3'        48.2020   39.8423   54.4542 H         1 ATP         0.0000 
     39 HO3'       47.0751   38.8571   56.1666 H         1 ATP         0.0000 
     40 H2'        49.7910   38.3380   53.2466 H         1 ATP         0.0000 
     41 HO2'       49.0003   36.3505   54.3868 H         1 ATP         0.0000 
     42 H1'        48.1676   37.5175   51.0776 H         1 ATP         0.0000 
     43 H8         47.8360   41.3900   51.4990 H         1 ATP         0.0000 
     44 HN61       51.2389   42.5309   48.3533 H         1 ATP         0.0000 
     45 HN62       52.5468   41.5221   47.4038 H         1 ATP         0.0000 
     46 H2         52.0360   37.2290   48.7590 H         1 ATP         0.0000 
     47 H47        52.7492   39.2376   47.7344 H         1 ATP         0.0000 
@<TRIPOS>BOND
     1    1    2 2    
     2    1    3 1    
     3    1    4 1    
     4    1    8 1    
     5    4   32 1    
     6    5    6 2    
     7    5    7 1    
     8    5    8 1    
     9    5   12 1    
    10    7   33 1    
    11    9   10 2    
    12    9   11 1    
    13    9   12 1    
    14    9   13 1    
    15   11   34 1    
    16   13   14 1    
    17   14   15 1    
    18   14   35 1    
    19   14   36 1    
    20   15   16 1    
    21   15   17 1    
    22   15   37 1    
    23   16   21 1    
    24   17   18 1    
    25   17   19 1    
    26   17   38 1    
    27   18   39 1    
    28   19   20 1    
    29   19   21 1    
    30   19   40 1    
    31   20   41 1    
    32   21   22 1    
    33   21   42 1    
    34   22   23 ar   
    35   22   31 ar   
    36   23   24 ar   
    37   23   43 1    
    38   24   25 ar   
    39   25   26 ar   
    40   25   31 ar   
    41   26   27 1    
    42   26   28 ar   
    43   27   44 1    
    44   27   45 1    
    45   28   29 ar   
    46   28   47 1    
    47   29   30 ar   
    48   29   46 1    
    49   30   31 ar   
@<TRIPOS>SUBSTRUCTURE
     1 ATP         1 GROUP             0       ****    0 ROOT    
@<TRIPOS>MOLECULE
ATP
46   48    1
SMALL
USER_CHARGES


@<TRIPOS>ATOM
      1 PG         46.1070   45.1820   56.9500 P.3       1 ATP         0.0000 
      2 O1G        45.7790   46.3300   56.0520 O.co2     1 ATP         0.0000 
      3 O2G        47.3820   44.4970   56.6260 O.co2     1 ATP         0.0000 
      4 O3G        45.9720   45.5300   58.3750 O.3       1 ATP         0.0000 
      5 PB         43.9110   43.7400   55.6550 P.3       1 ATP         0.0000 
      6 O1B        42.9750   42.7220   55.9860 O.2       1 ATP         0.0000 
      7 O2B        43.6030   44.7670   54.6780 O.3       1 ATP         0.0000 
      8 O3B        45.0410   44.0150   56.7380 O.3       1 ATP         0.0000 
      9 PA         45.2280   42.6690   53.2570 P.3       1 ATP         0.0000 
     10 O1A        46.3800   43.3960   52.7880 O.co2     1 ATP         0.0000 
     11 O2A        44.1830   42.1900   52.3510 O.co2     1 ATP         0.0000 
     12 O3A        44.9170   42.7160   54.7890 O.3       1 ATP         0.0000 
     13 O5'        46.1720   41.5680   53.3020 O.3       1 ATP         0.0000 
     14 C5'        46.6090   40.4220   53.5420 C.3       1 ATP         0.0000 
     15 C4'        46.5200   38.9890   53.3640 C.3       1 ATP         0.0000 
     16 O4'        46.7850   38.9080   51.9480 O.3       1 ATP         0.0000 
     17 C3'        47.8080   38.8740   54.1120 C.3       1 ATP         0.0000 
     18 O3'        47.7130   38.3570   55.4230 O.3       1 ATP         0.0000 
     19 C2'        48.7190   38.1160   53.1390 C.3       1 ATP         0.0000 
     20 O2'        48.6320   36.7370   53.4250 O.3       1 ATP         0.0000 
     21 C1'        48.1330   38.4090   51.7210 C.3       1 ATP         0.0000 
     22 N9         48.8460   39.4640   50.9860 N.pl3     1 ATP         0.0000 
     23 C8         48.6160   40.8420   50.9450 C.ar      1 ATP         0.0000 
     24 N7         49.4250   41.4890   50.1650 N.pl3     1 ATP         0.0000 
     25 C5         50.2320   40.4700   49.6640 C.ar      1 ATP         0.0000 
     26 C6         51.3080   40.4660   48.7310 C.ar      1 ATP         0.0000 
     27 N6         51.7210   41.5680   48.1290 N.pl3     1 ATP         0.0000 
     28 N1         51.9120   39.2740   48.4470 N.ar      1 ATP         0.0000 
     29 C2         51.4930   38.1510   49.0290 C.ar      1 ATP         0.0000 
     30 N3         50.4910   38.0160   49.9000 N.ar      1 ATP         0.0000 
     31 C4         49.8920   39.2530   50.1710 C.ar      1 ATP         0.0000 
     32 HOG3       46.5992   46.3224   58.8095 H         1 ATP         0.0000 
     33 HOB2       42.9452   45.6055   54.9502 H         1 ATP         0.0000 
     34 H5'1       47.6492   40.3457   53.1926 H         1 ATP         0.0000 
     35 H5'2       46.5714   40.2346   54.6253 H         1 ATP         0.0000 
     36 H4'        45.6654   38.3452   53.6190 H         1 ATP         0.0000 
     37 H3'        48.2020   39.8423   54.4542 H         1 ATP         0.0000 
     38 HO3'       47.0751   38.8571   56.1666 H         1 ATP         0.0000 
     39 H2'        49.7910   38.3380   53.2466 H         1 ATP         0.0000 
     40 HO2'       49.0003   36.3505   54.3868 H         1 ATP         0.0000 
     41 H1'        48.1676   37.5175   51.0776 H         1 ATP         0.0000 
     42 H8         47.8360   41.3900   51.4990 H         1 ATP         0.0000 
     43 HN61       51.2389   42.5309   48.3533 H         1 ATP         0.0000 
     44 HN62       52.5468   41.5221   47.4038 H         1 ATP         0.0000 
     45 H2         52.0360   37.2290   48.7590 H         1 ATP         0.0000 
     46 H46        49.3328   42.5801   50.0600 H         1 ATP         0.0000 
@<TRIPOS>BOND
     1    1    2 2    
     2    1    3 1    
     3    1    4 1    
     4    1    8 1    
     5    4   32 1    
     6    5    6 2    
     7    5    7 1    
     8    5    8 1    
     9    5   12 1    
    10    7   33 1    
    11    9   10 2    
    12    9   11 1    
    13    9   12 1    
    14    9   13 1    
    15   13   14 1    
    16   14   15 1    
    17   14   34 1    
    18   14   35 1    
    19   15   16 1    
    20   15   17 1    
    21   15   36 1    
    22   16   21 1    
    23   17   18 1    
    24   17   19 1    
    25   17   37 1    
    26   18   38 1    
    27   19   20 1    
    28   19   21 1    
    29   19   39 1    
    30   20   40 1    
    31   21   22 1    
    32   21   41 1    
    33   22   23 ar   
    34   22   31 ar   
    35   23   24 ar   
    36   23   42 1    
    37   24   25 ar   
    38   24   46 1    
    39   25   26 ar   
    40   25   31 ar   
    41   26   27 1    
    42   26   28 ar   
    43   27   43 1    
    44   27   44 1    
    45   28   29 ar   
    46   29   30 ar   
    47   29   45 1    
    48   30   31 ar   
@<TRIPOS>SUBSTRUCTURE
     1 ATP         1 GROUP             0       ****    0 ROOT    
@<TRIPOS>MOLECULE
ATP
44   46    1
SMALL
USER_CHARGES


@<TRIPOS>ATOM
      1 PG         46.1070   45.1820   56.9500 P.3       1 ATP         0.0000 
      2 O1G        45.7790   46.3300   56.0520 O.co2     1 ATP         0.0000 
      3 O2G        47.3820   44.4970   56.6260 O.co2     1 ATP         0.0000 
      4 O3G        45.9720   45.5300   58.3750 O.co2     1 ATP         0.0000 
      5 PB         43.9110   43.7400   55.6550 P.3       1 ATP         0.0000 
      6 O1B        42.9750   42.7220   55.9860 O.2       1 ATP         0.0000 
      7 O2B        43.6030   44.7670   54.6780 O.3       1 ATP         0.0000 
      8 O3B        45.0410   44.0150   56.7380 O.3       1 ATP         0.0000 
      9 PA         45.2280   42.6690   53.2570 P.3       1 ATP         0.0000 
     10 O1A        46.3800   43.3960   52.7880 O.co2     1 ATP         0.0000 
     11 O2A        44.1830   42.1900   52.3510 O.co2     1 ATP         0.0000 
     12 O3A        44.9170   42.7160   54.7890 O.3       1 ATP         0.0000 
     13 O5'        46.1720   41.5680   53.3020 O.3       1 ATP         0.0000 
     14 C5'        46.6090   40.4220   53.5420 C.3       1 ATP         0.0000 
     15 C4'        46.5200   38.9890   53.3640 C.3       1 ATP         0.0000 
     16 O4'        46.7850   38.9080   51.9480 O.3       1 ATP         0.0000 
     17 C3'        47.8080   38.8740   54.1120 C.3       1 ATP         0.0000 
     18 O3'        47.7130   38.3570   55.4230 O.3       1 ATP         0.0000 
     19 C2'        48.7190   38.1160   53.1390 C.3       1 ATP         0.0000 
     20 O2'        48.6320   36.7370   53.4250 O.3       1 ATP         0.0000 
     21 C1'        48.1330   38.4090   51.7210 C.3       1 ATP         0.0000 
     22 N9         48.8460   39.4640   50.9860 N.pl3     1 ATP         0.0000 
     23 C8         48.6160   40.8420   50.9450 C.ar      1 ATP         0.0000 
     24 N7         49.4250   41.4890   50.1650 N.2       1 ATP         0.0000 
     25 C5         50.2320   40.4700   49.6640 C.ar      1 ATP         0.0000 
     26 C6         51.3080   40.4660   48.7310 C.ar      1 ATP         0.0000 
     27 N6         51.7210   41.5680   48.1290 N.pl3     1 ATP         0.0000 
     28 N1         51.9120   39.2740   48.4470 N.ar      1 ATP         0.0000 
     29 C2         51.4930   38.1510   49.0290 C.ar      1 ATP         0.0000 
     30 N3         50.4910   38.0160   49.9000 N.ar      1 ATP         0.0000 
     31 C4         49.8920   39.2530   50.1710 C.ar      1 ATP         0.0000 
     32 HOB2       42.9452   45.6055   54.9502 H         1 ATP         0.0000 
     33 H5'1       47.6492   40.3457   53.1926 H         1 ATP         0.0000 
     34 H5'2       46.5714   40.2346   54.6253 H         1 ATP         0.0000 
     35 H4'        45.6654   38.3452   53.6190 H         1 ATP         0.0000 
     36 H3'        48.2020   39.8423   54.4542 H         1 ATP         0.0000 
     37 HO3'       47.0751   38.8571   56.1666 H         1 ATP         0.0000 
     38 H2'        49.7910   38.3380   53.2466 H         1 ATP         0.0000 
     39 HO2'       49.0003   36.3505   54.3868 H         1 ATP         0.0000 
     40 H1'        48.1676   37.5175   51.0776 H         1 ATP         0.0000 
     41 H8         47.8360   41.3900   51.4990 H         1 ATP         0.0000 
     42 HN61       51.2389   42.5309   48.3533 H         1 ATP         0.0000 
     43 HN62       52.5468   41.5221   47.4038 H         1 ATP         0.0000 
     44 H2         52.0360   37.2290   48.7590 H         1 ATP         0.0000 
@<TRIPOS>BOND
     1    1    2 2    
     2    1    3 1    
     3    1    4 1    
     4    1    8 1    
     5    5    6 2    
     6    5    7 1    
     7    5    8 1    
     8    5   12 1    
     9    7   32 1    
    10    9   10 2    
    11    9   11 1    
    12    9   12 1    
    13    9   13 1    
    14   13   14 1    
    15   14   15 1    
    16   14   33 1    
    17   14   34 1    
    18   15   16 1    
    19   15   17 1    
    20   15   35 1    
    21   16   21 1    
    22   17   18 1    
    23   17   19 1    
    24   17   36 1    
    25   18   37 1    
    26   19   20 1    
    27   19   21 1    
    28   19   38 1    
    29   20   39 1    
    30   21   22 1    
    31   21   40 1    
    32   22   23 ar   
    33   22   31 ar   
    34   23   24 ar   
    35   23   41 1    
    36   24   25 ar   
    37   25   26 ar   
    38   25   31 ar   
    39   26   27 1    
    40   26   28 ar   
    41   27   42 1    
    42   27   43 1    
    43   28   29 ar   
    44   29   30 ar   
    45   29   44 1    
    46   30   31 ar   
@<TRIPOS>SUBSTRUCTURE
     1 ATP         1 GROUP             0       ****    0 ROOT    
@<TRIPOS>MOLECULE
ATP
46   48    1
SMALL
USER_CHARGES


@<TRIPOS>ATOM
      1 PG         46.1070   45.1820   56.9500 P.3       1 ATP         0.0000 
      2 O1G        45.7790   46.3300   56.0520 O.2       1 ATP         0.0000 
      3 O2G        47.3820   44.4970   56.6260 O.3       1 ATP         0.0000 
      4 O3G        45.9720   45.5300   58.3750 O.3       1 ATP         0.0000 
      5 PB         43.9110   43.7400   55.6550 P.3       1 ATP         0.0000 
      6 O1B        42.9750   42.7220   55.9860 O.co2     1 ATP         0.0000 
      7 O2B        43.6030   44.7670   54.6780 O.co2     1 ATP         0.0000 
      8 O3B        45.0410   44.0150   56.7380 O.3       1 ATP         0.0000 
      9 PA         45.2280   42.6690   53.2570 P.3       1 ATP         0.0000 
     10 O1A        46.3800   43.3960   52.7880 O.co2     1 ATP         0.0000 
     11 O2A        44.1830   42.1900   52.3510 O.co2     1 ATP         0.0000 
     12 O3A        44.9170   42.7160   54.7890 O.3       1 ATP         0.0000 
     13 O5'        46.1720   41.5680   53.3020 O.3       1 ATP         0.0000 
     14 C5'        46.6090   40.4220   53.5420 C.3       1 ATP         0.0000 
     15 C4'        46.5200   38.9890   53.3640 C.3       1 ATP         0.0000 
     16 O4'        46.7850   38.9080   51.9480 O.3       1 ATP         0.0000 
     17 C3'        47.8080   38.8740   54.1120 C.3       1 ATP         0.0000 
     18 O3'        47.7130   38.3570   55.4230 O.3       1 ATP         0.0000 
     19 C2'        48.7190   38.1160   53.1390 C.3       1 ATP         0.0000 
     20 O2'        48.6320   36.7370   53.4250 O.3       1 ATP         0.0000 
     21 C1'        48.1330   38.4090   51.7210 C.3       1 ATP         0.0000 
     22 N9         48.8460   39.4640   50.9860 N.pl3     1 ATP         0.0000 
     23 C8         48.6160   40.8420   50.9450 C.ar      1 ATP         0.0000 
     24 N7         49.4250   41.4890   50.1650 N.pl3     1 ATP         0.0000 
     25 C5         50.2320   40.4700   49.6640 C.ar      1 ATP         0.0000 
     26 C6         51.3080   40.4660   48.7310 C.ar      1 ATP         0.0000 
     27 N6         51.7210   41.5680   48.1290 N.pl3     1 ATP         0.0000 
     28 N1         51.9120   39.2740   48.4470 N.ar      1 ATP         0.0000 
     29 C2         51.4930   38.1510   49.0290 C.ar      1 ATP         0.0000 
     30 N3         50.4910   38.0160   49.9000 N.ar      1 ATP         0.0000 
     31 C4         49.8920   39.2530   50.1710 C.ar      1 ATP         0.0000 
     32 HOG2       48.3320   45.0490   56.6795 H         1 ATP         0.0000 
     33 HOG3       46.5992   46.3224   58.8095 H         1 ATP         0.0000 
     34 H5'1       47.6492   40.3457   53.1926 H         1 ATP         0.0000 
     35 H5'2       46.5714   40.2346   54.6253 H         1 ATP         0.0000 
     36 H4'        45.6654   38.3452   53.6190 H         1 ATP         0.0000 
     37 H3'        48.2020   39.8423   54.4542 H         1 ATP         0.0000 
     38 HO3'       47.0751   38.8571   56.1666 H         1 ATP         0.0000 
     39 H2'        49.7910   38.3380   53.2466 H         1 ATP         0.0000 
     40 HO2'       49.0003   36.3505   54.3868 H         1 ATP         0.0000 
     41 H1'        48.1676   37.5175   51.0776 H         1 ATP         0.0000 
     42 H8         47.8360   41.3900   51.4990 H         1 ATP         0.0000 
     43 HN61       51.2389   42.5309   48.3533 H         1 ATP         0.0000 
     44 HN62       52.5468   41.5221   47.4038 H         1 ATP         0.0000 
     45 H2         52.0360   37.2290   48.7590 H         1 ATP         0.0000 
     46 H46        49.3328   42.5801   50.0600 H         1 ATP         0.0000 
@<TRIPOS>BOND
     1    1    2 2    
     2    1    3 1    
     3    1    4 1    
     4    1    8 1    
     5    3   32 1    
     6    4   33 1    
     7    5    6 2    
     8    5    7 1    
     9    5    8 1    
    10    5   12 1    
    11    9   10 2    
    12    9   11 1    
    13    9   12 1    
    14    9   13 1    
    15   13   14 1    
    16   14   15 1    
    17   14   34 1    
    18   14   35 1    
    19   15   16 1    
    20   15   17 1    
    21   15   36 1    
    22   16   21 1    
    23   17   18 1    
    24   17   19 1    
    25   17   37 1    
    26   18   38 1    
    27   19   20 1    
    28   19   21 1    
    29   19   39 1    
    30   20   40 1    
    31   21   22 1    
    32   21   41 1    
    33   22   23 ar   
    34   22   31 ar   
    35   23   24 ar   
    36   23   42 1    
    37   24   25 ar   
    38   24   46 1    
    39   25   26 ar   
    40   25   31 ar   
    41   26   27 1    
    42   26   28 ar   
    43   27   43 1    
    44   27   44 1    
    45   28   29 ar   
    46   29   30 ar   
    47   29   45 1    
    48   30   31 ar   
@<TRIPOS>SUBSTRUCTURE
     1 ATP         1 GROUP             0       ****    0 ROOT    
@<TRIPOS>MOLECULE
ATP
47   49    1
SMALL
USER_CHARGES


@<TRIPOS>ATOM
      1 PG         46.1070   45.1820   56.9500 P.3       1 ATP         0.0000 
      2 O1G        45.7790   46.3300   56.0520 O.2       1 ATP         0.0000 
      3 O2G        47.3820   44.4970   56.6260 O.3       1 ATP         0.0000 
      4 O3G        45.9720   45.5300   58.3750 O.3       1 ATP         0.0000 
      5 PB         43.9110   43.7400   55.6550 P.3       1 ATP         0.0000 
      6 O1B        42.9750   42.7220   55.9860 O.2       1 ATP         0.0000 
      7 O2B        43.6030   44.7670   54.6780 O.3       1 ATP         0.0000 
      8 O3B        45.0410   44.0150   56.7380 O.3       1 ATP         0.0000 
      9 PA         45.2280   42.6690   53.2570 P.3       1 ATP         0.0000 
     10 O1A        46.3800   43.3960   52.7880 O.co2     1 ATP         0.0000 
     11 O2A        44.1830   42.1900   52.3510 O.co2     1 ATP         0.0000 
     12 O3A        44.9170   42.7160   54.7890 O.3       1 ATP         0.0000 
     13 O5'        46.1720   41.5680   53.3020 O.3       1 ATP         0.0000 
     14 C5'        46.6090   40.4220   53.5420 C.3       1 ATP         0.0000 
     15 C4'        46.5200   38.9890   53.3640 C.3       1 ATP         0.0000 
     16 O4'        46.7850   38.9080   51.9480 O.3       1 ATP         0.0000 
     17 C3'        47.8080   38.8740   54.1120 C.3       1 ATP         0.0000 
     18 O3'        47.7130   38.3570   55.4230 O.3       1 ATP         0.0000 
     19 C2'        48.7190   38.1160   53.1390 C.3       1 ATP         0.0000 
     20 O2'        48.6320   36.7370   53.4250 O.3       1 ATP         0.0000 
     21 C1'        48.1330   38.4090   51.7210 C.3       1 ATP         0.0000 
     22 N9         48.8460   39.4640   50.9860 N.pl3     1 ATP         0.0000 
     23 C8         48.6160   40.8420   50.9450 C.ar      1 ATP         0.0000 
     24 N7         49.4250   41.4890   50.1650 N.2       1 ATP         0.0000 
     25 C5         50.2320   40.4700   49.6640 C.ar      1 ATP         0.0000 
     26 C6         51.3080   40.4660   48.7310 C.ar      1 ATP         0.0000 
     27 N6         51.7210   41.5680   48.1290 N.pl3     1 ATP         0.0000 
     28 N1         51.9120   39.2740   48.4470 N.pl3     1 ATP         0.0000 
     29 C2         51.4930   38.1510   49.0290 C.ar      1 ATP         0.0000 
     30 N3         50.4910   38.0160   49.9000 N.ar      1 ATP         0.0000 
     31 C4         49.8920   39.2530   50.1710 C.ar      1 ATP         0.0000 
     32 HOG2       48.3320   45.0490   56.6795 H         1 ATP         0.0000 
     33 HOG3       46.5992   46.3224   58.8095 H         1 ATP         0.0000 
     34 HOB2       42.9452   45.6055   54.9502 H         1 ATP         0.0000 
     35 H5'1       47.6492   40.3457   53.1926 H         1 ATP         0.0000 
     36 H5'2       46.5714   40.2346   54.6253 H         1 ATP         0.0000 
     37 H4'        45.6654   38.3452   53.6190 H         1 ATP         0.0000 
     38 H3'        48.2020   39.8423   54.4542 H         1 ATP         0.0000 
     39 HO3'       47.0751   38.8571   56.1666 H         1 ATP         0.0000 
     40 H2'        49.7910   38.3380   53.2466 H         1 ATP         0.0000 
     41 HO2'       49.0003   36.3505   54.3868 H         1 ATP         0.0000 
     42 H1'        48.1676   37.5175   51.0776 H         1 ATP         0.0000 
     43 H8         47.8360   41.3900   51.4990 H         1 ATP         0.0000 
     44 HN61       51.2389   42.5309   48.3533 H         1 ATP         0.0000 
     45 HN62       52.5468   41.5221   47.4038 H         1 ATP         0.0000 
     46 H2         52.0360   37.2290   48.7590 H         1 ATP         0.0000 
     47 H47        52.7492   39.2376   47.7344 H         1 ATP         0.0000 
@<TRIPOS>BOND
     1    1    2 2    
     2    1    3 1    
     3    1    4 1    
     4    1    8 1    
     5    3   32 1    
     6    4   33 1    
     7    5    6 2    
     8    5    7 1    
     9    5    8 1    
    10    5   12 1    
    11    7   34 1    
    12    9   10 2    
    13    9   11 1    
    14    9   12 1    
    15    9   13 1    
    16   13   14 1    
    17   14   15 1    
    18   14   35 1    
    19   14   36 1    
    20   15   16 1    
    21   15   17 1    
    22   15   37 1    
    23   16   21 1    
    24   17   18 1    
    25   17   19 1    
    26   17   38 1    
    27   18   39 1    
    28   19   20 1    
    29   19   21 1    
    30   19   40 1    
    31   20   41 1    
    32   21   22 1    
    33   21   42 1    
    34   22   23 ar   
    35   22   31 ar   
    36   23   24 ar   
    37   23   43 1    
    38   24   25 ar   
    39   25   26 ar   
    40   25   31 ar   
    41   26   27 1    
    42   26   28 ar   
    43   27   44 1    
    44   27   45 1    
    45   28   29 ar   
    46   28   47 1    
    47   29   30 ar   
    48   29   46 1    
    49   30   31 ar   
@<TRIPOS>SUBSTRUCTURE
     1 ATP         1 GROUP             0       ****    0 ROOT    
@<TRIPOS>MOLECULE
ATP
43   45    1
SMALL
USER_CHARGES


@<TRIPOS>ATOM
      1 PG         46.1070   45.1820   56.9500 P.3       1 ATP         0.0000 
      2 O1G        45.7790   46.3300   56.0520 O.co2     1 ATP         0.0000 
      3 O2G        47.3820   44.4970   56.6260 O.co2     1 ATP         0.0000 
      4 O3G        45.9720   45.5300   58.3750 O.co2     1 ATP         0.0000 
      5 PB         43.9110   43.7400   55.6550 P.3       1 ATP         0.0000 
      6 O1B        42.9750   42.7220   55.9860 O.co2     1 ATP         0.0000 
      7 O2B        43.6030   44.7670   54.6780 O.co2     1 ATP         0.0000 
      8 O3B        45.0410   44.0150   56.7380 O.3       1 ATP         0.0000 
      9 PA         45.2280   42.6690   53.2570 P.3       1 ATP         0.0000 
     10 O1A        46.3800   43.3960   52.7880 O.co2     1 ATP         0.0000 
     11 O2A        44.1830   42.1900   52.3510 O.co2     1 ATP         0.0000 
     12 O3A        44.9170   42.7160   54.7890 O.3       1 ATP         0.0000 
     13 O5'        46.1720   41.5680   53.3020 O.3       1 ATP         0.0000 
     14 C5'        46.6090   40.4220   53.5420 C.3       1 ATP         0.0000 
     15 C4'        46.5200   38.9890   53.3640 C.3       1 ATP         0.0000 
     16 O4'        46.7850   38.9080   51.9480 O.3       1 ATP         0.0000 
     17 C3'        47.8080   38.8740   54.1120 C.3       1 ATP         0.0000 
     18 O3'        47.7130   38.3570   55.4230 O.3       1 ATP         0.0000 
     19 C2'        48.7190   38.1160   53.1390 C.3       1 ATP         0.0000 
     20 O2'        48.6320   36.7370   53.4250 O.3       1 ATP         0.0000 
     21 C1'        48.1330   38.4090   51.7210 C.3       1 ATP         0.0000 
     22 N9         48.8460   39.4640   50.9860 N.pl3     1 ATP         0.0000 
     23 C8         48.6160   40.8420   50.9450 C.ar      1 ATP         0.0000 
     24 N7         49.4250   41.4890   50.1650 N.2       1 ATP         0.0000 
     25 C5         50.2320   40.4700   49.6640 C.ar      1 ATP         0.0000 
     26 C6         51.3080   40.4660   48.7310 C.ar      1 ATP         0.0000 
     27 N6         51.7210   41.5680   48.1290 N.pl3     1 ATP         0.0000 
     28 N1         51.9120   39.2740   48.4470 N.ar      1 ATP         0.0000 
     29 C2         51.4930   38.1510   49.0290 C.ar      1 ATP         0.0000 
     30 N3         50.4910   38.0160   49.9000 N.ar      1 ATP         0.0000 
     31 C4         49.8920   39.2530   50.1710 C.ar      1 ATP         0.0000 
     32 H5'1       47.6492   40.3457   53.1926 H         1 ATP         0.0000 
     33 H5'2       46.5714   40.2346   54.6253 H         1 ATP         0.0000 
     34 H4'        45.6654   38.3452   53.6190 H         1 ATP         0.0000 
     35 H3'        48.2020   39.8423   54.4542 H         1 ATP         0.0000 
     36 HO3'       47.0751   38.8571   56.1666 H         1 ATP         0.0000 
     37 H2'        49.7910   38.3380   53.2466 H         1 ATP         0.0000 
     38 HO2'       49.0003   36.3505   54.3868 H         1 ATP         0.0000 
     39 H1'        48.1676   37.5175   51.0776 H         1 ATP         0.0000 
     40 H8         47.8360   41.3900   51.4990 H         1 ATP         0.0000 
     41 HN61       51.2389   42.5309   48.3533 H         1 ATP         0.0000 
     42 HN62       52.5468   41.5221   47.4038 H         1 ATP         0.0000 
     43 H2         52.0360   37.2290   48.7590 H         1 ATP         0.0000 
@<TRIPOS>BOND
     1    1    2 2    
     2    1    3 1    
     3    1    4 1    
     4    1    8 1    
     5    5    6 2    
     6    5    7 1    
     7    5    8 1    
     8    5   12 1    
     9    9   10 2    
    10    9   11 1    
    11    9   12 1    
    12    9   13 1    
    13   13   14 1    
    14   14   15 1    
    15   14   32 1    
    16   14   33 1    
    17   15   16 1    
    18   15   17 1    
    19   15   34 1    
    20   16   21 1    
    21   17   18 1    
    22   17   19 1    
    23   17   35 1    
    24   18   36 1    
    25   19   20 1    
    26   19   21 1    
    27   19   37 1    
    28   20   38 1    
    29   21   22 1    
    30   21   39 1    
    31   22   23 ar   
    32   22   31 ar   
    33   23   24 ar   
    34   23   40 1    
    35   24   25 ar   
    36   25   26 ar   
    37   25   31 ar   
    38   26   27 1    
    39   26   28 ar   
    40   27   41 1    
    41   27   42 1    
    42   28   29 ar   
    43   29   30 ar   
    44   29   43 1    
    45   30   31 ar   
@<TRIPOS>SUBSTRUCTURE
     1 ATP         1 GROUP             0       ****    0 ROOT    
@<TRIPOS>MOLECULE
ATP
45   47    1
SMALL
USER_CHARGES


@<TRIPOS>ATOM
      1 PG         46.1070   45.1820   56.9500 P.3       1 ATP         0.0000 
      2 O1G        45.7790   46.3300   56.0520 O.co2     1 ATP         0.0000 
      3 O2G        47.3820   44.4970   56.6260 O.co2     1 ATP         0.0000 
      4 O3G        45.9720   45.5300   58.3750 O.co2     1 ATP         0.0000 
      5 PB         43.9110   43.7400   55.6550 P.3       1 ATP         0.0000 
      6 O1B        42.9750   42.7220   55.9860 O.2       1 ATP         0.0000 
      7 O2B        43.6030   44.7670   54.6780 O.3       1 ATP         0.0000 
      8 O3B        45.0410   44.0150   56.7380 O.3       1 ATP         0.0000 
      9 PA         45.2280   42.6690   53.2570 P.3       1 ATP         0.0000 
     10 O1A        46.3800   43.3960   52.7880 O.co2     1 ATP         0.0000 
     11 O2A        44.1830   42.1900   52.3510 O.co2     1 ATP         0.0000 
     12 O3A        44.9170   42.7160   54.7890 O.3       1 ATP         0.0000 
     13 O5'        46.1720   41.5680   53.3020 O.3       1 ATP         0.0000 
     14 C5'        46.6090   40.4220   53.5420 C.3       1 ATP         0.0000 
     15 C4'        46.5200   38.9890   53.3640 C.3       1 ATP         0.0000 
     16 O4'        46.7850   38.9080   51.9480 O.3       1 ATP         0.0000 
     17 C3'        47.8080   38.8740   54.1120 C.3       1 ATP         0.0000 
     18 O3'        47.7130   38.3570   55.4230 O.3       1 ATP         0.0000 
     19 C2'        48.7190   38.1160   53.1390 C.3       1 ATP         0.0000 
     20 O2'        48.6320   36.7370   53.4250 O.3       1 ATP         0.0000 
     21 C1'        48.1330   38.4090   51.7210 C.3       1 ATP         0.0000 
     22 N9         48.8460   39.4640   50.9860 N.pl3     1 ATP         0.0000 
     23 C8         48.6160   40.8420   50.9450 C.ar      1 ATP         0.0000 
     24 N7         49.4250   41.4890   50.1650 N.2       1 ATP         0.0000 
     25 C5         50.2320   40.4700   49.6640 C.ar      1 ATP         0.0000 
     26 C6         51.3080   40.4660   48.7310 C.ar      1 ATP         0.0000 
     27 N6         51.7210   41.5680   48.1290 N.pl3     1 ATP         0.0000 
     28 N1         51.9120   39.2740   48.4470 N.pl3     1 ATP         0.0000 
     29 C2         51.4930   38.1510   49.0290 C.ar      1 ATP         0.0000 
     30 N3         50.4910   38.0160   49.9000 N.ar      1 ATP         0.0000 
     31 C4         49.8920   39.2530   50.1710 C.ar      1 ATP         0.0000 
     32 HOB2       42.9452   45.6055   54.9502 H         1 ATP         0.0000 
     33 H5'1       47.6492   40.3457   53.1926 H         1 ATP         0.0000 
     34 H5'2       46.5714   40.2346   54.6253 H         1 ATP         0.0000 
     35 H4'        45.6654   38.3452   53.6190 H         1 ATP         0.0000 
     36 H3'        48.2020   39.8423   54.4542 H         1 ATP         0.0000 
     37 HO3'       47.0751   38.8571   56.1666 H         1 ATP         0.0000 
     38 H2'        49.7910   38.3380   53.2466 H         1 ATP         0.0000 
     39 HO2'       49.0003   36.3505   54.3868 H         1 ATP         0.0000 
     40 H1'        48.1676   37.5175   51.0776 H         1 ATP         0.0000 
     41 H8         47.8360   41.3900   51.4990 H         1 ATP         0.0000 
     42 HN61       51.2389   42.5309   48.3533 H         1 ATP         0.0000 
     43 HN62       52.5468   41.5221   47.4038 H         1 ATP         0.0000 
     44 H2         52.0360   37.2290   48.7590 H         1 ATP         0.0000 
     45 H45        52.7492   39.2376   47.7344 H         1 ATP         0.0000 
@<TRIPOS>BOND
     1    1    2 2    
     2    1    3 1    
     3    1    4 1    
     4    1    8 1    
     5    5    6 2    
     6    5    7 1    
     7    5    8 1    
     8    5   12 1    
     9    7   32 1    
    10    9   10 2    
    11    9   11 1    
    12    9   12 1    
    13    9   13 1    
    14   13   14 1    
    15   14   15 1    
    16   14   33 1    
    17   14   34 1    
    18   15   16 1    
    19   15   17 1    
    20   15   35 1    
    21   16   21 1    
    22   17   18 1    
    23   17   19 1    
    24   17   36 1    
    25   18   37 1    
    26   19   20 1    
    27   19   21 1    
    28   19   38 1    
    29   20   39 1    
    30   21   22 1    
    31   21   40 1    
    32   22   23 ar   
    33   22   31 ar   
    34   23   24 ar   
    35   23   41 1    
    36   24   25 ar   
    37   25   26 ar   
    38   25   31 ar   
    39   26   27 1    
    40   26   28 ar   
    41   27   42 1    
    42   27   43 1    
    43   28   29 ar   
    44   28   45 1    
    45   29   30 ar   
    46   29   44 1    
    47   30   31 ar   
@<TRIPOS>SUBSTRUCTURE
     1 ATP         1 GROUP             0       ****    0 ROOT    
@<TRIPOS>MOLECULE
ATP
44   46    1
SMALL
USER_CHARGES


@<TRIPOS>ATOM
      1 PG         46.1070   45.1820   56.9500 P.3       1 ATP         0.0000 
      2 O1G        45.7790   46.3300   56.0520 O.co2     1 ATP         0.0000 
      3 O2G        47.3820   44.4970   56.6260 O.co2     1 ATP         0.0000 
      4 O3G        45.9720   45.5300   58.3750 O.co2     1 ATP         0.0000 
      5 PB         43.9110   43.7400   55.6550 P.3       1 ATP         0.0000 
      6 O1B        42.9750   42.7220   55.9860 O.co2     1 ATP         0.0000 
      7 O2B        43.6030   44.7670   54.6780 O.co2     1 ATP         0.0000 
      8 O3B        45.0410   44.0150   56.7380 O.3       1 ATP         0.0000 
      9 PA         45.2280   42.6690   53.2570 P.3       1 ATP         0.0000 
     10 O1A        46.3800   43.3960   52.7880 O.co2     1 ATP         0.0000 
     11 O2A        44.1830   42.1900   52.3510 O.co2     1 ATP         0.0000 
     12 O3A        44.9170   42.7160   54.7890 O.3       1 ATP         0.0000 
     13 O5'        46.1720   41.5680   53.3020 O.3       1 ATP         0.0000 
     14 C5'        46.6090   40.4220   53.5420 C.3       1 ATP         0.0000 
     15 C4'        46.5200   38.9890   53.3640 C.3       1 ATP         0.0000 
     16 O4'        46.7850   38.9080   51.9480 O.3       1 ATP         0.0000 
     17 C3'        47.8080   38.8740   54.1120 C.3       1 ATP         0.0000 
     18 O3'        47.7130   38.3570   55.4230 O.3       1 ATP         0.0000 
     19 C2'        48.7190   38.1160   53.1390 C.3       1 ATP         0.0000 
     20 O2'        48.6320   36.7370   53.4250 O.3       1 ATP         0.0000 
     21 C1'        48.1330   38.4090   51.7210 C.3       1 ATP         0.0000 
     22 N9         48.8460   39.4640   50.9860 N.pl3     1 ATP         0.0000 
     23 C8         48.6160   40.8420   50.9450 C.ar      1 ATP         0.0000 
     24 N7         49.4250   41.4890   50.1650 N.2       1 ATP         0.0000 
     25 C5         50.2320   40.4700   49.6640 C.ar      1 ATP         0.0000 
     26 C6         51.3080   40.4660   48.7310 C.ar      1 ATP         0.0000 
     27 N6         51.7210   41.5680   48.1290 N.pl3     1 ATP         0.0000 
     28 N1         51.9120   39.2740   48.4470 N.pl3     1 ATP         0.0000 
     29 C2         51.4930   38.1510   49.0290 C.ar      1 ATP         0.0000 
     30 N3         50.4910   38.0160   49.9000 N.ar      1 ATP         0.0000 
     31 C4         49.8920   39.2530   50.1710 C.ar      1 ATP         0.0000 
     32 H5'1       47.6492   40.3457   53.1926 H         1 ATP         0.0000 
     33 H5'2       46.5714   40.2346   54.6253 H         1 ATP         0.0000 
     34 H4'        45.6654   38.3452   53.6190 H         1 ATP         0.0000 
     35 H3'        48.2020   39.8423   54.4542 H         1 ATP         0.0000 
     36 HO3'       47.0751   38.8571   56.1666 H         1 ATP         0.0000 
     37 H2'        49.7910   38.3380   53.2466 H         1 ATP         0.0000 
     38 HO2'       49.0003   36.3505   54.3868 H         1 ATP         0.0000 
     39 H1'        48.1676   37.5175   51.0776 H         1 ATP         0.0000 
     40 H8         47.8360   41.3900   51.4990 H         1 ATP         0.0000 
     41 HN61       51.2389   42.5309   48.3533 H         1 ATP         0.0000 
     42 HN62       52.5468   41.5221   47.4038 H         1 ATP         0.0000 
     43 H2         52.0360   37.2290   48.7590 H         1 ATP         0.0000 
     44 H44        52.7492   39.2376   47.7344 H         1 ATP         0.0000 
@<TRIPOS>BOND
     1    1    2 2    
     2    1    3 1    
     3    1    4 1    
     4    1    8 1    
     5    5    6 2    
     6    5    7 1    
     7    5    8 1    
     8    5   12 1    
     9    9   10 2    
    10    9   11 1    
    11    9   12 1    
    12    9   13 1    
    13   13   14 1    
    14   14   15 1    
    15   14   32 1    
    16   14   33 1    
    17   15   16 1    
    18   15   17 1    
    19   15   34 1    
    20   16   21 1    
    21   17   18 1    
    22   17   19 1    
    23   17   35 1    
    24   18   36 1    
    25   19   20 1    
    26   19   21 1    
    27   19   37 1    
    28   20   38 1    
    29   21   22 1    
    30   21   39 1    
    31   22   23 ar   
    32   22   31 ar   
    33   23   24 ar   
    34   23   40 1    
    35   24   25 ar   
    36   25   26 ar   
    37   25   31 ar   
    38   26   27 1    
    39   26   28 ar   
    40   27   41 1    
    41   27   42 1    
    42   28   29 ar   
    43   28   44 1    
    44   29   30 ar   
    45   29   43 1    
    46   30   31 ar   
@<TRIPOS>SUBSTRUCTURE
     1 ATP         1 GROUP             0       ****    0 ROOT    
@<TRIPOS>MOLECULE
ATP
47   49    1
SMALL
USER_CHARGES


@<TRIPOS>ATOM
      1 PG         46.1070   45.1820   56.9500 P.3       1 ATP         0.0000 
      2 O1G        45.7790   46.3300   56.0520 O.2       1 ATP         0.0000 
      3 O2G        47.3820   44.4970   56.6260 O.3       1 ATP         0.0000 
      4 O3G        45.9720   45.5300   58.3750 O.3       1 ATP         0.0000 
      5 PB         43.9110   43.7400   55.6550 P.3       1 ATP         0.0000 
      6 O1B        42.9750   42.7220   55.9860 O.co2     1 ATP         0.0000 
      7 O2B        43.6030   44.7670   54.6780 O.co2     1 ATP         0.0000 
      8 O3B        45.0410   44.0150   56.7380 O.3       1 ATP         0.0000 
      9 PA         45.2280   42.6690   53.2570 P.3       1 ATP         0.0000 
     10 O1A        46.3800   43.3960   52.7880 O.2       1 ATP         0.0000 
     11 O2A        44.1830   42.1900   52.3510 O.3       1 ATP         0.0000 
     12 O3A        44.9170   42.7160   54.7890 O.3       1 ATP         0.0000 
     13 O5'        46.1720   41.5680   53.3020 O.3       1 ATP         0.0000 
     14 C5'        46.6090   40.4220   53.5420 C.3       1 ATP         0.0000 
     15 C4'        46.5200   38.9890   53.3640 C.3       1 ATP         0.0000 
     16 O4'        46.7850   38.9080   51.9480 O.3       1 ATP         0.0000 
     17 C3'        47.8080   38.8740   54.1120 C.3       1 ATP         0.0000 
     18 O3'        47.7130   38.3570   55.4230 O.3       1 ATP         0.0000 
     19 C2'        48.7190   38.1160   53.1390 C.3       1 ATP         0.0000 
     20 O2'        48.6320   36.7370   53.4250 O.3       1 ATP         0.0000 
     21 C1'        48.1330   38.4090   51.7210 C.3       1 ATP         0.0000 
     22 N9         48.8460   39.4640   50.9860 N.pl3     1 ATP         0.0000 
     23 C8         48.6160   40.8420   50.9450 C.ar      1 ATP         0.0000 
     24 N7         49.4250   41.4890   50.1650 N.pl3     1 ATP         0.0000 
     25 C5         50.2320   40.4700   49.6640 C.ar      1 ATP         0.0000 
     26 C6         51.3080   40.4660   48.7310 C.ar      1 ATP         0.0000 
     27 N6         51.7210   41.5680   48.1290 N.pl3     1 ATP         0.0000 
     28 N1         51.9120   39.2740   48.4470 N.ar      1 ATP         0.0000 
     29 C2         51.4930   38.1510   49.0290 C.ar      1 ATP         0.0000 
     30 N3         50.4910   38.0160   49.9000 N.ar      1 ATP         0.0000 
     31 C4         49.8920   39.2530   50.1710 C.ar      1 ATP         0.0000 
     32 HOG2       48.3320   45.0490   56.6795 H         1 ATP         0.0000 
     33 HOG3       46.5992   46.3224   58.8095 H         1 ATP         0.0000 
     34 HOA2       43.3173   42.8293   52.1230 H         1 ATP         0.0000 
     35 H5'1       47.6492   40.3457   53.1926 H         1 ATP         0.0000 
     36 H5'2       46.5714   40.2346   54.6253 H         1 ATP         0.0000 
     37 H4'        45.6654   38.3452   53.6190 H         1 ATP         0.0000 
     38 H3'        48.2020   39.8423   54.4542 H         1 ATP         0.0000 
     39 HO3'       47.0751   38.8571   56.1666 H         1 ATP         0.0000 
     40 H2'        49.7910   38.3380   53.2466 H         1 ATP         0.0000 
     41 HO2'       49.0003   36.3505   54.3868 H         1 ATP         0.0000 
     42 H1'        48.1676   37.5175   51.0776 H         1 ATP         0.0000 
     43 H8         47.8360   41.3900   51.4990 H         1 ATP         0.0000 
     44 HN61       51.2389   42.5309   48.3533 H         1 ATP         0.0000 
     45 HN62       52.5468   41.5221   47.4038 H         1 ATP         0.0000 
     46 H2         52.0360   37.2290   48.7590 H         1 ATP         0.0000 
     47 H47        49.3328   42.5801   50.0600 H         1 ATP         0.0000 
@<TRIPOS>BOND
     1    1    2 2    
     2    1    3 1    
     3    1    4 1    
     4    1    8 1    
     5    3   32 1    
     6    4   33 1    
     7    5    6 2    
     8    5    7 1    
     9    5    8 1    
    10    5   12 1    
    11    9   10 2    
    12    9   11 1    
    13    9   12 1    
    14    9   13 1    
    15   11   34 1    
    16   13   14 1    
    17   14   15 1    
    18   14   35 1    
    19   14   36 1    
    20   15   16 1    
    21   15   17 1    
    22   15   37 1    
    23   16   21 1    
    24   17   18 1    
    25   17   19 1    
    26   17   38 1    
    27   18   39 1    
    28   19   20 1    
    29   19   21 1    
    30   19   40 1    
    31   20   41 1    
    32   21   22 1    
    33   21   42 1    
    34   22   23 ar   
    35   22   31 ar   
    36   23   24 ar   
    37   23   43 1    
    38   24   25 ar   
    39   24   47 1    
    40   25   26 ar   
    41   25   31 ar   
    42   26   27 1    
    43   26   28 ar   
    44   27   44 1    
    45   27   45 1    
    46   28   29 ar   
    47   29   30 ar   
    48   29   46 1    
    49   30   31 ar   
@<TRIPOS>SUBSTRUCTURE
     1 ATP         1 GROUP             0       ****    0 ROOT    
@<TRIPOS>MOLECULE
ATP
44   46    1
SMALL
USER_CHARGES


@<TRIPOS>ATOM
      1 PG         46.1070   45.1820   56.9500 P.3       1 ATP         0.0000 
      2 O1G        45.7790   46.3300   56.0520 O.co2     1 ATP         0.0000 
      3 O2G        47.3820   44.4970   56.6260 O.co2     1 ATP         0.0000 
      4 O3G        45.9720   45.5300   58.3750 O.co2     1 ATP         0.0000 
      5 PB         43.9110   43.7400   55.6550 P.3       1 ATP         0.0000 
      6 O1B        42.9750   42.7220   55.9860 O.co2     1 ATP         0.0000 
      7 O2B        43.6030   44.7670   54.6780 O.co2     1 ATP         0.0000 
      8 O3B        45.0410   44.0150   56.7380 O.3       1 ATP         0.0000 
      9 PA         45.2280   42.6690   53.2570 P.3       1 ATP         0.0000 
     10 O1A        46.3800   43.3960   52.7880 O.2       1 ATP         0.0000 
     11 O2A        44.1830   42.1900   52.3510 O.3       1 ATP         0.0000 
     12 O3A        44.9170   42.7160   54.7890 O.3       1 ATP         0.0000 
     13 O5'        46.1720   41.5680   53.3020 O.3       1 ATP         0.0000 
     14 C5'        46.6090   40.4220   53.5420 C.3       1 ATP         0.0000 
     15 C4'        46.5200   38.9890   53.3640 C.3       1 ATP         0.0000 
     16 O4'        46.7850   38.9080   51.9480 O.3       1 ATP         0.0000 
     17 C3'        47.8080   38.8740   54.1120 C.3       1 ATP         0.0000 
     18 O3'        47.7130   38.3570   55.4230 O.3       1 ATP         0.0000 
     19 C2'        48.7190   38.1160   53.1390 C.3       1 ATP         0.0000 
     20 O2'        48.6320   36.7370   53.4250 O.3       1 ATP         0.0000 
     21 C1'        48.1330   38.4090   51.7210 C.3       1 ATP         0.0000 
     22 N9         48.8460   39.4640   50.9860 N.pl3     1 ATP         0.0000 
     23 C8         48.6160   40.8420   50.9450 C.ar      1 ATP         0.0000 
     24 N7         49.4250   41.4890   50.1650 N.2       1 ATP         0.0000 
     25 C5         50.2320   40.4700   49.6640 C.ar      1 ATP         0.0000 
     26 C6         51.3080   40.4660   48.7310 C.ar      1 ATP         0.0000 
     27 N6         51.7210   41.5680   48.1290 N.pl3     1 ATP         0.0000 
     28 N1         51.9120   39.2740   48.4470 N.ar      1 ATP         0.0000 
     29 C2         51.4930   38.1510   49.0290 C.ar      1 ATP         0.0000 
     30 N3         50.4910   38.0160   49.9000 N.ar      1 ATP         0.0000 
     31 C4         49.8920   39.2530   50.1710 C.ar      1 ATP         0.0000 
     32 HOA2       43.3173   42.8293   52.1230 H         1 ATP         0.0000 
     33 H5'1       47.6492   40.3457   53.1926 H         1 ATP         0.0000 
     34 H5'2       46.5714   40.2346   54.6253 H         1 ATP         0.0000 
     35 H4'        45.6654   38.3452   53.6190 H         1 ATP         0.0000 
     36 H3'        48.2020   39.8423   54.4542 H         1 ATP         0.0000 
     37 HO3'       47.0751   38.8571   56.1666 H         1 ATP         0.0000 
     38 H2'        49.7910   38.3380   53.2466 H         1 ATP         0.0000 
     39 HO2'       49.0003   36.3505   54.3868 H         1 ATP         0.0000 
     40 H1'        48.1676   37.5175   51.0776 H         1 ATP         0.0000 
     41 H8         47.8360   41.3900   51.4990 H         1 ATP         0.0000 
     42 HN61       51.2389   42.5309   48.3533 H         1 ATP         0.0000 
     43 HN62       52.5468   41.5221   47.4038 H         1 ATP         0.0000 
     44 H2         52.0360   37.2290   48.7590 H         1 ATP         0.0000 
@<TRIPOS>BOND
     1    1    2 2    
     2    1    3 1    
     3    1    4 1    
     4    1    8 1    
     5    5    6 2    
     6    5    7 1    
     7    5    8 1    
     8    5   12 1    
     9    9   10 2    
    10    9   11 1    
    11    9   12 1    
    12    9   13 1    
    13   11   32 1    
    14   13   14 1    
    15   14   15 1    
    16   14   33 1    
    17   14   34 1    
    18   15   16 1    
    19   15   17 1    
    20   15   35 1    
    21   16   21 1    
    22   17   18 1    
    23   17   19 1    
    24   17   36 1    
    25   18   37 1    
    26   19   20 1    
    27   19   21 1    
    28   19   38 1    
    29   20   39 1    
    30   21   22 1    
    31   21   40 1    
    32   22   23 ar   
    33   22   31 ar   
    34   23   24 ar   
    35   23   41 1    
    36   24   25 ar   
    37   25   26 ar   
    38   25   31 ar   
    39   26   27 1    
    40   26   28 ar   
    41   27   42 1    
    42   27   43 1    
    43   28   29 ar   
    44   29   30 ar   
    45   29   44 1    
    46   30   31 ar   
@<TRIPOS>SUBSTRUCTURE
     1 ATP         1 GROUP             0       ****    0 ROOT    
@<TRIPOS>MOLECULE
ATP
45   47    1
SMALL
USER_CHARGES


@<TRIPOS>ATOM
      1 PG         46.1070   45.1820   56.9500 P.3       1 ATP         0.0000 
      2 O1G        45.7790   46.3300   56.0520 O.co2     1 ATP         0.0000 
      3 O2G        47.3820   44.4970   56.6260 O.co2     1 ATP         0.0000 
      4 O3G        45.9720   45.5300   58.3750 O.3       1 ATP         0.0000 
      5 PB         43.9110   43.7400   55.6550 P.3       1 ATP         0.0000 
      6 O1B        42.9750   42.7220   55.9860 O.co2     1 ATP         0.0000 
      7 O2B        43.6030   44.7670   54.6780 O.co2     1 ATP         0.0000 
      8 O3B        45.0410   44.0150   56.7380 O.3       1 ATP         0.0000 
      9 PA         45.2280   42.6690   53.2570 P.3       1 ATP         0.0000 
     10 O1A        46.3800   43.3960   52.7880 O.co2     1 ATP         0.0000 
     11 O2A        44.1830   42.1900   52.3510 O.co2     1 ATP         0.0000 
     12 O3A        44.9170   42.7160   54.7890 O.3       1 ATP         0.0000 
     13 O5'        46.1720   41.5680   53.3020 O.3       1 ATP         0.0000 
     14 C5'        46.6090   40.4220   53.5420 C.3       1 ATP         0.0000 
     15 C4'        46.5200   38.9890   53.3640 C.3       1 ATP         0.0000 
     16 O4'        46.7850   38.9080   51.9480 O.3       1 ATP         0.0000 
     17 C3'        47.8080   38.8740   54.1120 C.3       1 ATP         0.0000 
     18 O3'        47.7130   38.3570   55.4230 O.3       1 ATP         0.0000 
     19 C2'        48.7190   38.1160   53.1390 C.3       1 ATP         0.0000 
     20 O2'        48.6320   36.7370   53.4250 O.3       1 ATP         0.0000 
     21 C1'        48.1330   38.4090   51.7210 C.3       1 ATP         0.0000 
     22 N9         48.8460   39.4640   50.9860 N.pl3     1 ATP         0.0000 
     23 C8         48.6160   40.8420   50.9450 C.ar      1 ATP         0.0000 
     24 N7         49.4250   41.4890   50.1650 N.pl3     1 ATP         0.0000 
     25 C5         50.2320   40.4700   49.6640 C.ar      1 ATP         0.0000 
     26 C6         51.3080   40.4660   48.7310 C.ar      1 ATP         0.0000 
     27 N6         51.7210   41.5680   48.1290 N.2       1 ATP         0.0000 
     28 N1         51.9120   39.2740   48.4470 N.pl3     1 ATP         0.0000 
     29 C2         51.4930   38.1510   49.0290 C.ar      1 ATP         0.0000 
     30 N3         50.4910   38.0160   49.9000 N.2       1 ATP         0.0000 
     31 C4         49.8920   39.2530   50.1710 C.ar      1 ATP         0.0000 
     32 HOG3       46.5992   46.3224   58.8095 H         1 ATP         0.0000 
     33 H5'1       47.6492   40.3457   53.1926 H         1 ATP         0.0000 
     34 H5'2       46.5714   40.2346   54.6253 H         1 ATP         0.0000 
     35 H4'        45.6654   38.3452   53.6190 H         1 ATP         0.0000 
     36 H3'        48.2020   39.8423   54.4542 H         1 ATP         0.0000 
     37 HO3'       47.0751   38.8571   56.1666 H         1 ATP         0.0000 
     38 H2'        49.7910   38.3380   53.2466 H         1 ATP         0.0000 
     39 HO2'       49.0003   36.3505   54.3868 H         1 ATP         0.0000 
     40 H1'        48.1676   37.5175   51.0776 H         1 ATP         0.0000 
     41 H8         47.8360   41.3900   51.4990 H         1 ATP         0.0000 
     42 HN62       51.9400   42.2520   48.8520 H         1 ATP         0.0000 
     43 H2         52.0360   37.2290   48.7590 H         1 ATP         0.0000 
     44 H44        52.7492   39.2376   47.7344 H         1 ATP         0.0000 
     45 H45        49.3328   42.5801   50.0600 H         1 ATP         0.0000 
@<TRIPOS>BOND
     1    1    2 2    
     2    1    3 1    
     3    1    4 1    
     4    1    8 1    
     5    4   32 1    
     6    5    6 2    
     7    5    7 1    
     8    5    8 1    
     9    5   12 1    
    10    9   10 2    
    11    9   11 1    
    12    9   12 1    
    13    9   13 1    
    14   13   14 1    
    15   14   15 1    
    16   14   33 1    
    17   14   34 1    
    18   15   16 1    
    19   15   17 1    
    20   15   35 1    
    21   16   21 1    
    22   17   18 1    
    23   17   19 1    
    24   17   36 1    
    25   18   37 1    
    26   19   20 1    
    27   19   21 1    
    28   19   38 1    
    29   20   39 1    
    30   21   22 1    
    31   21   40 1    
    32   22   23 ar   
    33   22   31 ar   
    34   23   24 ar   
    35   23   41 1    
    36   24   25 ar   
    37   24   45 1    
    38   25   26 ar   
    39   25   31 ar   
    40   26   27 2    
    41   26   28 ar   
    42   27   42 1    
    43   28   29 ar   
    44   28   44 1    
    45   29   30 ar   
    46   29   43 1    
    47   30   31 ar   
@<TRIPOS>SUBSTRUCTURE
     1 ATP         1 GROUP             0       ****    0 ROOT    
@<TRIPOS>MOLECULE
ATP
45   47    1
SMALL
USER_CHARGES


@<TRIPOS>ATOM
      1 PG         46.1070   45.1820   56.9500 P.3       1 ATP         0.0000 
      2 O1G        45.7790   46.3300   56.0520 O.co2     1 ATP         0.0000 
      3 O2G        47.3820   44.4970   56.6260 O.co2     1 ATP         0.0000 
      4 O3G        45.9720   45.5300   58.3750 O.3       1 ATP         0.0000 
      5 PB         43.9110   43.7400   55.6550 P.3       1 ATP         0.0000 
      6 O1B        42.9750   42.7220   55.9860 O.co2     1 ATP         0.0000 
      7 O2B        43.6030   44.7670   54.6780 O.co2     1 ATP         0.0000 
      8 O3B        45.0410   44.0150   56.7380 O.3       1 ATP         0.0000 
      9 PA         45.2280   42.6690   53.2570 P.3       1 ATP         0.0000 
     10 O1A        46.3800   43.3960   52.7880 O.co2     1 ATP         0.0000 
     11 O2A        44.1830   42.1900   52.3510 O.co2     1 ATP         0.0000 
     12 O3A        44.9170   42.7160   54.7890 O.3       1 ATP         0.0000 
     13 O5'        46.1720   41.5680   53.3020 O.3       1 ATP         0.0000 
     14 C5'        46.6090   40.4220   53.5420 C.3       1 ATP         0.0000 
     15 C4'        46.5200   38.9890   53.3640 C.3       1 ATP         0.0000 
     16 O4'        46.7850   38.9080   51.9480 O.3       1 ATP         0.0000 
     17 C3'        47.8080   38.8740   54.1120 C.3       1 ATP         0.0000 
     18 O3'        47.7130   38.3570   55.4230 O.3       1 ATP         0.0000 
     19 C2'        48.7190   38.1160   53.1390 C.3       1 ATP         0.0000 
     20 O2'        48.6320   36.7370   53.4250 O.3       1 ATP         0.0000 
     21 C1'        48.1330   38.4090   51.7210 C.3       1 ATP         0.0000 
     22 N9         48.8460   39.4640   50.9860 N.pl3     1 ATP         0.0000 
     23 C8         48.6160   40.8420   50.9450 C.ar      1 ATP         0.0000 
     24 N7         49.4250   41.4890   50.1650 N.pl3     1 ATP         0.0000 
     25 C5         50.2320   40.4700   49.6640 C.ar      1 ATP         0.0000 
     26 C6         51.3080   40.4660   48.7310 C.ar      1 ATP         0.0000 
     27 N6         51.7210   41.5680   48.1290 N.2       1 ATP         0.0000 
     28 N1         51.9120   39.2740   48.4470 N.pl3     1 ATP         0.0000 
     29 C2         51.4930   38.1510   49.0290 C.ar      1 ATP         0.0000 
     30 N3         50.4910   38.0160   49.9000 N.2       1 ATP         0.0000 
     31 C4         49.8920   39.2530   50.1710 C.ar      1 ATP         0.0000 
     32 HOG3       46.5992   46.3224   58.8095 H         1 ATP         0.0000 
     33 H5'1       47.6492   40.3457   53.1926 H         1 ATP         0.0000 
     34 H5'2       46.5714   40.2346   54.6253 H         1 ATP         0.0000 
     35 H4'        45.6654   38.3452   53.6190 H         1 ATP         0.0000 
     36 H3'        48.2020   39.8423   54.4542 H         1 ATP         0.0000 
     37 HO3'       47.0751   38.8571   56.1666 H         1 ATP         0.0000 
     38 H2'        49.7910   38.3380   53.2466 H         1 ATP         0.0000 
     39 HO2'       49.0003   36.3505   54.3868 H         1 ATP         0.0000 
     40 H1'        48.1676   37.5175   51.0776 H         1 ATP         0.0000 
     41 H8         47.8360   41.3900   51.4990 H         1 ATP         0.0000 
     42 HN61       52.4910   41.5650   47.4600 H         1 ATP         0.0000 
     43 H2         52.0360   37.2290   48.7590 H         1 ATP         0.0000 
     44 H44        52.7492   39.2376   47.7344 H         1 ATP         0.0000 
     45 H45        49.3328   42.5801   50.0600 H         1 ATP         0.0000 
@<TRIPOS>BOND
     1    1    2 2    
     2    1    3 1    
     3    1    4 1    
     4    1    8 1    
     5    4   32 1    
     6    5    6 2    
     7    5    7 1    
     8    5    8 1    
     9    5   12 1    
    10    9   10 2    
    11    9   11 1    
    12    9   12 1    
    13    9   13 1    
    14   13   14 1    
    15   14   15 1    
    16   14   33 1    
    17   14   34 1    
    18   15   16 1    
    19   15   17 1    
    20   15   35 1    
    21   16   21 1    
    22   17   18 1    
    23   17   19 1    
    24   17   36 1    
    25   18   37 1    
    26   19   20 1    
    27   19   21 1    
    28   19   38 1    
    29   20   39 1    
    30   21   22 1    
    31   21   40 1    
    32   22   23 ar   
    33   22   31 ar   
    34   23   24 ar   
    35   23   41 1    
    36   24   25 ar   
    37   24   45 1    
    38   25   26 ar   
    39   25   31 ar   
    40   26   27 2    
    41   26   28 ar   
    42   27   42 1    
    43   28   29 ar   
    44   28   44 1    
    45   29   30 ar   
    46   29   43 1    
    47   30   31 ar   
@<TRIPOS>SUBSTRUCTURE
     1 ATP         1 GROUP             0       ****    0 ROOT    
@<TRIPOS>MOLECULE
ATP
47   49    1
SMALL
USER_CHARGES


@<TRIPOS>ATOM
      1 PG         46.1070   45.1820   56.9500 P.3       1 ATP         0.0000 
      2 O1G        45.7790   46.3300   56.0520 O.2       1 ATP         0.0000 
      3 O2G        47.3820   44.4970   56.6260 O.3       1 ATP         0.0000 
      4 O3G        45.9720   45.5300   58.3750 O.3       1 ATP         0.0000 
      5 PB         43.9110   43.7400   55.6550 P.3       1 ATP         0.0000 
      6 O1B        42.9750   42.7220   55.9860 O.2       1 ATP         0.0000 
      7 O2B        43.6030   44.7670   54.6780 O.3       1 ATP         0.0000 
      8 O3B        45.0410   44.0150   56.7380 O.3       1 ATP         0.0000 
      9 PA         45.2280   42.6690   53.2570 P.3       1 ATP         0.0000 
     10 O1A        46.3800   43.3960   52.7880 O.2       1 ATP         0.0000 
     11 O2A        44.1830   42.1900   52.3510 O.3       1 ATP         0.0000 
     12 O3A        44.9170   42.7160   54.7890 O.3       1 ATP         0.0000 
     13 O5'        46.1720   41.5680   53.3020 O.3       1 ATP         0.0000 
     14 C5'        46.6090   40.4220   53.5420 C.3       1 ATP         0.0000 
     15 C4'        46.5200   38.9890   53.3640 C.3       1 ATP         0.0000 
     16 O4'        46.7850   38.9080   51.9480 O.3       1 ATP         0.0000 
     17 C3'        47.8080   38.8740   54.1120 C.3       1 ATP         0.0000 
     18 O3'        47.7130   38.3570   55.4230 O.3       1 ATP         0.0000 
     19 C2'        48.7190   38.1160   53.1390 C.3       1 ATP         0.0000 
     20 O2'        48.6320   36.7370   53.4250 O.3       1 ATP         0.0000 
     21 C1'        48.1330   38.4090   51.7210 C.3       1 ATP         0.0000 
     22 N9         48.8460   39.4640   50.9860 N.pl3     1 ATP         0.0000 
     23 C8         48.6160   40.8420   50.9450 C.ar      1 ATP         0.0000 
     24 N7         49.4250   41.4890   50.1650 N.2       1 ATP         0.0000 
     25 C5         50.2320   40.4700   49.6640 C.ar      1 ATP         0.0000 
     26 C6         51.3080   40.4660   48.7310 C.ar      1 ATP         0.0000 
     27 N6         51.7210   41.5680   48.1290 N.pl3     1 ATP         0.0000 
     28 N1         51.9120   39.2740   48.4470 N.ar      1 ATP         0.0000 
     29 C2         51.4930   38.1510   49.0290 C.ar      1 ATP         0.0000 
     30 N3         50.4910   38.0160   49.9000 N.ar      1 ATP         0.0000 
     31 C4         49.8920   39.2530   50.1710 C.ar      1 ATP         0.0000 
     32 HOG2       48.3320   45.0490   56.6795 H         1 ATP         0.0000 
     33 HOG3       46.5992   46.3224   58.8095 H         1 ATP         0.0000 
     34 HOB2       42.9452   45.6055   54.9502 H         1 ATP         0.0000 
     35 HOA2       43.3173   42.8293   52.1230 H         1 ATP         0.0000 
     36 H5'1       47.6492   40.3457   53.1926 H         1 ATP         0.0000 
     37 H5'2       46.5714   40.2346   54.6253 H         1 ATP         0.0000 
     38 H4'        45.6654   38.3452   53.6190 H         1 ATP         0.0000 
     39 H3'        48.2020   39.8423   54.4542 H         1 ATP         0.0000 
     40 HO3'       47.0751   38.8571   56.1666 H         1 ATP         0.0000 
     41 H2'        49.7910   38.3380   53.2466 H         1 ATP         0.0000 
     42 HO2'       49.0003   36.3505   54.3868 H         1 ATP         0.0000 
     43 H1'        48.1676   37.5175   51.0776 H         1 ATP         0.0000 
     44 H8         47.8360   41.3900   51.4990 H         1 ATP         0.0000 
     45 HN61       51.2389   42.5309   48.3533 H         1 ATP         0.0000 
     46 HN62       52.5468   41.5221   47.4038 H         1 ATP         0.0000 
     47 H2         52.0360   37.2290   48.7590 H         1 ATP         0.0000 
@<TRIPOS>BOND
     1    1    2 2    
     2    1    3 1    
     3    1    4 1    
     4    1    8 1    
     5    3   32 1    
     6    4   33 1    
     7    5    6 2    
     8    5    7 1    
     9    5    8 1    
    10    5   12 1    
    11    7   34 1    
    12    9   10 2    
    13    9   11 1    
    14    9   12 1    
    15    9   13 1    
    16   11   35 1    
    17   13   14 1    
    18   14   15 1    
    19   14   36 1    
    20   14   37 1    
    21   15   16 1    
    22   15   17 1    
    23   15   38 1    
    24   16   21 1    
    25   17   18 1    
    26   17   19 1    
    27   17   39 1    
    28   18   40 1    
    29   19   20 1    
    30   19   21 1    
    31   19   41 1    
    32   20   42 1    
    33   21   22 1    
    34   21   43 1    
    35   22   23 ar   
    36   22   31 ar   
    37   23   24 ar   
    38   23   44 1    
    39   24   25 ar   
    40   25   26 ar   
    41   25   31 ar   
    42   26   27 1    
    43   26   28 ar   
    44   27   45 1    
    45   27   46 1    
    46   28   29 ar   
    47   29   30 ar   
    48   29   47 1    
    49   30   31 ar   
@<TRIPOS>SUBSTRUCTURE
     1 ATP         1 GROUP             0       ****    0 ROOT    
@<TRIPOS>MOLECULE
ATP
44   46    1
SMALL
USER_CHARGES


@<TRIPOS>ATOM
      1 PG         46.1070   45.1820   56.9500 P.3       1 ATP         0.0000 
      2 O1G        45.7790   46.3300   56.0520 O.co2     1 ATP         0.0000 
      3 O2G        47.3820   44.4970   56.6260 O.co2     1 ATP         0.0000 
      4 O3G        45.9720   45.5300   58.3750 O.3       1 ATP         0.0000 
      5 PB         43.9110   43.7400   55.6550 P.3       1 ATP         0.0000 
      6 O1B        42.9750   42.7220   55.9860 O.co2     1 ATP         0.0000 
      7 O2B        43.6030   44.7670   54.6780 O.co2     1 ATP         0.0000 
      8 O3B        45.0410   44.0150   56.7380 O.3       1 ATP         0.0000 
      9 PA         45.2280   42.6690   53.2570 P.3       1 ATP         0.0000 
     10 O1A        46.3800   43.3960   52.7880 O.co2     1 ATP         0.0000 
     11 O2A        44.1830   42.1900   52.3510 O.co2     1 ATP         0.0000 
     12 O3A        44.9170   42.7160   54.7890 O.3       1 ATP         0.0000 
     13 O5'        46.1720   41.5680   53.3020 O.3       1 ATP         0.0000 
     14 C5'        46.6090   40.4220   53.5420 C.3       1 ATP         0.0000 
     15 C4'        46.5200   38.9890   53.3640 C.3       1 ATP         0.0000 
     16 O4'        46.7850   38.9080   51.9480 O.3       1 ATP         0.0000 
     17 C3'        47.8080   38.8740   54.1120 C.3       1 ATP         0.0000 
     18 O3'        47.7130   38.3570   55.4230 O.3       1 ATP         0.0000 
     19 C2'        48.7190   38.1160   53.1390 C.3       1 ATP         0.0000 
     20 O2'        48.6320   36.7370   53.4250 O.3       1 ATP         0.0000 
     21 C1'        48.1330   38.4090   51.7210 C.3       1 ATP         0.0000 
     22 N9         48.8460   39.4640   50.9860 N.pl3     1 ATP         0.0000 
     23 C8         48.6160   40.8420   50.9450 C.ar      1 ATP         0.0000 
     24 N7         49.4250   41.4890   50.1650 N.2       1 ATP         0.0000 
     25 C5         50.2320   40.4700   49.6640 C.ar      1 ATP         0.0000 
     26 C6         51.3080   40.4660   48.7310 C.ar      1 ATP         0.0000 
     27 N6         51.7210   41.5680   48.1290 N.2       1 ATP         0.0000 
     28 N1         51.9120   39.2740   48.4470 N.pl3     1 ATP         0.0000 
     29 C2         51.4930   38.1510   49.0290 C.ar      1 ATP         0.0000 
     30 N3         50.4910   38.0160   49.9000 N.2       1 ATP         0.0000 
     31 C4         49.8920   39.2530   50.1710 C.ar      1 ATP         0.0000 
     32 HOG3       46.5992   46.3224   58.8095 H         1 ATP         0.0000 
     33 H5'1       47.6492   40.3457   53.1926 H         1 ATP         0.0000 
     34 H5'2       46.5714   40.2346   54.6253 H         1 ATP         0.0000 
     35 H4'        45.6654   38.3452   53.6190 H         1 ATP         0.0000 
     36 H3'        48.2020   39.8423   54.4542 H         1 ATP         0.0000 
     37 HO3'       47.0751   38.8571   56.1666 H         1 ATP         0.0000 
     38 H2'        49.7910   38.3380   53.2466 H         1 ATP         0.0000 
     39 HO2'       49.0003   36.3505   54.3868 H         1 ATP         0.0000 
     40 H1'        48.1676   37.5175   51.0776 H         1 ATP         0.0000 
     41 H8         47.8360   41.3900   51.4990 H         1 ATP         0.0000 
     42 HN62       51.9400   42.2520   48.8520 H         1 ATP         0.0000 
     43 H2         52.0360   37.2290   48.7590 H         1 ATP         0.0000 
     44 H44        52.7492   39.2376   47.7344 H         1 ATP         0.0000 
@<TRIPOS>BOND
     1    1    2 2    
     2    1    3 1    
     3    1    4 1    
     4    1    8 1    
     5    4   32 1    
     6    5    6 2    
     7    5    7 1    
     8    5    8 1    
     9    5   12 1    
    10    9   10 2    
    11    9   11 1    
    12    9   12 1    
    13    9   13 1    
    14   13   14 1    
    15   14   15 1    
    16   14   33 1    
    17   14   34 1    
    18   15   16 1    
    19   15   17 1    
    20   15   35 1    
    21   16   21 1    
    22   17   18 1    
    23   17   19 1    
    24   17   36 1    
    25   18   37 1    
    26   19   20 1    
    27   19   21 1    
    28   19   38 1    
    29   20   39 1    
    30   21   22 1    
    31   21   40 1    
    32   22   23 ar   
    33   22   31 ar   
    34   23   24 ar   
    35   23   41 1    
    36   24   25 ar   
    37   25   26 ar   
    38   25   31 ar   
    39   26   27 2    
    40   26   28 ar   
    41   27   42 1    
    42   28   29 ar   
    43   28   44 1    
    44   29   30 ar   
    45   29   43 1    
    46   30   31 ar   
@<TRIPOS>SUBSTRUCTURE
     1 ATP         1 GROUP             0       ****    0 ROOT    
@<TRIPOS>MOLECULE
ATP
44   46    1
SMALL
USER_CHARGES


@<TRIPOS>ATOM
      1 PG         46.1070   45.1820   56.9500 P.3       1 ATP         0.0000 
      2 O1G        45.7790   46.3300   56.0520 O.co2     1 ATP         0.0000 
      3 O2G        47.3820   44.4970   56.6260 O.co2     1 ATP         0.0000 
      4 O3G        45.9720   45.5300   58.3750 O.3       1 ATP         0.0000 
      5 PB         43.9110   43.7400   55.6550 P.3       1 ATP         0.0000 
      6 O1B        42.9750   42.7220   55.9860 O.co2     1 ATP         0.0000 
      7 O2B        43.6030   44.7670   54.6780 O.co2     1 ATP         0.0000 
      8 O3B        45.0410   44.0150   56.7380 O.3       1 ATP         0.0000 
      9 PA         45.2280   42.6690   53.2570 P.3       1 ATP         0.0000 
     10 O1A        46.3800   43.3960   52.7880 O.co2     1 ATP         0.0000 
     11 O2A        44.1830   42.1900   52.3510 O.co2     1 ATP         0.0000 
     12 O3A        44.9170   42.7160   54.7890 O.3       1 ATP         0.0000 
     13 O5'        46.1720   41.5680   53.3020 O.3       1 ATP         0.0000 
     14 C5'        46.6090   40.4220   53.5420 C.3       1 ATP         0.0000 
     15 C4'        46.5200   38.9890   53.3640 C.3       1 ATP         0.0000 
     16 O4'        46.7850   38.9080   51.9480 O.3       1 ATP         0.0000 
     17 C3'        47.8080   38.8740   54.1120 C.3       1 ATP         0.0000 
     18 O3'        47.7130   38.3570   55.4230 O.3       1 ATP         0.0000 
     19 C2'        48.7190   38.1160   53.1390 C.3       1 ATP         0.0000 
     20 O2'        48.6320   36.7370   53.4250 O.3       1 ATP         0.0000 
     21 C1'        48.1330   38.4090   51.7210 C.3       1 ATP         0.0000 
     22 N9         48.8460   39.4640   50.9860 N.pl3     1 ATP         0.0000 
     23 C8         48.6160   40.8420   50.9450 C.ar      1 ATP         0.0000 
     24 N7         49.4250   41.4890   50.1650 N.2       1 ATP         0.0000 
     25 C5         50.2320   40.4700   49.6640 C.ar      1 ATP         0.0000 
     26 C6         51.3080   40.4660   48.7310 C.ar      1 ATP         0.0000 
     27 N6         51.7210   41.5680   48.1290 N.2       1 ATP         0.0000 
     28 N1         51.9120   39.2740   48.4470 N.pl3     1 ATP         0.0000 
     29 C2         51.4930   38.1510   49.0290 C.ar      1 ATP         0.0000 
     30 N3         50.4910   38.0160   49.9000 N.2       1 ATP         0.0000 
     31 C4         49.8920   39.2530   50.1710 C.ar      1 ATP         0.0000 
     32 HOG3       46.5992   46.3224   58.8095 H         1 ATP         0.0000 
     33 H5'1       47.6492   40.3457   53.1926 H         1 ATP         0.0000 
     34 H5'2       46.5714   40.2346   54.6253 H         1 ATP         0.0000 
     35 H4'        45.6654   38.3452   53.6190 H         1 ATP         0.0000 
     36 H3'        48.2020   39.8423   54.4542 H         1 ATP         0.0000 
     37 HO3'       47.0751   38.8571   56.1666 H         1 ATP         0.0000 
     38 H2'        49.7910   38.3380   53.2466 H         1 ATP         0.0000 
     39 HO2'       49.0003   36.3505   54.3868 H         1 ATP         0.0000 
     40 H1'        48.1676   37.5175   51.0776 H         1 ATP         0.0000 
     41 H8         47.8360   41.3900   51.4990 H         1 ATP         0.0000 
     42 HN61       52.4910   41.5650   47.4600 H         1 ATP         0.0000 
     43 H2         52.0360   37.2290   48.7590 H         1 ATP         0.0000 
     44 H44        52.7492   39.2376   47.7344 H         1 ATP         0.0000 
@<TRIPOS>BOND
     1    1    2 2    
     2    1    3 1    
     3    1    4 1    
     4    1    8 1    
     5    4   32 1    
     6    5    6 2    
     7    5    7 1    
     8    5    8 1    
     9    5   12 1    
    10    9   10 2    
    11    9   11 1    
    12    9   12 1    
    13    9   13 1    
    14   13   14 1    
    15   14   15 1    
    16   14   33 1    
    17   14   34 1    
    18   15   16 1    
    19   15   17 1    
    20   15   35 1    
    21   16   21 1    
    22   17   18 1    
    23   17   19 1    
    24   17   36 1    
    25   18   37 1    
    26   19   20 1    
    27   19   21 1    
    28   19   38 1    
    29   20   39 1    
    30   21   22 1    
    31   21   40 1    
    32   22   23 ar   
    33   22   31 ar   
    34   23   24 ar   
    35   23   41 1    
    36   24   25 ar   
    37   25   26 ar   
    38   25   31 ar   
    39   26   27 2    
    40   26   28 ar   
    41   27   42 1    
    42   28   29 ar   
    43   28   44 1    
    44   29   30 ar   
    45   29   43 1    
    46   30   31 ar   
@<TRIPOS>SUBSTRUCTURE
     1 ATP         1 GROUP             0       ****    0 ROOT    
@<TRIPOS>MOLECULE
ATP
47   49    1
SMALL
USER_CHARGES


@<TRIPOS>ATOM
      1 PG         46.1070   45.1820   56.9500 P.3       1 ATP         0.0000 
      2 O1G        45.7790   46.3300   56.0520 O.co2     1 ATP         0.0000 
      3 O2G        47.3820   44.4970   56.6260 O.co2     1 ATP         0.0000 
      4 O3G        45.9720   45.5300   58.3750 O.3       1 ATP         0.0000 
      5 PB         43.9110   43.7400   55.6550 P.3       1 ATP         0.0000 
      6 O1B        42.9750   42.7220   55.9860 O.2       1 ATP         0.0000 
      7 O2B        43.6030   44.7670   54.6780 O.3       1 ATP         0.0000 
      8 O3B        45.0410   44.0150   56.7380 O.3       1 ATP         0.0000 
      9 PA         45.2280   42.6690   53.2570 P.3       1 ATP         0.0000 
     10 O1A        46.3800   43.3960   52.7880 O.2       1 ATP         0.0000 
     11 O2A        44.1830   42.1900   52.3510 O.3       1 ATP         0.0000 
     12 O3A        44.9170   42.7160   54.7890 O.3       1 ATP         0.0000 
     13 O5'        46.1720   41.5680   53.3020 O.3       1 ATP         0.0000 
     14 C5'        46.6090   40.4220   53.5420 C.3       1 ATP         0.0000 
     15 C4'        46.5200   38.9890   53.3640 C.3       1 ATP         0.0000 
     16 O4'        46.7850   38.9080   51.9480 O.3       1 ATP         0.0000 
     17 C3'        47.8080   38.8740   54.1120 C.3       1 ATP         0.0000 
     18 O3'        47.7130   38.3570   55.4230 O.3       1 ATP         0.0000 
     19 C2'        48.7190   38.1160   53.1390 C.3       1 ATP         0.0000 
     20 O2'        48.6320   36.7370   53.4250 O.3       1 ATP         0.0000 
     21 C1'        48.1330   38.4090   51.7210 C.3       1 ATP         0.0000 
     22 N9         48.8460   39.4640   50.9860 N.pl3     1 ATP         0.0000 
     23 C8         48.6160   40.8420   50.9450 C.ar      1 ATP         0.0000 
     24 N7         49.4250   41.4890   50.1650 N.pl3     1 ATP         0.0000 
     25 C5         50.2320   40.4700   49.6640 C.ar      1 ATP         0.0000 
     26 C6         51.3080   40.4660   48.7310 C.ar      1 ATP         0.0000 
     27 N6         51.7210   41.5680   48.1290 N.pl3     1 ATP         0.0000 
     28 N1         51.9120   39.2740   48.4470 N.ar      1 ATP         0.0000 
     29 C2         51.4930   38.1510   49.0290 C.ar      1 ATP         0.0000 
     30 N3         50.4910   38.0160   49.9000 N.ar      1 ATP         0.0000 
     31 C4         49.8920   39.2530   50.1710 C.ar      1 ATP         0.0000 
     32 HOG3       46.5992   46.3224   58.8095 H         1 ATP         0.0000 
     33 HOB2       42.9452   45.6055   54.9502 H         1 ATP         0.0000 
     34 HOA2       43.3173   42.8293   52.1230 H         1 ATP         0.0000 
     35 H5'1       47.6492   40.3457   53.1926 H         1 ATP         0.0000 
     36 H5'2       46.5714   40.2346   54.6253 H         1 ATP         0.0000 
     37 H4'        45.6654   38.3452   53.6190 H         1 ATP         0.0000 
     38 H3'        48.2020   39.8423   54.4542 H         1 ATP         0.0000 
     39 HO3'       47.0751   38.8571   56.1666 H         1 ATP         0.0000 
     40 H2'        49.7910   38.3380   53.2466 H         1 ATP         0.0000 
     41 HO2'       49.0003   36.3505   54.3868 H         1 ATP         0.0000 
     42 H1'        48.1676   37.5175   51.0776 H         1 ATP         0.0000 
     43 H8         47.8360   41.3900   51.4990 H         1 ATP         0.0000 
     44 HN61       51.2389   42.5309   48.3533 H         1 ATP         0.0000 
     45 HN62       52.5468   41.5221   47.4038 H         1 ATP         0.0000 
     46 H2         52.0360   37.2290   48.7590 H         1 ATP         0.0000 
     47 H47        49.3328   42.5801   50.0600 H         1 ATP         0.0000 
@<TRIPOS>BOND
     1    1    2 2    
     2    1    3 1    
     3    1    4 1    
     4    1    8 1    
     5    4   32 1    
     6    5    6 2    
     7    5    7 1    
     8    5    8 1    
     9    5   12 1    
    10    7   33 1    
    11    9   10 2    
    12    9   11 1    
    13    9   12 1    
    14    9   13 1    
    15   11   34 1    
    16   13   14 1    
    17   14   15 1    
    18   14   35 1    
    19   14   36 1    
    20   15   16 1    
    21   15   17 1    
    22   15   37 1    
    23   16   21 1    
    24   17   18 1    
    25   17   19 1    
    26   17   38 1    
    27   18   39 1    
    28   19   20 1    
    29   19   21 1    
    30   19   40 1    
    31   20   41 1    
    32   21   22 1    
    33   21   42 1    
    34   22   23 ar   
    35   22   31 ar   
    36   23   24 ar   
    37   23   43 1    
    38   24   25 ar   
    39   24   47 1    
    40   25   26 ar   
    41   25   31 ar   
    42   26   27 1    
    43   26   28 ar   
    44   27   44 1    
    45   27   45 1    
    46   28   29 ar   
    47   29   30 ar   
    48   29   46 1    
    49   30   31 ar   
@<TRIPOS>SUBSTRUCTURE
     1 ATP         1 GROUP             0       ****    0 ROOT    
@<TRIPOS>MOLECULE
ATP
45   47    1
SMALL
USER_CHARGES


@<TRIPOS>ATOM
      1 PG         46.1070   45.1820   56.9500 P.3       1 ATP         0.0000 
      2 O1G        45.7790   46.3300   56.0520 O.co2     1 ATP         0.0000 
      3 O2G        47.3820   44.4970   56.6260 O.co2     1 ATP         0.0000 
      4 O3G        45.9720   45.5300   58.3750 O.co2     1 ATP         0.0000 
      5 PB         43.9110   43.7400   55.6550 P.3       1 ATP         0.0000 
      6 O1B        42.9750   42.7220   55.9860 O.co2     1 ATP         0.0000 
      7 O2B        43.6030   44.7670   54.6780 O.co2     1 ATP         0.0000 
      8 O3B        45.0410   44.0150   56.7380 O.3       1 ATP         0.0000 
      9 PA         45.2280   42.6690   53.2570 P.3       1 ATP         0.0000 
     10 O1A        46.3800   43.3960   52.7880 O.2       1 ATP         0.0000 
     11 O2A        44.1830   42.1900   52.3510 O.3       1 ATP         0.0000 
     12 O3A        44.9170   42.7160   54.7890 O.3       1 ATP         0.0000 
     13 O5'        46.1720   41.5680   53.3020 O.3       1 ATP         0.0000 
     14 C5'        46.6090   40.4220   53.5420 C.3       1 ATP         0.0000 
     15 C4'        46.5200   38.9890   53.3640 C.3       1 ATP         0.0000 
     16 O4'        46.7850   38.9080   51.9480 O.3       1 ATP         0.0000 
     17 C3'        47.8080   38.8740   54.1120 C.3       1 ATP         0.0000 
     18 O3'        47.7130   38.3570   55.4230 O.3       1 ATP         0.0000 
     19 C2'        48.7190   38.1160   53.1390 C.3       1 ATP         0.0000 
     20 O2'        48.6320   36.7370   53.4250 O.3       1 ATP         0.0000 
     21 C1'        48.1330   38.4090   51.7210 C.3       1 ATP         0.0000 
     22 N9         48.8460   39.4640   50.9860 N.pl3     1 ATP         0.0000 
     23 C8         48.6160   40.8420   50.9450 C.ar      1 ATP         0.0000 
     24 N7         49.4250   41.4890   50.1650 N.2       1 ATP         0.0000 
     25 C5         50.2320   40.4700   49.6640 C.ar      1 ATP         0.0000 
     26 C6         51.3080   40.4660   48.7310 C.ar      1 ATP         0.0000 
     27 N6         51.7210   41.5680   48.1290 N.pl3     1 ATP         0.0000 
     28 N1         51.9120   39.2740   48.4470 N.pl3     1 ATP         0.0000 
     29 C2         51.4930   38.1510   49.0290 C.ar      1 ATP         0.0000 
     30 N3         50.4910   38.0160   49.9000 N.ar      1 ATP         0.0000 
     31 C4         49.8920   39.2530   50.1710 C.ar      1 ATP         0.0000 
     32 HOA2       43.3173   42.8293   52.1230 H         1 ATP         0.0000 
     33 H5'1       47.6492   40.3457   53.1926 H         1 ATP         0.0000 
     34 H5'2       46.5714   40.2346   54.6253 H         1 ATP         0.0000 
     35 H4'        45.6654   38.3452   53.6190 H         1 ATP         0.0000 
     36 H3'        48.2020   39.8423   54.4542 H         1 ATP         0.0000 
     37 HO3'       47.0751   38.8571   56.1666 H         1 ATP         0.0000 
     38 H2'        49.7910   38.3380   53.2466 H         1 ATP         0.0000 
     39 HO2'       49.0003   36.3505   54.3868 H         1 ATP         0.0000 
     40 H1'        48.1676   37.5175   51.0776 H         1 ATP         0.0000 
     41 H8         47.8360   41.3900   51.4990 H         1 ATP         0.0000 
     42 HN61       51.2389   42.5309   48.3533 H         1 ATP         0.0000 
     43 HN62       52.5468   41.5221   47.4038 H         1 ATP         0.0000 
     44 H2         52.0360   37.2290   48.7590 H         1 ATP         0.0000 
     45 H45        52.7492   39.2376   47.7344 H         1 ATP         0.0000 
@<TRIPOS>BOND
     1    1    2 2    
     2    1    3 1    
     3    1    4 1    
     4    1    8 1    
     5    5    6 2    
     6    5    7 1    
     7    5    8 1    
     8    5   12 1    
     9    9   10 2    
    10    9   11 1    
    11    9   12 1    
    12    9   13 1    
    13   11   32 1    
    14   13   14 1    
    15   14   15 1    
    16   14   33 1    
    17   14   34 1    
    18   15   16 1    
    19   15   17 1    
    20   15   35 1    
    21   16   21 1    
    22   17   18 1    
    23   17   19 1    
    24   17   36 1    
    25   18   37 1    
    26   19   20 1    
    27   19   21 1    
    28   19   38 1    
    29   20   39 1    
    30   21   22 1    
    31   21   40 1    
    32   22   23 ar   
    33   22   31 ar   
    34   23   24 ar   
    35   23   41 1    
    36   24   25 ar   
    37   25   26 ar   
    38   25   31 ar   
    39   26   27 1    
    40   26   28 ar   
    41   27   42 1    
    42   27   43 1    
    43   28   29 ar   
    44   28   45 1    
    45   29   30 ar   
    46   29   44 1    
    47   30   31 ar   
@<TRIPOS>SUBSTRUCTURE
     1 ATP         1 GROUP             0       ****    0 ROOT    
@<TRIPOS>MOLECULE
ATP
45   47    1
SMALL
USER_CHARGES


@<TRIPOS>ATOM
      1 PG         46.1070   45.1820   56.9500 P.3       1 ATP         0.0000 
      2 O1G        45.7790   46.3300   56.0520 O.co2     1 ATP         0.0000 
      3 O2G        47.3820   44.4970   56.6260 O.co2     1 ATP         0.0000 
      4 O3G        45.9720   45.5300   58.3750 O.co2     1 ATP         0.0000 
      5 PB         43.9110   43.7400   55.6550 P.3       1 ATP         0.0000 
      6 O1B        42.9750   42.7220   55.9860 O.2       1 ATP         0.0000 
      7 O2B        43.6030   44.7670   54.6780 O.3       1 ATP         0.0000 
      8 O3B        45.0410   44.0150   56.7380 O.3       1 ATP         0.0000 
      9 PA         45.2280   42.6690   53.2570 P.3       1 ATP         0.0000 
     10 O1A        46.3800   43.3960   52.7880 O.2       1 ATP         0.0000 
     11 O2A        44.1830   42.1900   52.3510 O.3       1 ATP         0.0000 
     12 O3A        44.9170   42.7160   54.7890 O.3       1 ATP         0.0000 
     13 O5'        46.1720   41.5680   53.3020 O.3       1 ATP         0.0000 
     14 C5'        46.6090   40.4220   53.5420 C.3       1 ATP         0.0000 
     15 C4'        46.5200   38.9890   53.3640 C.3       1 ATP         0.0000 
     16 O4'        46.7850   38.9080   51.9480 O.3       1 ATP         0.0000 
     17 C3'        47.8080   38.8740   54.1120 C.3       1 ATP         0.0000 
     18 O3'        47.7130   38.3570   55.4230 O.3       1 ATP         0.0000 
     19 C2'        48.7190   38.1160   53.1390 C.3       1 ATP         0.0000 
     20 O2'        48.6320   36.7370   53.4250 O.3       1 ATP         0.0000 
     21 C1'        48.1330   38.4090   51.7210 C.3       1 ATP         0.0000 
     22 N9         48.8460   39.4640   50.9860 N.pl3     1 ATP         0.0000 
     23 C8         48.6160   40.8420   50.9450 C.ar      1 ATP         0.0000 
     24 N7         49.4250   41.4890   50.1650 N.2       1 ATP         0.0000 
     25 C5         50.2320   40.4700   49.6640 C.ar      1 ATP         0.0000 
     26 C6         51.3080   40.4660   48.7310 C.ar      1 ATP         0.0000 
     27 N6         51.7210   41.5680   48.1290 N.pl3     1 ATP         0.0000 
     28 N1         51.9120   39.2740   48.4470 N.ar      1 ATP         0.0000 
     29 C2         51.4930   38.1510   49.0290 C.ar      1 ATP         0.0000 
     30 N3         50.4910   38.0160   49.9000 N.ar      1 ATP         0.0000 
     31 C4         49.8920   39.2530   50.1710 C.ar      1 ATP         0.0000 
     32 HOB2       42.9452   45.6055   54.9502 H         1 ATP         0.0000 
     33 HOA2       43.3173   42.8293   52.1230 H         1 ATP         0.0000 
     34 H5'1       47.6492   40.3457   53.1926 H         1 ATP         0.0000 
     35 H5'2       46.5714   40.2346   54.6253 H         1 ATP         0.0000 
     36 H4'        45.6654   38.3452   53.6190 H         1 ATP         0.0000 
     37 H3'        48.2020   39.8423   54.4542 H         1 ATP         0.0000 
     38 HO3'       47.0751   38.8571   56.1666 H         1 ATP         0.0000 
     39 H2'        49.7910   38.3380   53.2466 H         1 ATP         0.0000 
     40 HO2'       49.0003   36.3505   54.3868 H         1 ATP         0.0000 
     41 H1'        48.1676   37.5175   51.0776 H         1 ATP         0.0000 
     42 H8         47.8360   41.3900   51.4990 H         1 ATP         0.0000 
     43 HN61       51.2389   42.5309   48.3533 H         1 ATP         0.0000 
     44 HN62       52.5468   41.5221   47.4038 H         1 ATP         0.0000 
     45 H2         52.0360   37.2290   48.7590 H         1 ATP         0.0000 
@<TRIPOS>BOND
     1    1    2 2    
     2    1    3 1    
     3    1    4 1    
     4    1    8 1    
     5    5    6 2    
     6    5    7 1    
     7    5    8 1    
     8    5   12 1    
     9    7   32 1    
    10    9   10 2    
    11    9   11 1    
    12    9   12 1    
    13    9   13 1    
    14   11   33 1    
    15   13   14 1    
    16   14   15 1    
    17   14   34 1    
    18   14   35 1    
    19   15   16 1    
    20   15   17 1    
    21   15   36 1    
    22   16   21 1    
    23   17   18 1    
    24   17   19 1    
    25   17   37 1    
    26   18   38 1    
    27   19   20 1    
    28   19   21 1    
    29   19   39 1    
    30   20   40 1    
    31   21   22 1    
    32   21   41 1    
    33   22   23 ar   
    34   22   31 ar   
    35   23   24 ar   
    36   23   42 1    
    37   24   25 ar   
    38   25   26 ar   
    39   25   31 ar   
    40   26   27 1    
    41   26   28 ar   
    42   27   43 1    
    43   27   44 1    
    44   28   29 ar   
    45   29   30 ar   
    46   29   45 1    
    47   30   31 ar   
@<TRIPOS>SUBSTRUCTURE
     1 ATP         1 GROUP             0       ****    0 ROOT    
@<TRIPOS>MOLECULE
ATP
48   50    1
SMALL
USER_CHARGES


@<TRIPOS>ATOM
      1 PG         46.1070   45.1820   56.9500 P.3       1 ATP         0.0000 
      2 O1G        45.7790   46.3300   56.0520 O.2       1 ATP         0.0000 
      3 O2G        47.3820   44.4970   56.6260 O.3       1 ATP         0.0000 
      4 O3G        45.9720   45.5300   58.3750 O.3       1 ATP         0.0000 
      5 PB         43.9110   43.7400   55.6550 P.3       1 ATP         0.0000 
      6 O1B        42.9750   42.7220   55.9860 O.2       1 ATP         0.0000 
      7 O2B        43.6030   44.7670   54.6780 O.3       1 ATP         0.0000 
      8 O3B        45.0410   44.0150   56.7380 O.3       1 ATP         0.0000 
      9 PA         45.2280   42.6690   53.2570 P.3       1 ATP         0.0000 
     10 O1A        46.3800   43.3960   52.7880 O.2       1 ATP         0.0000 
     11 O2A        44.1830   42.1900   52.3510 O.3       1 ATP         0.0000 
     12 O3A        44.9170   42.7160   54.7890 O.3       1 ATP         0.0000 
     13 O5'        46.1720   41.5680   53.3020 O.3       1 ATP         0.0000 
     14 C5'        46.6090   40.4220   53.5420 C.3       1 ATP         0.0000 
     15 C4'        46.5200   38.9890   53.3640 C.3       1 ATP         0.0000 
     16 O4'        46.7850   38.9080   51.9480 O.3       1 ATP         0.0000 
     17 C3'        47.8080   38.8740   54.1120 C.3       1 ATP         0.0000 
     18 O3'        47.7130   38.3570   55.4230 O.3       1 ATP         0.0000 
     19 C2'        48.7190   38.1160   53.1390 C.3       1 ATP         0.0000 
     20 O2'        48.6320   36.7370   53.4250 O.3       1 ATP         0.0000 
     21 C1'        48.1330   38.4090   51.7210 C.3       1 ATP         0.0000 
     22 N9         48.8460   39.4640   50.9860 N.pl3     1 ATP         0.0000 
     23 C8         48.6160   40.8420   50.9450 C.ar      1 ATP         0.0000 
     24 N7         49.4250   41.4890   50.1650 N.2       1 ATP         0.0000 
     25 C5         50.2320   40.4700   49.6640 C.ar      1 ATP         0.0000 
     26 C6         51.3080   40.4660   48.7310 C.ar      1 ATP         0.0000 
     27 N6         51.7210   41.5680   48.1290 N.pl3     1 ATP         0.0000 
     28 N1         51.9120   39.2740   48.4470 N.pl3     1 ATP         0.0000 
     29 C2         51.4930   38.1510   49.0290 C.ar      1 ATP         0.0000 
     30 N3         50.4910   38.0160   49.9000 N.ar      1 ATP         0.0000 
     31 C4         49.8920   39.2530   50.1710 C.ar      1 ATP         0.0000 
     32 HOG2       48.3320   45.0490   56.6795 H         1 ATP         0.0000 
     33 HOG3       46.5992   46.3224   58.8095 H         1 ATP         0.0000 
     34 HOB2       42.9452   45.6055   54.9502 H         1 ATP         0.0000 
     35 HOA2       43.3173   42.8293   52.1230 H         1 ATP         0.0000 
     36 H5'1       47.6492   40.3457   53.1926 H         1 ATP         0.0000 
     37 H5'2       46.5714   40.2346   54.6253 H         1 ATP         0.0000 
     38 H4'        45.6654   38.3452   53.6190 H         1 ATP         0.0000 
     39 H3'        48.2020   39.8423   54.4542 H         1 ATP         0.0000 
     40 HO3'       47.0751   38.8571   56.1666 H         1 ATP         0.0000 
     41 H2'        49.7910   38.3380   53.2466 H         1 ATP         0.0000 
     42 HO2'       49.0003   36.3505   54.3868 H         1 ATP         0.0000 
     43 H1'        48.1676   37.5175   51.0776 H         1 ATP         0.0000 
     44 H8         47.8360   41.3900   51.4990 H         1 ATP         0.0000 
     45 HN61       51.2389   42.5309   48.3533 H         1 ATP         0.0000 
     46 HN62       52.5468   41.5221   47.4038 H         1 ATP         0.0000 
     47 H2         52.0360   37.2290   48.7590 H         1 ATP         0.0000 
     48 H48        52.7492   39.2376   47.7344 H         1 ATP         0.0000 
@<TRIPOS>BOND
     1    1    2 2    
     2    1    3 1    
     3    1    4 1    
     4    1    8 1    
     5    3   32 1    
     6    4   33 1    
     7    5    6 2    
     8    5    7 1    
     9    5    8 1    
    10    5   12 1    
    11    7   34 1    
    12    9   10 2    
    13    9   11 1    
    14    9   12 1    
    15    9   13 1    
    16   11   35 1    
    17   13   14 1    
    18   14   15 1    
    19   14   36 1    
    20   14   37 1    
    21   15   16 1    
    22   15   17 1    
    23   15   38 1    
    24   16   21 1    
    25   17   18 1    
    26   17   19 1    
    27   17   39 1    
    28   18   40 1    
    29   19   20 1    
    30   19   21 1    
    31   19   41 1    
    32   20   42 1    
    33   21   22 1    
    34   21   43 1    
    35   22   23 ar   
    36   22   31 ar   
    37   23   24 ar   
    38   23   44 1    
    39   24   25 ar   
    40   25   26 ar   
    41   25   31 ar   
    42   26   27 1    
    43   26   28 ar   
    44   27   45 1    
    45   27   46 1    
    46   28   29 ar   
    47   28   48 1    
    48   29   30 ar   
    49   29   47 1    
    50   30   31 ar   
@<TRIPOS>SUBSTRUCTURE
     1 ATP         1 GROUP             0       ****    0 ROOT    
@<TRIPOS>MOLECULE
ATP
47   49    1
SMALL
USER_CHARGES


@<TRIPOS>ATOM
      1 PG         46.1070   45.1820   56.9500 P.3       1 ATP         0.0000 
      2 O1G        45.7790   46.3300   56.0520 O.2       1 ATP         0.0000 
      3 O2G        47.3820   44.4970   56.6260 O.3       1 ATP         0.0000 
      4 O3G        45.9720   45.5300   58.3750 O.3       1 ATP         0.0000 
      5 PB         43.9110   43.7400   55.6550 P.3       1 ATP         0.0000 
      6 O1B        42.9750   42.7220   55.9860 O.2       1 ATP         0.0000 
      7 O2B        43.6030   44.7670   54.6780 O.3       1 ATP         0.0000 
      8 O3B        45.0410   44.0150   56.7380 O.3       1 ATP         0.0000 
      9 PA         45.2280   42.6690   53.2570 P.3       1 ATP         0.0000 
     10 O1A        46.3800   43.3960   52.7880 O.co2     1 ATP         0.0000 
     11 O2A        44.1830   42.1900   52.3510 O.co2     1 ATP         0.0000 
     12 O3A        44.9170   42.7160   54.7890 O.3       1 ATP         0.0000 
     13 O5'        46.1720   41.5680   53.3020 O.3       1 ATP         0.0000 
     14 C5'        46.6090   40.4220   53.5420 C.3       1 ATP         0.0000 
     15 C4'        46.5200   38.9890   53.3640 C.3       1 ATP         0.0000 
     16 O4'        46.7850   38.9080   51.9480 O.3       1 ATP         0.0000 
     17 C3'        47.8080   38.8740   54.1120 C.3       1 ATP         0.0000 
     18 O3'        47.7130   38.3570   55.4230 O.3       1 ATP         0.0000 
     19 C2'        48.7190   38.1160   53.1390 C.3       1 ATP         0.0000 
     20 O2'        48.6320   36.7370   53.4250 O.3       1 ATP         0.0000 
     21 C1'        48.1330   38.4090   51.7210 C.3       1 ATP         0.0000 
     22 N9         48.8460   39.4640   50.9860 N.pl3     1 ATP         0.0000 
     23 C8         48.6160   40.8420   50.9450 C.ar      1 ATP         0.0000 
     24 N7         49.4250   41.4890   50.1650 N.pl3     1 ATP         0.0000 
     25 C5         50.2320   40.4700   49.6640 C.ar      1 ATP         0.0000 
     26 C6         51.3080   40.4660   48.7310 C.ar      1 ATP         0.0000 
     27 N6         51.7210   41.5680   48.1290 N.pl3     1 ATP         0.0000 
     28 N1         51.9120   39.2740   48.4470 N.ar      1 ATP         0.0000 
     29 C2         51.4930   38.1510   49.0290 C.ar      1 ATP         0.0000 
     30 N3         50.4910   38.0160   49.9000 N.ar      1 ATP         0.0000 
     31 C4         49.8920   39.2530   50.1710 C.ar      1 ATP         0.0000 
     32 HOG2       48.3320   45.0490   56.6795 H         1 ATP         0.0000 
     33 HOG3       46.5992   46.3224   58.8095 H         1 ATP         0.0000 
     34 HOB2       42.9452   45.6055   54.9502 H         1 ATP         0.0000 
     35 H5'1       47.6492   40.3457   53.1926 H         1 ATP         0.0000 
     36 H5'2       46.5714   40.2346   54.6253 H         1 ATP         0.0000 
     37 H4'        45.6654   38.3452   53.6190 H         1 ATP         0.0000 
     38 H3'        48.2020   39.8423   54.4542 H         1 ATP         0.0000 
     39 HO3'       47.0751   38.8571   56.1666 H         1 ATP         0.0000 
     40 H2'        49.7910   38.3380   53.2466 H         1 ATP         0.0000 
     41 HO2'       49.0003   36.3505   54.3868 H         1 ATP         0.0000 
     42 H1'        48.1676   37.5175   51.0776 H         1 ATP         0.0000 
     43 H8         47.8360   41.3900   51.4990 H         1 ATP         0.0000 
     44 HN61       51.2389   42.5309   48.3533 H         1 ATP         0.0000 
     45 HN62       52.5468   41.5221   47.4038 H         1 ATP         0.0000 
     46 H2         52.0360   37.2290   48.7590 H         1 ATP         0.0000 
     47 H47        49.3328   42.5801   50.0600 H         1 ATP         0.0000 
@<TRIPOS>BOND
     1    1    2 2    
     2    1    3 1    
     3    1    4 1    
     4    1    8 1    
     5    3   32 1    
     6    4   33 1    
     7    5    6 2    
     8    5    7 1    
     9    5    8 1    
    10    5   12 1    
    11    7   34 1    
    12    9   10 2    
    13    9   11 1    
    14    9   12 1    
    15    9   13 1    
    16   13   14 1    
    17   14   15 1    
    18   14   35 1    
    19   14   36 1    
    20   15   16 1    
    21   15   17 1    
    22   15   37 1    
    23   16   21 1    
    24   17   18 1    
    25   17   19 1    
    26   17   38 1    
    27   18   39 1    
    28   19   20 1    
    29   19   21 1    
    30   19   40 1    
    31   20   41 1    
    32   21   22 1    
    33   21   42 1    
    34   22   23 ar   
    35   22   31 ar   
    36   23   24 ar   
    37   23   43 1    
    38   24   25 ar   
    39   24   47 1    
    40   25   26 ar   
    41   25   31 ar   
    42   26   27 1    
    43   26   28 ar   
    44   27   44 1    
    45   27   45 1    
    46   28   29 ar   
    47   29   30 ar   
    48   29   46 1    
    49   30   31 ar   
@<TRIPOS>SUBSTRUCTURE
     1 ATP         1 GROUP             0       ****    0 ROOT    
@<TRIPOS>MOLECULE
ATP
46   48    1
SMALL
USER_CHARGES


@<TRIPOS>ATOM
      1 PG         46.1070   45.1820   56.9500 P.3       1 ATP         0.0000 
      2 O1G        45.7790   46.3300   56.0520 O.co2     1 ATP         0.0000 
      3 O2G        47.3820   44.4970   56.6260 O.co2     1 ATP         0.0000 
      4 O3G        45.9720   45.5300   58.3750 O.3       1 ATP         0.0000 
      5 PB         43.9110   43.7400   55.6550 P.3       1 ATP         0.0000 
      6 O1B        42.9750   42.7220   55.9860 O.co2     1 ATP         0.0000 
      7 O2B        43.6030   44.7670   54.6780 O.co2     1 ATP         0.0000 
      8 O3B        45.0410   44.0150   56.7380 O.3       1 ATP         0.0000 
      9 PA         45.2280   42.6690   53.2570 P.3       1 ATP         0.0000 
     10 O1A        46.3800   43.3960   52.7880 O.2       1 ATP         0.0000 
     11 O2A        44.1830   42.1900   52.3510 O.3       1 ATP         0.0000 
     12 O3A        44.9170   42.7160   54.7890 O.3       1 ATP         0.0000 
     13 O5'        46.1720   41.5680   53.3020 O.3       1 ATP         0.0000 
     14 C5'        46.6090   40.4220   53.5420 C.3       1 ATP         0.0000 
     15 C4'        46.5200   38.9890   53.3640 C.3       1 ATP         0.0000 
     16 O4'        46.7850   38.9080   51.9480 O.3       1 ATP         0.0000 
     17 C3'        47.8080   38.8740   54.1120 C.3       1 ATP         0.0000 
     18 O3'        47.7130   38.3570   55.4230 O.3       1 ATP         0.0000 
     19 C2'        48.7190   38.1160   53.1390 C.3       1 ATP         0.0000 
     20 O2'        48.6320   36.7370   53.4250 O.3       1 ATP         0.0000 
     21 C1'        48.1330   38.4090   51.7210 C.3       1 ATP         0.0000 
     22 N9         48.8460   39.4640   50.9860 N.pl3     1 ATP         0.0000 
     23 C8         48.6160   40.8420   50.9450 C.ar      1 ATP         0.0000 
     24 N7         49.4250   41.4890   50.1650 N.pl3     1 ATP         0.0000 
     25 C5         50.2320   40.4700   49.6640 C.ar      1 ATP         0.0000 
     26 C6         51.3080   40.4660   48.7310 C.ar      1 ATP         0.0000 
     27 N6         51.7210   41.5680   48.1290 N.2       1 ATP         0.0000 
     28 N1         51.9120   39.2740   48.4470 N.pl3     1 ATP         0.0000 
     29 C2         51.4930   38.1510   49.0290 C.ar      1 ATP         0.0000 
     30 N3         50.4910   38.0160   49.9000 N.2       1 ATP         0.0000 
     31 C4         49.8920   39.2530   50.1710 C.ar      1 ATP         0.0000 
     32 HOG3       46.5992   46.3224   58.8095 H         1 ATP         0.0000 
     33 HOA2       43.3173   42.8293   52.1230 H         1 ATP         0.0000 
     34 H5'1       47.6492   40.3457   53.1926 H         1 ATP         0.0000 
     35 H5'2       46.5714   40.2346   54.6253 H         1 ATP         0.0000 
     36 H4'        45.6654   38.3452   53.6190 H         1 ATP         0.0000 
     37 H3'        48.2020   39.8423   54.4542 H         1 ATP         0.0000 
     38 HO3'       47.0751   38.8571   56.1666 H         1 ATP         0.0000 
     39 H2'        49.7910   38.3380   53.2466 H         1 ATP         0.0000 
     40 HO2'       49.0003   36.3505   54.3868 H         1 ATP         0.0000 
     41 H1'        48.1676   37.5175   51.0776 H         1 ATP         0.0000 
     42 H8         47.8360   41.3900   51.4990 H         1 ATP         0.0000 
     43 HN62       51.9400   42.2520   48.8520 H         1 ATP         0.0000 
     44 H2         52.0360   37.2290   48.7590 H         1 ATP         0.0000 
     45 H45        52.7492   39.2376   47.7344 H         1 ATP         0.0000 
     46 H46        49.3328   42.5801   50.0600 H         1 ATP         0.0000 
@<TRIPOS>BOND
     1    1    2 2    
     2    1    3 1    
     3    1    4 1    
     4    1    8 1    
     5    4   32 1    
     6    5    6 2    
     7    5    7 1    
     8    5    8 1    
     9    5   12 1    
    10    9   10 2    
    11    9   11 1    
    12    9   12 1    
    13    9   13 1    
    14   11   33 1    
    15   13   14 1    
    16   14   15 1    
    17   14   34 1    
    18   14   35 1    
    19   15   16 1    
    20   15   17 1    
    21   15   36 1    
    22   16   21 1    
    23   17   18 1    
    24   17   19 1    
    25   17   37 1    
    26   18   38 1    
    27   19   20 1    
    28   19   21 1    
    29   19   39 1    
    30   20   40 1    
    31   21   22 1    
    32   21   41 1    
    33   22   23 ar   
    34   22   31 ar   
    35   23   24 ar   
    36   23   42 1    
    37   24   25 ar   
    38   24   46 1    
    39   25   26 ar   
    40   25   31 ar   
    41   26   27 2    
    42   26   28 ar   
    43   27   43 1    
    44   28   29 ar   
    45   28   45 1    
    46   29   30 ar   
    47   29   44 1    
    48   30   31 ar   
@<TRIPOS>SUBSTRUCTURE
     1 ATP         1 GROUP             0       ****    0 ROOT    
@<TRIPOS>MOLECULE
ATP
46   48    1
SMALL
USER_CHARGES


@<TRIPOS>ATOM
      1 PG         46.1070   45.1820   56.9500 P.3       1 ATP         0.0000 
      2 O1G        45.7790   46.3300   56.0520 O.co2     1 ATP         0.0000 
      3 O2G        47.3820   44.4970   56.6260 O.co2     1 ATP         0.0000 
      4 O3G        45.9720   45.5300   58.3750 O.3       1 ATP         0.0000 
      5 PB         43.9110   43.7400   55.6550 P.3       1 ATP         0.0000 
      6 O1B        42.9750   42.7220   55.9860 O.co2     1 ATP         0.0000 
      7 O2B        43.6030   44.7670   54.6780 O.co2     1 ATP         0.0000 
      8 O3B        45.0410   44.0150   56.7380 O.3       1 ATP         0.0000 
      9 PA         45.2280   42.6690   53.2570 P.3       1 ATP         0.0000 
     10 O1A        46.3800   43.3960   52.7880 O.2       1 ATP         0.0000 
     11 O2A        44.1830   42.1900   52.3510 O.3       1 ATP         0.0000 
     12 O3A        44.9170   42.7160   54.7890 O.3       1 ATP         0.0000 
     13 O5'        46.1720   41.5680   53.3020 O.3       1 ATP         0.0000 
     14 C5'        46.6090   40.4220   53.5420 C.3       1 ATP         0.0000 
     15 C4'        46.5200   38.9890   53.3640 C.3       1 ATP         0.0000 
     16 O4'        46.7850   38.9080   51.9480 O.3       1 ATP         0.0000 
     17 C3'        47.8080   38.8740   54.1120 C.3       1 ATP         0.0000 
     18 O3'        47.7130   38.3570   55.4230 O.3       1 ATP         0.0000 
     19 C2'        48.7190   38.1160   53.1390 C.3       1 ATP         0.0000 
     20 O2'        48.6320   36.7370   53.4250 O.3       1 ATP         0.0000 
     21 C1'        48.1330   38.4090   51.7210 C.3       1 ATP         0.0000 
     22 N9         48.8460   39.4640   50.9860 N.pl3     1 ATP         0.0000 
     23 C8         48.6160   40.8420   50.9450 C.ar      1 ATP         0.0000 
     24 N7         49.4250   41.4890   50.1650 N.pl3     1 ATP         0.0000 
     25 C5         50.2320   40.4700   49.6640 C.ar      1 ATP         0.0000 
     26 C6         51.3080   40.4660   48.7310 C.ar      1 ATP         0.0000 
     27 N6         51.7210   41.5680   48.1290 N.2       1 ATP         0.0000 
     28 N1         51.9120   39.2740   48.4470 N.pl3     1 ATP         0.0000 
     29 C2         51.4930   38.1510   49.0290 C.ar      1 ATP         0.0000 
     30 N3         50.4910   38.0160   49.9000 N.2       1 ATP         0.0000 
     31 C4         49.8920   39.2530   50.1710 C.ar      1 ATP         0.0000 
     32 HOG3       46.5992   46.3224   58.8095 H         1 ATP         0.0000 
     33 HOA2       43.3173   42.8293   52.1230 H         1 ATP         0.0000 
     34 H5'1       47.6492   40.3457   53.1926 H         1 ATP         0.0000 
     35 H5'2       46.5714   40.2346   54.6253 H         1 ATP         0.0000 
     36 H4'        45.6654   38.3452   53.6190 H         1 ATP         0.0000 
     37 H3'        48.2020   39.8423   54.4542 H         1 ATP         0.0000 
     38 HO3'       47.0751   38.8571   56.1666 H         1 ATP         0.0000 
     39 H2'        49.7910   38.3380   53.2466 H         1 ATP         0.0000 
     40 HO2'       49.0003   36.3505   54.3868 H         1 ATP         0.0000 
     41 H1'        48.1676   37.5175   51.0776 H         1 ATP         0.0000 
     42 H8         47.8360   41.3900   51.4990 H         1 ATP         0.0000 
     43 HN61       52.4910   41.5650   47.4600 H         1 ATP         0.0000 
     44 H2         52.0360   37.2290   48.7590 H         1 ATP         0.0000 
     45 H45        52.7492   39.2376   47.7344 H         1 ATP         0.0000 
     46 H46        49.3328   42.5801   50.0600 H         1 ATP         0.0000 
@<TRIPOS>BOND
     1    1    2 2    
     2    1    3 1    
     3    1    4 1    
     4    1    8 1    
     5    4   32 1    
     6    5    6 2    
     7    5    7 1    
     8    5    8 1    
     9    5   12 1    
    10    9   10 2    
    11    9   11 1    
    12    9   12 1    
    13    9   13 1    
    14   11   33 1    
    15   13   14 1    
    16   14   15 1    
    17   14   34 1    
    18   14   35 1    
    19   15   16 1    
    20   15   17 1    
    21   15   36 1    
    22   16   21 1    
    23   17   18 1    
    24   17   19 1    
    25   17   37 1    
    26   18   38 1    
    27   19   20 1    
    28   19   21 1    
    29   19   39 1    
    30   20   40 1    
    31   21   22 1    
    32   21   41 1    
    33   22   23 ar   
    34   22   31 ar   
    35   23   24 ar   
    36   23   42 1    
    37   24   25 ar   
    38   24   46 1    
    39   25   26 ar   
    40   25   31 ar   
    41   26   27 2    
    42   26   28 ar   
    43   27   43 1    
    44   28   29 ar   
    45   28   45 1    
    46   29   30 ar   
    47   29   44 1    
    48   30   31 ar   
@<TRIPOS>SUBSTRUCTURE
     1 ATP         1 GROUP             0       ****    0 ROOT    
@<TRIPOS>MOLECULE
ATP
45   47    1
SMALL
USER_CHARGES


@<TRIPOS>ATOM
      1 PG         46.1070   45.1820   56.9500 P.3       1 ATP         0.0000 
      2 O1G        45.7790   46.3300   56.0520 O.co2     1 ATP         0.0000 
      3 O2G        47.3820   44.4970   56.6260 O.co2     1 ATP         0.0000 
      4 O3G        45.9720   45.5300   58.3750 O.3       1 ATP         0.0000 
      5 PB         43.9110   43.7400   55.6550 P.3       1 ATP         0.0000 
      6 O1B        42.9750   42.7220   55.9860 O.co2     1 ATP         0.0000 
      7 O2B        43.6030   44.7670   54.6780 O.co2     1 ATP         0.0000 
      8 O3B        45.0410   44.0150   56.7380 O.3       1 ATP         0.0000 
      9 PA         45.2280   42.6690   53.2570 P.3       1 ATP         0.0000 
     10 O1A        46.3800   43.3960   52.7880 O.2       1 ATP         0.0000 
     11 O2A        44.1830   42.1900   52.3510 O.3       1 ATP         0.0000 
     12 O3A        44.9170   42.7160   54.7890 O.3       1 ATP         0.0000 
     13 O5'        46.1720   41.5680   53.3020 O.3       1 ATP         0.0000 
     14 C5'        46.6090   40.4220   53.5420 C.3       1 ATP         0.0000 
     15 C4'        46.5200   38.9890   53.3640 C.3       1 ATP         0.0000 
     16 O4'        46.7850   38.9080   51.9480 O.3       1 ATP         0.0000 
     17 C3'        47.8080   38.8740   54.1120 C.3       1 ATP         0.0000 
     18 O3'        47.7130   38.3570   55.4230 O.3       1 ATP         0.0000 
     19 C2'        48.7190   38.1160   53.1390 C.3       1 ATP         0.0000 
     20 O2'        48.6320   36.7370   53.4250 O.3       1 ATP         0.0000 
     21 C1'        48.1330   38.4090   51.7210 C.3       1 ATP         0.0000 
     22 N9         48.8460   39.4640   50.9860 N.pl3     1 ATP         0.0000 
     23 C8         48.6160   40.8420   50.9450 C.ar      1 ATP         0.0000 
     24 N7         49.4250   41.4890   50.1650 N.2       1 ATP         0.0000 
     25 C5         50.2320   40.4700   49.6640 C.ar      1 ATP         0.0000 
     26 C6         51.3080   40.4660   48.7310 C.ar      1 ATP         0.0000 
     27 N6         51.7210   41.5680   48.1290 N.2       1 ATP         0.0000 
     28 N1         51.9120   39.2740   48.4470 N.pl3     1 ATP         0.0000 
     29 C2         51.4930   38.1510   49.0290 C.ar      1 ATP         0.0000 
     30 N3         50.4910   38.0160   49.9000 N.2       1 ATP         0.0000 
     31 C4         49.8920   39.2530   50.1710 C.ar      1 ATP         0.0000 
     32 HOG3       46.5992   46.3224   58.8095 H         1 ATP         0.0000 
     33 HOA2       43.3173   42.8293   52.1230 H         1 ATP         0.0000 
     34 H5'1       47.6492   40.3457   53.1926 H         1 ATP         0.0000 
     35 H5'2       46.5714   40.2346   54.6253 H         1 ATP         0.0000 
     36 H4'        45.6654   38.3452   53.6190 H         1 ATP         0.0000 
     37 H3'        48.2020   39.8423   54.4542 H         1 ATP         0.0000 
     38 HO3'       47.0751   38.8571   56.1666 H         1 ATP         0.0000 
     39 H2'        49.7910   38.3380   53.2466 H         1 ATP         0.0000 
     40 HO2'       49.0003   36.3505   54.3868 H         1 ATP         0.0000 
     41 H1'        48.1676   37.5175   51.0776 H         1 ATP         0.0000 
     42 H8         47.8360   41.3900   51.4990 H         1 ATP         0.0000 
     43 HN62       51.9400   42.2520   48.8520 H         1 ATP         0.0000 
     44 H2         52.0360   37.2290   48.7590 H         1 ATP         0.0000 
     45 H45        52.7492   39.2376   47.7344 H         1 ATP         0.0000 
@<TRIPOS>BOND
     1    1    2 2    
     2    1    3 1    
     3    1    4 1    
     4    1    8 1    
     5    4   32 1    
     6    5    6 2    
     7    5    7 1    
     8    5    8 1    
     9    5   12 1    
    10    9   10 2    
    11    9   11 1    
    12    9   12 1    
    13    9   13 1    
    14   11   33 1    
    15   13   14 1    
    16   14   15 1    
    17   14   34 1    
    18   14   35 1    
    19   15   16 1    
    20   15   17 1    
    21   15   36 1    
    22   16   21 1    
    23   17   18 1    
    24   17   19 1    
    25   17   37 1    
    26   18   38 1    
    27   19   20 1    
    28   19   21 1    
    29   19   39 1    
    30   20   40 1    
    31   21   22 1    
    32   21   41 1    
    33   22   23 ar   
    34   22   31 ar   
    35   23   24 ar   
    36   23   42 1    
    37   24   25 ar   
    38   25   26 ar   
    39   25   31 ar   
    40   26   27 2    
    41   26   28 ar   
    42   27   43 1    
    43   28   29 ar   
    44   28   45 1    
    45   29   30 ar   
    46   29   44 1    
    47   30   31 ar   
@<TRIPOS>SUBSTRUCTURE
     1 ATP         1 GROUP             0       ****    0 ROOT    
@<TRIPOS>MOLECULE
ATP
45   47    1
SMALL
USER_CHARGES


@<TRIPOS>ATOM
      1 PG         46.1070   45.1820   56.9500 P.3       1 ATP         0.0000 
      2 O1G        45.7790   46.3300   56.0520 O.co2     1 ATP         0.0000 
      3 O2G        47.3820   44.4970   56.6260 O.co2     1 ATP         0.0000 
      4 O3G        45.9720   45.5300   58.3750 O.3       1 ATP         0.0000 
      5 PB         43.9110   43.7400   55.6550 P.3       1 ATP         0.0000 
      6 O1B        42.9750   42.7220   55.9860 O.co2     1 ATP         0.0000 
      7 O2B        43.6030   44.7670   54.6780 O.co2     1 ATP         0.0000 
      8 O3B        45.0410   44.0150   56.7380 O.3       1 ATP         0.0000 
      9 PA         45.2280   42.6690   53.2570 P.3       1 ATP         0.0000 
     10 O1A        46.3800   43.3960   52.7880 O.2       1 ATP         0.0000 
     11 O2A        44.1830   42.1900   52.3510 O.3       1 ATP         0.0000 
     12 O3A        44.9170   42.7160   54.7890 O.3       1 ATP         0.0000 
     13 O5'        46.1720   41.5680   53.3020 O.3       1 ATP         0.0000 
     14 C5'        46.6090   40.4220   53.5420 C.3       1 ATP         0.0000 
     15 C4'        46.5200   38.9890   53.3640 C.3       1 ATP         0.0000 
     16 O4'        46.7850   38.9080   51.9480 O.3       1 ATP         0.0000 
     17 C3'        47.8080   38.8740   54.1120 C.3       1 ATP         0.0000 
     18 O3'        47.7130   38.3570   55.4230 O.3       1 ATP         0.0000 
     19 C2'        48.7190   38.1160   53.1390 C.3       1 ATP         0.0000 
     20 O2'        48.6320   36.7370   53.4250 O.3       1 ATP         0.0000 
     21 C1'        48.1330   38.4090   51.7210 C.3       1 ATP         0.0000 
     22 N9         48.8460   39.4640   50.9860 N.pl3     1 ATP         0.0000 
     23 C8         48.6160   40.8420   50.9450 C.ar      1 ATP         0.0000 
     24 N7         49.4250   41.4890   50.1650 N.2       1 ATP         0.0000 
     25 C5         50.2320   40.4700   49.6640 C.ar      1 ATP         0.0000 
     26 C6         51.3080   40.4660   48.7310 C.ar      1 ATP         0.0000 
     27 N6         51.7210   41.5680   48.1290 N.2       1 ATP         0.0000 
     28 N1         51.9120   39.2740   48.4470 N.pl3     1 ATP         0.0000 
     29 C2         51.4930   38.1510   49.0290 C.ar      1 ATP         0.0000 
     30 N3         50.4910   38.0160   49.9000 N.2       1 ATP         0.0000 
     31 C4         49.8920   39.2530   50.1710 C.ar      1 ATP         0.0000 
     32 HOG3       46.5992   46.3224   58.8095 H         1 ATP         0.0000 
     33 HOA2       43.3173   42.8293   52.1230 H         1 ATP         0.0000 
     34 H5'1       47.6492   40.3457   53.1926 H         1 ATP         0.0000 
     35 H5'2       46.5714   40.2346   54.6253 H         1 ATP         0.0000 
     36 H4'        45.6654   38.3452   53.6190 H         1 ATP         0.0000 
     37 H3'        48.2020   39.8423   54.4542 H         1 ATP         0.0000 
     38 HO3'       47.0751   38.8571   56.1666 H         1 ATP         0.0000 
     39 H2'        49.7910   38.3380   53.2466 H         1 ATP         0.0000 
     40 HO2'       49.0003   36.3505   54.3868 H         1 ATP         0.0000 
     41 H1'        48.1676   37.5175   51.0776 H         1 ATP         0.0000 
     42 H8         47.8360   41.3900   51.4990 H         1 ATP         0.0000 
     43 HN61       52.4910   41.5650   47.4600 H         1 ATP         0.0000 
     44 H2         52.0360   37.2290   48.7590 H         1 ATP         0.0000 
     45 H45        52.7492   39.2376   47.7344 H         1 ATP         0.0000 
@<TRIPOS>BOND
     1    1    2 2    
     2    1    3 1    
     3    1    4 1    
     4    1    8 1    
     5    4   32 1    
     6    5    6 2    
     7    5    7 1    
     8    5    8 1    
     9    5   12 1    
    10    9   10 2    
    11    9   11 1    
    12    9   12 1    
    13    9   13 1    
    14   11   33 1    
    15   13   14 1    
    16   14   15 1    
    17   14   34 1    
    18   14   35 1    
    19   15   16 1    
    20   15   17 1    
    21   15   36 1    
    22   16   21 1    
    23   17   18 1    
    24   17   19 1    
    25   17   37 1    
    26   18   38 1    
    27   19   20 1    
    28   19   21 1    
    29   19   39 1    
    30   20   40 1    
    31   21   22 1    
    32   21   41 1    
    33   22   23 ar   
    34   22   31 ar   
    35   23   24 ar   
    36   23   42 1    
    37   24   25 ar   
    38   25   26 ar   
    39   25   31 ar   
    40   26   27 2    
    41   26   28 ar   
    42   27   43 1    
    43   28   29 ar   
    44   28   45 1    
    45   29   30 ar   
    46   29   44 1    
    47   30   31 ar   
@<TRIPOS>SUBSTRUCTURE
     1 ATP         1 GROUP             0       ****    0 ROOT    
@<TRIPOS>MOLECULE
ATP
46   48    1
SMALL
USER_CHARGES


@<TRIPOS>ATOM
      1 PG         46.1070   45.1820   56.9500 P.3       1 ATP         0.0000 
      2 O1G        45.7790   46.3300   56.0520 O.co2     1 ATP         0.0000 
      3 O2G        47.3820   44.4970   56.6260 O.co2     1 ATP         0.0000 
      4 O3G        45.9720   45.5300   58.3750 O.co2     1 ATP         0.0000 
      5 PB         43.9110   43.7400   55.6550 P.3       1 ATP         0.0000 
      6 O1B        42.9750   42.7220   55.9860 O.2       1 ATP         0.0000 
      7 O2B        43.6030   44.7670   54.6780 O.3       1 ATP         0.0000 
      8 O3B        45.0410   44.0150   56.7380 O.3       1 ATP         0.0000 
      9 PA         45.2280   42.6690   53.2570 P.3       1 ATP         0.0000 
     10 O1A        46.3800   43.3960   52.7880 O.2       1 ATP         0.0000 
     11 O2A        44.1830   42.1900   52.3510 O.3       1 ATP         0.0000 
     12 O3A        44.9170   42.7160   54.7890 O.3       1 ATP         0.0000 
     13 O5'        46.1720   41.5680   53.3020 O.3       1 ATP         0.0000 
     14 C5'        46.6090   40.4220   53.5420 C.3       1 ATP         0.0000 
     15 C4'        46.5200   38.9890   53.3640 C.3       1 ATP         0.0000 
     16 O4'        46.7850   38.9080   51.9480 O.3       1 ATP         0.0000 
     17 C3'        47.8080   38.8740   54.1120 C.3       1 ATP         0.0000 
     18 O3'        47.7130   38.3570   55.4230 O.3       1 ATP         0.0000 
     19 C2'        48.7190   38.1160   53.1390 C.3       1 ATP         0.0000 
     20 O2'        48.6320   36.7370   53.4250 O.3       1 ATP         0.0000 
     21 C1'        48.1330   38.4090   51.7210 C.3       1 ATP         0.0000 
     22 N9         48.8460   39.4640   50.9860 N.pl3     1 ATP         0.0000 
     23 C8         48.6160   40.8420   50.9450 C.ar      1 ATP         0.0000 
     24 N7         49.4250   41.4890   50.1650 N.2       1 ATP         0.0000 
     25 C5         50.2320   40.4700   49.6640 C.ar      1 ATP         0.0000 
     26 C6         51.3080   40.4660   48.7310 C.ar      1 ATP         0.0000 
     27 N6         51.7210   41.5680   48.1290 N.pl3     1 ATP         0.0000 
     28 N1         51.9120   39.2740   48.4470 N.pl3     1 ATP         0.0000 
     29 C2         51.4930   38.1510   49.0290 C.ar      1 ATP         0.0000 
     30 N3         50.4910   38.0160   49.9000 N.ar      1 ATP         0.0000 
     31 C4         49.8920   39.2530   50.1710 C.ar      1 ATP         0.0000 
     32 HOB2       42.9452   45.6055   54.9502 H         1 ATP         0.0000 
     33 HOA2       43.3173   42.8293   52.1230 H         1 ATP         0.0000 
     34 H5'1       47.6492   40.3457   53.1926 H         1 ATP         0.0000 
     35 H5'2       46.5714   40.2346   54.6253 H         1 ATP         0.0000 
     36 H4'        45.6654   38.3452   53.6190 H         1 ATP         0.0000 
     37 H3'        48.2020   39.8423   54.4542 H         1 ATP         0.0000 
     38 HO3'       47.0751   38.8571   56.1666 H         1 ATP         0.0000 
     39 H2'        49.7910   38.3380   53.2466 H         1 ATP         0.0000 
     40 HO2'       49.0003   36.3505   54.3868 H         1 ATP         0.0000 
     41 H1'        48.1676   37.5175   51.0776 H         1 ATP         0.0000 
     42 H8         47.8360   41.3900   51.4990 H         1 ATP         0.0000 
     43 HN61       51.2389   42.5309   48.3533 H         1 ATP         0.0000 
     44 HN62       52.5468   41.5221   47.4038 H         1 ATP         0.0000 
     45 H2         52.0360   37.2290   48.7590 H         1 ATP         0.0000 
     46 H46        52.7492   39.2376   47.7344 H         1 ATP         0.0000 
@<TRIPOS>BOND
     1    1    2 2    
     2    1    3 1    
     3    1    4 1    
     4    1    8 1    
     5    5    6 2    
     6    5    7 1    
     7    5    8 1    
     8    5   12 1    
     9    7   32 1    
    10    9   10 2    
    11    9   11 1    
    12    9   12 1    
    13    9   13 1    
    14   11   33 1    
    15   13   14 1    
    16   14   15 1    
    17   14   34 1    
    18   14   35 1    
    19   15   16 1    
    20   15   17 1    
    21   15   36 1    
    22   16   21 1    
    23   17   18 1    
    24   17   19 1    
    25   17   37 1    
    26   18   38 1    
    27   19   20 1    
    28   19   21 1    
    29   19   39 1    
    30   20   40 1    
    31   21   22 1    
    32   21   41 1    
    33   22   23 ar   
    34   22   31 ar   
    35   23   24 ar   
    36   23   42 1    
    37   24   25 ar   
    38   25   26 ar   
    39   25   31 ar   
    40   26   27 1    
    41   26   28 ar   
    42   27   43 1    
    43   27   44 1    
    44   28   29 ar   
    45   28   46 1    
    46   29   30 ar   
    47   29   45 1    
    48   30   31 ar   
@<TRIPOS>SUBSTRUCTURE
     1 ATP         1 GROUP             0       ****    0 ROOT    
@<TRIPOS>MOLECULE
ATP
46   48    1
SMALL
USER_CHARGES


@<TRIPOS>ATOM
      1 PG         46.1070   45.1820   56.9500 P.3       1 ATP         0.0000 
      2 O1G        45.7790   46.3300   56.0520 O.co2     1 ATP         0.0000 
      3 O2G        47.3820   44.4970   56.6260 O.co2     1 ATP         0.0000 
      4 O3G        45.9720   45.5300   58.3750 O.3       1 ATP         0.0000 
      5 PB         43.9110   43.7400   55.6550 P.3       1 ATP         0.0000 
      6 O1B        42.9750   42.7220   55.9860 O.2       1 ATP         0.0000 
      7 O2B        43.6030   44.7670   54.6780 O.3       1 ATP         0.0000 
      8 O3B        45.0410   44.0150   56.7380 O.3       1 ATP         0.0000 
      9 PA         45.2280   42.6690   53.2570 P.3       1 ATP         0.0000 
     10 O1A        46.3800   43.3960   52.7880 O.co2     1 ATP         0.0000 
     11 O2A        44.1830   42.1900   52.3510 O.co2     1 ATP         0.0000 
     12 O3A        44.9170   42.7160   54.7890 O.3       1 ATP         0.0000 
     13 O5'        46.1720   41.5680   53.3020 O.3       1 ATP         0.0000 
     14 C5'        46.6090   40.4220   53.5420 C.3       1 ATP         0.0000 
     15 C4'        46.5200   38.9890   53.3640 C.3       1 ATP         0.0000 
     16 O4'        46.7850   38.9080   51.9480 O.3       1 ATP         0.0000 
     17 C3'        47.8080   38.8740   54.1120 C.3       1 ATP         0.0000 
     18 O3'        47.7130   38.3570   55.4230 O.3       1 ATP         0.0000 
     19 C2'        48.7190   38.1160   53.1390 C.3       1 ATP         0.0000 
     20 O2'        48.6320   36.7370   53.4250 O.3       1 ATP         0.0000 
     21 C1'        48.1330   38.4090   51.7210 C.3       1 ATP         0.0000 
     22 N9         48.8460   39.4640   50.9860 N.pl3     1 ATP         0.0000 
     23 C8         48.6160   40.8420   50.9450 C.ar      1 ATP         0.0000 
     24 N7         49.4250   41.4890   50.1650 N.pl3     1 ATP         0.0000 
     25 C5         50.2320   40.4700   49.6640 C.ar      1 ATP         0.0000 
     26 C6         51.3080   40.4660   48.7310 C.ar      1 ATP         0.0000 
     27 N6         51.7210   41.5680   48.1290 N.2       1 ATP         0.0000 
     28 N1         51.9120   39.2740   48.4470 N.pl3     1 ATP         0.0000 
     29 C2         51.4930   38.1510   49.0290 C.ar      1 ATP         0.0000 
     30 N3         50.4910   38.0160   49.9000 N.2       1 ATP         0.0000 
     31 C4         49.8920   39.2530   50.1710 C.ar      1 ATP         0.0000 
     32 HOG3       46.5992   46.3224   58.8095 H         1 ATP         0.0000 
     33 HOB2       42.9452   45.6055   54.9502 H         1 ATP         0.0000 
     34 H5'1       47.6492   40.3457   53.1926 H         1 ATP         0.0000 
     35 H5'2       46.5714   40.2346   54.6253 H         1 ATP         0.0000 
     36 H4'        45.6654   38.3452   53.6190 H         1 ATP         0.0000 
     37 H3'        48.2020   39.8423   54.4542 H         1 ATP         0.0000 
     38 HO3'       47.0751   38.8571   56.1666 H         1 ATP         0.0000 
     39 H2'        49.7910   38.3380   53.2466 H         1 ATP         0.0000 
     40 HO2'       49.0003   36.3505   54.3868 H         1 ATP         0.0000 
     41 H1'        48.1676   37.5175   51.0776 H         1 ATP         0.0000 
     42 H8         47.8360   41.3900   51.4990 H         1 ATP         0.0000 
     43 HN62       51.9400   42.2520   48.8520 H         1 ATP         0.0000 
     44 H2         52.0360   37.2290   48.7590 H         1 ATP         0.0000 
     45 H45        52.7492   39.2376   47.7344 H         1 ATP         0.0000 
     46 H46        49.3328   42.5801   50.0600 H         1 ATP         0.0000 
@<TRIPOS>BOND
     1    1    2 2    
     2    1    3 1    
     3    1    4 1    
     4    1    8 1    
     5    4   32 1    
     6    5    6 2    
     7    5    7 1    
     8    5    8 1    
     9    5   12 1    
    10    7   33 1    
    11    9   10 2    
    12    9   11 1    
    13    9   12 1    
    14    9   13 1    
    15   13   14 1    
    16   14   15 1    
    17   14   34 1    
    18   14   35 1    
    19   15   16 1    
    20   15   17 1    
    21   15   36 1    
    22   16   21 1    
    23   17   18 1    
    24   17   19 1    
    25   17   37 1    
    26   18   38 1    
    27   19   20 1    
    28   19   21 1    
    29   19   39 1    
    30   20   40 1    
    31   21   22 1    
    32   21   41 1    
    33   22   23 ar   
    34   22   31 ar   
    35   23   24 ar   
    36   23   42 1    
    37   24   25 ar   
    38   24   46 1    
    39   25   26 ar   
    40   25   31 ar   
    41   26   27 2    
    42   26   28 ar   
    43   27   43 1    
    44   28   29 ar   
    45   28   45 1    
    46   29   30 ar   
    47   29   44 1    
    48   30   31 ar   
@<TRIPOS>SUBSTRUCTURE
     1 ATP         1 GROUP             0       ****    0 ROOT    
@<TRIPOS>MOLECULE
ATP
46   48    1
SMALL
USER_CHARGES


@<TRIPOS>ATOM
      1 PG         46.1070   45.1820   56.9500 P.3       1 ATP         0.0000 
      2 O1G        45.7790   46.3300   56.0520 O.co2     1 ATP         0.0000 
      3 O2G        47.3820   44.4970   56.6260 O.co2     1 ATP         0.0000 
      4 O3G        45.9720   45.5300   58.3750 O.3       1 ATP         0.0000 
      5 PB         43.9110   43.7400   55.6550 P.3       1 ATP         0.0000 
      6 O1B        42.9750   42.7220   55.9860 O.2       1 ATP         0.0000 
      7 O2B        43.6030   44.7670   54.6780 O.3       1 ATP         0.0000 
      8 O3B        45.0410   44.0150   56.7380 O.3       1 ATP         0.0000 
      9 PA         45.2280   42.6690   53.2570 P.3       1 ATP         0.0000 
     10 O1A        46.3800   43.3960   52.7880 O.co2     1 ATP         0.0000 
     11 O2A        44.1830   42.1900   52.3510 O.co2     1 ATP         0.0000 
     12 O3A        44.9170   42.7160   54.7890 O.3       1 ATP         0.0000 
     13 O5'        46.1720   41.5680   53.3020 O.3       1 ATP         0.0000 
     14 C5'        46.6090   40.4220   53.5420 C.3       1 ATP         0.0000 
     15 C4'        46.5200   38.9890   53.3640 C.3       1 ATP         0.0000 
     16 O4'        46.7850   38.9080   51.9480 O.3       1 ATP         0.0000 
     17 C3'        47.8080   38.8740   54.1120 C.3       1 ATP         0.0000 
     18 O3'        47.7130   38.3570   55.4230 O.3       1 ATP         0.0000 
     19 C2'        48.7190   38.1160   53.1390 C.3       1 ATP         0.0000 
     20 O2'        48.6320   36.7370   53.4250 O.3       1 ATP         0.0000 
     21 C1'        48.1330   38.4090   51.7210 C.3       1 ATP         0.0000 
     22 N9         48.8460   39.4640   50.9860 N.pl3     1 ATP         0.0000 
     23 C8         48.6160   40.8420   50.9450 C.ar      1 ATP         0.0000 
     24 N7         49.4250   41.4890   50.1650 N.pl3     1 ATP         0.0000 
     25 C5         50.2320   40.4700   49.6640 C.ar      1 ATP         0.0000 
     26 C6         51.3080   40.4660   48.7310 C.ar      1 ATP         0.0000 
     27 N6         51.7210   41.5680   48.1290 N.2       1 ATP         0.0000 
     28 N1         51.9120   39.2740   48.4470 N.pl3     1 ATP         0.0000 
     29 C2         51.4930   38.1510   49.0290 C.ar      1 ATP         0.0000 
     30 N3         50.4910   38.0160   49.9000 N.2       1 ATP         0.0000 
     31 C4         49.8920   39.2530   50.1710 C.ar      1 ATP         0.0000 
     32 HOG3       46.5992   46.3224   58.8095 H         1 ATP         0.0000 
     33 HOB2       42.9452   45.6055   54.9502 H         1 ATP         0.0000 
     34 H5'1       47.6492   40.3457   53.1926 H         1 ATP         0.0000 
     35 H5'2       46.5714   40.2346   54.6253 H         1 ATP         0.0000 
     36 H4'        45.6654   38.3452   53.6190 H         1 ATP         0.0000 
     37 H3'        48.2020   39.8423   54.4542 H         1 ATP         0.0000 
     38 HO3'       47.0751   38.8571   56.1666 H         1 ATP         0.0000 
     39 H2'        49.7910   38.3380   53.2466 H         1 ATP         0.0000 
     40 HO2'       49.0003   36.3505   54.3868 H         1 ATP         0.0000 
     41 H1'        48.1676   37.5175   51.0776 H         1 ATP         0.0000 
     42 H8         47.8360   41.3900   51.4990 H         1 ATP         0.0000 
     43 HN61       52.4910   41.5650   47.4600 H         1 ATP         0.0000 
     44 H2         52.0360   37.2290   48.7590 H         1 ATP         0.0000 
     45 H45        52.7492   39.2376   47.7344 H         1 ATP         0.0000 
     46 H46        49.3328   42.5801   50.0600 H         1 ATP         0.0000 
@<TRIPOS>BOND
     1    1    2 2    
     2    1    3 1    
     3    1    4 1    
     4    1    8 1    
     5    4   32 1    
     6    5    6 2    
     7    5    7 1    
     8    5    8 1    
     9    5   12 1    
    10    7   33 1    
    11    9   10 2    
    12    9   11 1    
    13    9   12 1    
    14    9   13 1    
    15   13   14 1    
    16   14   15 1    
    17   14   34 1    
    18   14   35 1    
    19   15   16 1    
    20   15   17 1    
    21   15   36 1    
    22   16   21 1    
    23   17   18 1    
    24   17   19 1    
    25   17   37 1    
    26   18   38 1    
    27   19   20 1    
    28   19   21 1    
    29   19   39 1    
    30   20   40 1    
    31   21   22 1    
    32   21   41 1    
    33   22   23 ar   
    34   22   31 ar   
    35   23   24 ar   
    36   23   42 1    
    37   24   25 ar   
    38   24   46 1    
    39   25   26 ar   
    40   25   31 ar   
    41   26   27 2    
    42   26   28 ar   
    43   27   43 1    
    44   28   29 ar   
    45   28   45 1    
    46   29   30 ar   
    47   29   44 1    
    48   30   31 ar   
@<TRIPOS>SUBSTRUCTURE
     1 ATP         1 GROUP             0       ****    0 ROOT    
@<TRIPOS>MOLECULE
ATP
45   47    1
SMALL
USER_CHARGES


@<TRIPOS>ATOM
      1 PG         46.1070   45.1820   56.9500 P.3       1 ATP         0.0000 
      2 O1G        45.7790   46.3300   56.0520 O.co2     1 ATP         0.0000 
      3 O2G        47.3820   44.4970   56.6260 O.co2     1 ATP         0.0000 
      4 O3G        45.9720   45.5300   58.3750 O.3       1 ATP         0.0000 
      5 PB         43.9110   43.7400   55.6550 P.3       1 ATP         0.0000 
      6 O1B        42.9750   42.7220   55.9860 O.2       1 ATP         0.0000 
      7 O2B        43.6030   44.7670   54.6780 O.3       1 ATP         0.0000 
      8 O3B        45.0410   44.0150   56.7380 O.3       1 ATP         0.0000 
      9 PA         45.2280   42.6690   53.2570 P.3       1 ATP         0.0000 
     10 O1A        46.3800   43.3960   52.7880 O.co2     1 ATP         0.0000 
     11 O2A        44.1830   42.1900   52.3510 O.co2     1 ATP         0.0000 
     12 O3A        44.9170   42.7160   54.7890 O.3       1 ATP         0.0000 
     13 O5'        46.1720   41.5680   53.3020 O.3       1 ATP         0.0000 
     14 C5'        46.6090   40.4220   53.5420 C.3       1 ATP         0.0000 
     15 C4'        46.5200   38.9890   53.3640 C.3       1 ATP         0.0000 
     16 O4'        46.7850   38.9080   51.9480 O.3       1 ATP         0.0000 
     17 C3'        47.8080   38.8740   54.1120 C.3       1 ATP         0.0000 
     18 O3'        47.7130   38.3570   55.4230 O.3       1 ATP         0.0000 
     19 C2'        48.7190   38.1160   53.1390 C.3       1 ATP         0.0000 
     20 O2'        48.6320   36.7370   53.4250 O.3       1 ATP         0.0000 
     21 C1'        48.1330   38.4090   51.7210 C.3       1 ATP         0.0000 
     22 N9         48.8460   39.4640   50.9860 N.pl3     1 ATP         0.0000 
     23 C8         48.6160   40.8420   50.9450 C.ar      1 ATP         0.0000 
     24 N7         49.4250   41.4890   50.1650 N.2       1 ATP         0.0000 
     25 C5         50.2320   40.4700   49.6640 C.ar      1 ATP         0.0000 
     26 C6         51.3080   40.4660   48.7310 C.ar      1 ATP         0.0000 
     27 N6         51.7210   41.5680   48.1290 N.2       1 ATP         0.0000 
     28 N1         51.9120   39.2740   48.4470 N.pl3     1 ATP         0.0000 
     29 C2         51.4930   38.1510   49.0290 C.ar      1 ATP         0.0000 
     30 N3         50.4910   38.0160   49.9000 N.2       1 ATP         0.0000 
     31 C4         49.8920   39.2530   50.1710 C.ar      1 ATP         0.0000 
     32 HOG3       46.5992   46.3224   58.8095 H         1 ATP         0.0000 
     33 HOB2       42.9452   45.6055   54.9502 H         1 ATP         0.0000 
     34 H5'1       47.6492   40.3457   53.1926 H         1 ATP         0.0000 
     35 H5'2       46.5714   40.2346   54.6253 H         1 ATP         0.0000 
     36 H4'        45.6654   38.3452   53.6190 H         1 ATP         0.0000 
     37 H3'        48.2020   39.8423   54.4542 H         1 ATP         0.0000 
     38 HO3'       47.0751   38.8571   56.1666 H         1 ATP         0.0000 
     39 H2'        49.7910   38.3380   53.2466 H         1 ATP         0.0000 
     40 HO2'       49.0003   36.3505   54.3868 H         1 ATP         0.0000 
     41 H1'        48.1676   37.5175   51.0776 H         1 ATP         0.0000 
     42 H8         47.8360   41.3900   51.4990 H         1 ATP         0.0000 
     43 HN61       52.4910   41.5650   47.4600 H         1 ATP         0.0000 
     44 H2         52.0360   37.2290   48.7590 H         1 ATP         0.0000 
     45 H45        52.7492   39.2376   47.7344 H         1 ATP         0.0000 
@<TRIPOS>BOND
     1    1    2 2    
     2    1    3 1    
     3    1    4 1    
     4    1    8 1    
     5    4   32 1    
     6    5    6 2    
     7    5    7 1    
     8    5    8 1    
     9    5   12 1    
    10    7   33 1    
    11    9   10 2    
    12    9   11 1    
    13    9   12 1    
    14    9   13 1    
    15   13   14 1    
    16   14   15 1    
    17   14   34 1    
    18   14   35 1    
    19   15   16 1    
    20   15   17 1    
    21   15   36 1    
    22   16   21 1    
    23   17   18 1    
    24   17   19 1    
    25   17   37 1    
    26   18   38 1    
    27   19   20 1    
    28   19   21 1    
    29   19   39 1    
    30   20   40 1    
    31   21   22 1    
    32   21   41 1    
    33   22   23 ar   
    34   22   31 ar   
    35   23   24 ar   
    36   23   42 1    
    37   24   25 ar   
    38   25   26 ar   
    39   25   31 ar   
    40   26   27 2    
    41   26   28 ar   
    42   27   43 1    
    43   28   29 ar   
    44   28   45 1    
    45   29   30 ar   
    46   29   44 1    
    47   30   31 ar   
@<TRIPOS>SUBSTRUCTURE
     1 ATP         1 GROUP             0       ****    0 ROOT    
@<TRIPOS>MOLECULE
ATP
45   47    1
SMALL
USER_CHARGES


@<TRIPOS>ATOM
      1 PG         46.1070   45.1820   56.9500 P.3       1 ATP         0.0000 
      2 O1G        45.7790   46.3300   56.0520 O.co2     1 ATP         0.0000 
      3 O2G        47.3820   44.4970   56.6260 O.co2     1 ATP         0.0000 
      4 O3G        45.9720   45.5300   58.3750 O.3       1 ATP         0.0000 
      5 PB         43.9110   43.7400   55.6550 P.3       1 ATP         0.0000 
      6 O1B        42.9750   42.7220   55.9860 O.2       1 ATP         0.0000 
      7 O2B        43.6030   44.7670   54.6780 O.3       1 ATP         0.0000 
      8 O3B        45.0410   44.0150   56.7380 O.3       1 ATP         0.0000 
      9 PA         45.2280   42.6690   53.2570 P.3       1 ATP         0.0000 
     10 O1A        46.3800   43.3960   52.7880 O.co2     1 ATP         0.0000 
     11 O2A        44.1830   42.1900   52.3510 O.co2     1 ATP         0.0000 
     12 O3A        44.9170   42.7160   54.7890 O.3       1 ATP         0.0000 
     13 O5'        46.1720   41.5680   53.3020 O.3       1 ATP         0.0000 
     14 C5'        46.6090   40.4220   53.5420 C.3       1 ATP         0.0000 
     15 C4'        46.5200   38.9890   53.3640 C.3       1 ATP         0.0000 
     16 O4'        46.7850   38.9080   51.9480 O.3       1 ATP         0.0000 
     17 C3'        47.8080   38.8740   54.1120 C.3       1 ATP         0.0000 
     18 O3'        47.7130   38.3570   55.4230 O.3       1 ATP         0.0000 
     19 C2'        48.7190   38.1160   53.1390 C.3       1 ATP         0.0000 
     20 O2'        48.6320   36.7370   53.4250 O.3       1 ATP         0.0000 
     21 C1'        48.1330   38.4090   51.7210 C.3       1 ATP         0.0000 
     22 N9         48.8460   39.4640   50.9860 N.pl3     1 ATP         0.0000 
     23 C8         48.6160   40.8420   50.9450 C.ar      1 ATP         0.0000 
     24 N7         49.4250   41.4890   50.1650 N.2       1 ATP         0.0000 
     25 C5         50.2320   40.4700   49.6640 C.ar      1 ATP         0.0000 
     26 C6         51.3080   40.4660   48.7310 C.ar      1 ATP         0.0000 
     27 N6         51.7210   41.5680   48.1290 N.2       1 ATP         0.0000 
     28 N1         51.9120   39.2740   48.4470 N.pl3     1 ATP         0.0000 
     29 C2         51.4930   38.1510   49.0290 C.ar      1 ATP         0.0000 
     30 N3         50.4910   38.0160   49.9000 N.2       1 ATP         0.0000 
     31 C4         49.8920   39.2530   50.1710 C.ar      1 ATP         0.0000 
     32 HOG3       46.5992   46.3224   58.8095 H         1 ATP         0.0000 
     33 HOB2       42.9452   45.6055   54.9502 H         1 ATP         0.0000 
     34 H5'1       47.6492   40.3457   53.1926 H         1 ATP         0.0000 
     35 H5'2       46.5714   40.2346   54.6253 H         1 ATP         0.0000 
     36 H4'        45.6654   38.3452   53.6190 H         1 ATP         0.0000 
     37 H3'        48.2020   39.8423   54.4542 H         1 ATP         0.0000 
     38 HO3'       47.0751   38.8571   56.1666 H         1 ATP         0.0000 
     39 H2'        49.7910   38.3380   53.2466 H         1 ATP         0.0000 
     40 HO2'       49.0003   36.3505   54.3868 H         1 ATP         0.0000 
     41 H1'        48.1676   37.5175   51.0776 H         1 ATP         0.0000 
     42 H8         47.8360   41.3900   51.4990 H         1 ATP         0.0000 
     43 HN62       51.9400   42.2520   48.8520 H         1 ATP         0.0000 
     44 H2         52.0360   37.2290   48.7590 H         1 ATP         0.0000 
     45 H45        52.7492   39.2376   47.7344 H         1 ATP         0.0000 
@<TRIPOS>BOND
     1    1    2 2    
     2    1    3 1    
     3    1    4 1    
     4    1    8 1    
     5    4   32 1    
     6    5    6 2    
     7    5    7 1    
     8    5    8 1    
     9    5   12 1    
    10    7   33 1    
    11    9   10 2    
    12    9   11 1    
    13    9   12 1    
    14    9   13 1    
    15   13   14 1    
    16   14   15 1    
    17   14   34 1    
    18   14   35 1    
    19   15   16 1    
    20   15   17 1    
    21   15   36 1    
    22   16   21 1    
    23   17   18 1    
    24   17   19 1    
    25   17   37 1    
    26   18   38 1    
    27   19   20 1    
    28   19   21 1    
    29   19   39 1    
    30   20   40 1    
    31   21   22 1    
    32   21   41 1    
    33   22   23 ar   
    34   22   31 ar   
    35   23   24 ar   
    36   23   42 1    
    37   24   25 ar   
    38   25   26 ar   
    39   25   31 ar   
    40   26   27 2    
    41   26   28 ar   
    42   27   43 1    
    43   28   29 ar   
    44   28   45 1    
    45   29   30 ar   
    46   29   44 1    
    47   30   31 ar   
@<TRIPOS>SUBSTRUCTURE
     1 ATP         1 GROUP             0       ****    0 ROOT    
