@<TRIPOS>MOLECULE
MRD
   22    21     1     0     0
SMALL
NO_CHARGES

@<TRIPOS>ATOM
      1  C1        70.1350   52.9110    4.9690 C.3       1 MRD         0.0000
      2  C2        70.7450   51.5500    4.6750 C.3       1 MRD         0.0000
      3  O2        72.1420   51.7830    4.3360 O.3       1 MRD         0.0000
      4  CM        70.6310   50.5630    5.8370 C.3       1 MRD         0.0000
      5  C3        70.1310   50.8660    3.4450 C.3       1 MRD         0.0000
      6  C4        68.6390   50.7720    3.4670 C.3       1 MRD         0.0000
      7  O4        68.1130   49.8140    4.4270 O.3       1 MRD         0.0000
      8  C5        68.1560   50.2580    2.0960 C.3       1 MRD         0.0000
      9 H1C1       69.0380   52.8330    4.9520 H         1 MRD         0.0000
     10 H1C2       70.4630   53.2530    5.9620 H         1 MRD         0.0000
     11 H1C3       70.4630   53.6320    4.2060 H         1 MRD         0.0000
     12  H2        72.6040   50.9150    4.2240 H         1 MRD         0.0000
     13 HMC1       69.5700   50.3760    6.0570 H         1 MRD         0.0000
     14 HMC2       71.1210   49.6170    5.5640 H         1 MRD         0.0000
     15 HMC3       71.1210   50.9860    6.7270 H         1 MRD         0.0000
     16 H3C1       70.4260   51.4360    2.5520 H         1 MRD         0.0000
     17 H3C2       70.5090   49.8330    3.4410 H         1 MRD         0.0000
     18  H4        68.2880   51.7800    3.7320 H         1 MRD         0.0000
     19  HA        67.1230   49.8350    4.4060 H         1 MRD         0.0000
     20 H5C1       67.0560   50.2500    2.0740 H         1 MRD         0.0000
     21 H5C2       68.5340   50.9200    1.3030 H         1 MRD         0.0000
     22 H5C3       68.5340   49.2380    1.9340 H         1 MRD         0.0000
@<TRIPOS>BOND
     1    1    2 1
     2    1    9 1
     3    1   10 1
     4    1   11 1
     5    2    3 1
     6    2    4 1
     7    2    5 1
     8    3   12 1
     9    4   13 1
    10    4   14 1
    11    4   15 1
    12    5    6 1
    13    5   16 1
    14    5   17 1
    15    6    7 1
    16    6    8 1
    17    6   18 1
    18    7   19 1
    19    8   20 1
    20    8   21 1
    21    8   22 1
@<TRIPOS>SUBSTRUCTURE
     1 MRD         1 GROUP 0 A     ****
