MRD
                    3D
 Structure written by MMmdl.
 22 21  0  0  1  0            999 V2000
   70.1350   52.9110    4.9690 C   0  0  0  0  0  0
   70.7450   51.5500    4.6750 C   0  0  0  0  0  0
   72.1420   51.7830    4.3360 O   0  0  0  0  0  0
   70.6310   50.5630    5.8370 C   0  0  0  0  0  0
   70.1310   50.8660    3.4450 C   0  0  0  0  0  0
   68.6390   50.7720    3.4670 C   0  0  2  0  0  0
   68.1130   49.8140    4.4270 O   0  0  0  0  0  0
   68.1560   50.2580    2.0960 C   0  0  0  0  0  0
   70.6169   53.3446    5.8577 H   0  0  0  0  0  0
   69.0569   52.7971    5.1554 H   0  0  0  0  0  0
   70.2898   53.5762    4.1067 H   0  0  0  0  0  0
   72.8104   52.2691    5.0619 H   0  0  0  0  0  0
   71.0607   51.0132    6.7440 H   0  0  0  0  0  0
   71.1786   49.6414    5.5903 H   0  0  0  0  0  0
   69.5717   50.3243    6.0127 H   0  0  0  0  0  0
   70.4024   51.4281    2.5392 H   0  0  0  0  0  0
   70.5148   49.8380    3.3673 H   0  0  0  0  0  0
   68.2902   51.7672    3.7797 H   0  0  0  0  0  0
   68.3131   49.9449    5.5007 H   0  0  0  0  0  0
   68.5142   50.9327    1.3045 H   0  0  0  0  0  0
   67.0565   50.2279    2.0823 H   0  0  0  0  0  0
   68.5527   49.2467    1.9231 H   0  0  0  0  0  0
  1  2  1  0  0  0
  1  9  1  0  0  0
  1 10  1  0  0  0
  1 11  1  0  0  0
  2  3  1  0  0  0
  2  4  1  0  0  0
  2  5  1  0  0  0
  3 12  1  0  0  0
  4 13  1  0  0  0
  4 14  1  0  0  0
  4 15  1  0  0  0
  5  6  1  0  0  0
  5 16  1  0  0  0
  5 17  1  0  0  0
  6  7  1  0  0  0
  6  8  1  0  0  0
  6 18  1  0  0  0
  7 19  1  0  0  0
  8 20  1  0  0  0
  8 21  1  0  0  0
  8 22  1  0  0  0
M  END
> <s_m_source_file>
/cbio/jclab/home/rustenburg/PFK/Epik-Ligands/Results/InProgress/(4R)-2-METHYLPENTANE-2,4-DIOL/pH_10.0/(4R)-2-METHYLPENTANE-2,4-DIOL_pH_10.0-before_epik.mol2

> <i_m_source_file_index>
1

> <r_lp_tautomer_probability>
1

> <r_epik_Ionization_Penalty>
  0.0000

> <r_epik_Ionization_Penalty_Charging>
  0.0000

> <r_epik_Ionization_Penalty_Neutral>
  0.0000

> <r_epik_State_Penalty>
 -0.0000

> <r_epik_Charging_Adjusted_Penalty>
0

> <i_epik_Tot_Q>
0

> <i_epik_Tot_abs_Q>
0

$$$$
