GAL
  CCTOOLS-0326171052

 24 24  0  0  1  0  0  0  0  0999 V2000
    4.9170   90.5790   82.8250 C   0  0  0  0  0
    4.2660   91.8260   82.1310 C   0  0  0  0  0
    4.6880   91.9320   80.6800 C   0  0  0  0  0
    6.2370   91.7980   80.5450 C   0  0  0  0  0
    6.7410   90.5120   81.1390 C   0  0  0  0  0
    8.2680   90.5980   81.0590 C   0  0  0  0  0
    5.1620   90.1270   84.1860 O   0  0  0  0  0
    2.8340   91.8650   82.2210 O   0  0  0  0  0
    4.1520   93.1230   80.0950 O   0  0  0  0  0
    6.9190   92.8280   81.2250 O   0  0  0  0  0
    6.3480   90.4460   82.5310 O   0  0  0  0  0
    9.0200   89.4100   81.1290 O   0  0  0  0  0
    4.0040   90.0860   82.4590 H   0  0  0  0  0
    4.6440   92.6930   82.6930 H   0  0  0  0  0
    4.2670   91.0930   80.1060 H   0  0  0  0  0
    6.4320   91.8420   79.4630 H   0  0  0  0  0
    6.3430   89.6300   80.6150 H   0  0  0  0  0
    8.5040   91.0590   80.0890 H   0  0  0  0  0
    8.5900   91.2210   81.9070 H   0  0  0  0  0
    5.5980   89.2830   84.1660 H   0  0  0  0  0
    2.5100   92.6420   81.7820 H   0  0  0  0  0
    4.4230   93.1790   79.1860 H   0  0  0  0  0
    7.8560   92.7120   81.1190 H   0  0  0  0  0
    9.9450   89.6160   81.0670 H   0  0  0  0  0
  1  2  1  0  0  0
  1  7  1  0  0  0
  1 11  1  0  0  0
  1 13  1  0  0  0
  2  3  1  0  0  0
  2  8  1  0  0  0
  2 14  1  0  0  0
  3  4  1  0  0  0
  3  9  1  0  0  0
  3 15  1  0  0  0
  4  5  1  0  0  0
  4 10  1  0  0  0
  4 16  1  0  0  0
  5  6  1  0  0  0
  5 11  1  0  0  0
  5 17  1  0  0  0
  6 12  1  0  0  0
  6 18  1  0  0  0
  6 19  1  0  0  0
  7 20  1  0  0  0
  8 21  1  0  0  0
  9 22  1  0  0  0
 10 23  1  0  0  0
 12 24  1  0  0  0
M  END
$$$$
