@<TRIPOS>MOLECULE
[[5-(6-aminopurin-9-yl)-3,4-dihydroxy-tetrahydrofuran-2-yl]methoxy-oxido-phosphoryl] hydrogen phosphate
   40    42     1     0     0
SMALL
USER_CHARGES

@<TRIPOS>ATOM
      1 PB         44.6690    2.9280   38.5560 P.3       1 ADP         1.5484
      2 O1B        46.0210    3.5080   38.3170 O.2       1 ADP        -0.8706
      3 O2B        43.7090    3.8120   37.9050 O.3       1 ADP        -0.8706
      4 O3B        44.4590    1.4490   38.3820 O.3       1 ADP        -0.7898
      5 PA         43.2300    2.9550   41.1100 P.3       1 ADP         1.5772
      6 O1A        41.9750    3.4970   40.5730 O.2       1 ADP        -0.8746
      7 O2A        42.9620    1.5010   41.4010 O.3       1 ADP        -0.8746
      8 O3A        44.5220    3.2100   40.2120 O.3       1 ADP        -0.8049
      9 O5'        43.4620    3.8320   42.4070 O.3       1 ADP        -0.5623
     10 C5'        43.7350    5.2460   42.3350 C.3       1 ADP         0.2051
     11 C4'        43.0950    5.8100   43.6260 C.3       1 ADP         0.1084
     12 O4'        43.7640    5.2610   44.7790 O.3       1 ADP        -0.3961
     13 C3'        43.3370    7.3250   43.6170 C.3       1 ADP         0.0709
     14 O3'        42.0560    7.9880   43.5600 O.3       1 ADP        -0.5799
     15 C2'        43.9460    7.5930   45.0830 C.3       1 ADP         0.0745
     16 O2'        43.5540    8.7260   45.8770 O.3       1 ADP        -0.5960
     17 C1'        43.6130    6.2750   45.8130 C.3       1 ADP         0.3993
     18 N9         44.3750    5.7810   46.9910 N.pl3     1 ADP        -0.6794
     19 C8         45.7110    5.4860   47.0620 C.ar      1 ADP         0.5664
     20 N7         46.2020    5.3790   48.2820 N.ar      1 ADP        -0.5782
     21 C5         45.0670    5.5970   49.0640 C.ar      1 ADP        -0.2082
     22 C6         44.8830    5.6230   50.4990 C.ar      1 ADP         0.7146
     23 N6         45.9120    5.4330   51.3250 N.pl3     1 ADP        -0.9387
     24 N1         43.6260    5.8520   50.8960 N.ar      1 ADP        -0.8032
     25 C2         42.5900    6.0760   50.0670 C.ar      1 ADP         0.6553
     26 N3         42.6750    6.0670   48.7350 N.ar      1 ADP        -0.7075
     27 C4         43.9510    5.8210   48.3040 C.ar      1 ADP         0.5686
     28 HOB3       44.5050    1.0013   37.3783 H         1 ADP         0.4137
     29 H5'1       44.8225    5.4083   42.3038 H         1 ADP         0.0392
     30 H5'2       43.2759    5.6623   41.4262 H         1 ADP         0.0392
     31 H4'        42.0346    5.5352   43.7265 H         1 ADP         0.0930
     32 H3'        43.9002    7.6848   42.7433 H         1 ADP         0.0651
     33 HO3'       41.4519    7.9395   42.6420 H         1 ADP         0.4025
     34 H2'        44.9867    7.9464   45.0378 H         1 ADP         0.0768
     35 HO2'       43.7218    9.7459   45.5006 H         1 ADP         0.4249
     36 H1'        42.6269    6.4254   46.2768 H         1 ADP         0.1022
     37 H8         46.3580    5.3410   46.1810 H         1 ADP         0.1149
     38 HN61       46.9174    5.2500   50.9180 H         1 ADP         0.4187
     39 HN62       45.7556    5.4592   52.4135 H         1 ADP         0.4187
     40 H2         41.6010    6.2810   50.5100 H         1 ADP         0.0368
@<TRIPOS>BOND
     1    1    2 2
     2    1    3 1
     3    1    4 1
     4    1    8 1
     5    4   28 1
     6    5    6 2
     7    5    7 1
     8    5    8 1
     9    5    9 1
    10    9   10 1
    11   10   11 1
    12   10   29 1
    13   10   30 1
    14   11   12 1
    15   11   13 1
    16   11   31 1
    17   12   17 1
    18   13   14 1
    19   13   15 1
    20   13   32 1
    21   14   33 1
    22   15   16 1
    23   15   17 1
    24   15   34 1
    25   16   35 1
    26   17   18 1
    27   17   36 1
    28   18   19 ar
    29   18   27 ar
    30   19   20 ar
    31   19   37 1
    32   20   21 ar
    33   21   22 ar
    34   21   27 ar
    35   22   23 1
    36   22   24 ar
    37   23   38 1
    38   23   39 1
    39   24   25 ar
    40   25   26 ar
    41   25   40 1
    42   26   27 ar
@<TRIPOS>SUBSTRUCTURE
     1 ADP         1 GROUP   0 A     ****
@<TRIPOS>MOLECULE
[[5-(6-aminopurin-9-yl)-3,4-dihydroxy-tetrahydrofuran-2-yl]methoxy-hydroxy-phosphoryl] hydrogen phosphate
   41    43     1     0     0
SMALL
USER_CHARGES

@<TRIPOS>ATOM
      1 PB         44.6690    2.9280   38.5560 P.3       1 ADP         1.5491
      2 O1B        46.0210    3.5080   38.3170 O.2       1 ADP        -0.8330
      3 O2B        43.7090    3.8120   37.9050 O.3       1 ADP        -0.8330
      4 O3B        44.4590    1.4490   38.3820 O.3       1 ADP        -0.7814
      5 PA         43.2300    2.9550   41.1100 P.3       1 ADP         1.7821
      6 O1A        41.9750    3.4970   40.5730 O.2       1 ADP        -0.8259
      7 O2A        42.9620    1.5010   41.4010 O.3       1 ADP        -0.8157
      8 O3A        44.5220    3.2100   40.2120 O.3       1 ADP        -0.8057
      9 O5'        43.4620    3.8320   42.4070 O.3       1 ADP        -0.5711
     10 C5'        43.7350    5.2460   42.3350 C.3       1 ADP         0.1954
     11 C4'        43.0950    5.8100   43.6260 C.3       1 ADP         0.0881
     12 O4'        43.7640    5.2610   44.7790 O.3       1 ADP        -0.3905
     13 C3'        43.3370    7.3250   43.6170 C.3       1 ADP         0.0721
     14 O3'        42.0560    7.9880   43.5600 O.3       1 ADP        -0.6046
     15 C2'        43.9460    7.5930   45.0830 C.3       1 ADP         0.1137
     16 O2'        43.5540    8.7260   45.8770 O.3       1 ADP        -0.5899
     17 C1'        43.6130    6.2750   45.8130 C.3       1 ADP         0.4250
     18 N9         44.3750    5.7810   46.9910 N.pl3     1 ADP        -0.6953
     19 C8         45.7110    5.4860   47.0620 C.ar      1 ADP         0.5456
     20 N7         46.2020    5.3790   48.2820 N.ar      1 ADP        -0.5566
     21 C5         45.0670    5.5970   49.0640 C.ar      1 ADP        -0.2230
     22 C6         44.8830    5.6230   50.4990 C.ar      1 ADP         0.7537
     23 N6         45.9120    5.4330   51.3250 N.pl3     1 ADP        -0.9652
     24 N1         43.6260    5.8520   50.8960 N.ar      1 ADP        -0.8048
     25 C2         42.5900    6.0760   50.0670 C.ar      1 ADP         0.6761
     26 N3         42.6750    6.0670   48.7350 N.ar      1 ADP        -0.7218
     27 C4         43.9510    5.8210   48.3040 C.ar      1 ADP         0.5836
     28 HOB3       44.5050    1.0013   37.3783 H         1 ADP         0.4332
     29 HOA2       42.7861    0.7978   40.5736 H         1 ADP         0.4866
     30 H5'1       44.8225    5.4083   42.3038 H         1 ADP         0.0430
     31 H5'2       43.2759    5.6623   41.4262 H         1 ADP         0.0430
     32 H4'        42.0346    5.5352   43.7265 H         1 ADP         0.0914
     33 H3'        43.9002    7.6848   42.7433 H         1 ADP         0.0603
     34 HO3'       41.4519    7.9395   42.6420 H         1 ADP         0.4284
     35 H2'        44.9867    7.9464   45.0378 H         1 ADP         0.0709
     36 HO2'       43.7218    9.7459   45.5006 H         1 ADP         0.4301
     37 H1'        42.6269    6.4254   46.2768 H         1 ADP         0.1267
     38 H8         46.3580    5.3410   46.1810 H         1 ADP         0.0905
     39 HN61       46.9174    5.2500   50.9180 H         1 ADP         0.4414
     40 HN62       45.7556    5.4592   52.4135 H         1 ADP         0.4414
     41 H2         41.6010    6.2810   50.5100 H         1 ADP         0.0461
@<TRIPOS>BOND
     1    1    2 2
     2    1    3 1
     3    1    4 1
     4    1    8 1
     5    4   28 1
     6    5    6 2
     7    5    7 1
     8    5    8 1
     9    5    9 1
    10    7   29 1
    11    9   10 1
    12   10   11 1
    13   10   30 1
    14   10   31 1
    15   11   12 1
    16   11   13 1
    17   11   32 1
    18   12   17 1
    19   13   14 1
    20   13   15 1
    21   13   33 1
    22   14   34 1
    23   15   16 1
    24   15   17 1
    25   15   35 1
    26   16   36 1
    27   17   18 1
    28   17   37 1
    29   18   19 ar
    30   18   27 ar
    31   19   20 ar
    32   19   38 1
    33   20   21 ar
    34   21   22 ar
    35   21   27 ar
    36   22   23 1
    37   22   24 ar
    38   23   39 1
    39   23   40 1
    40   24   25 ar
    41   25   26 ar
    42   25   41 1
    43   26   27 ar
@<TRIPOS>SUBSTRUCTURE
     1 ADP         1 GROUP   0 A     ****
@<TRIPOS>MOLECULE
[5-(6-aminopurin-9-yl)-3,4-dihydroxy-tetrahydrofuran-2-yl]methyl phosphono phosphate
   41    43     1     0     0
SMALL
USER_CHARGES

@<TRIPOS>ATOM
      1 PB         44.6690    2.9280   38.5560 P.3       1 ADP         1.7955
      2 O1B        46.0210    3.5080   38.3170 O.2       1 ADP        -0.8637
      3 O2B        43.7090    3.8120   37.9050 O.3       1 ADP        -0.8032
      4 O3B        44.4590    1.4490   38.3820 O.3       1 ADP        -0.8032
      5 PA         43.2300    2.9550   41.1100 P.3       1 ADP         1.5649
      6 O1A        41.9750    3.4970   40.5730 O.2       1 ADP        -0.8269
      7 O2A        42.9620    1.5010   41.4010 O.3       1 ADP        -0.8269
      8 O3A        44.5220    3.2100   40.2120 O.3       1 ADP        -0.7927
      9 O5'        43.4620    3.8320   42.4070 O.3       1 ADP        -0.5805
     10 C5'        43.7350    5.2460   42.3350 C.3       1 ADP         0.1745
     11 C4'        43.0950    5.8100   43.6260 C.3       1 ADP         0.1257
     12 O4'        43.7640    5.2610   44.7790 O.3       1 ADP        -0.4252
     13 C3'        43.3370    7.3250   43.6170 C.3       1 ADP         0.0991
     14 O3'        42.0560    7.9880   43.5600 O.3       1 ADP        -0.5869
     15 C2'        43.9460    7.5930   45.0830 C.3       1 ADP         0.0594
     16 O2'        43.5540    8.7260   45.8770 O.3       1 ADP        -0.5873
     17 C1'        43.6130    6.2750   45.8130 C.3       1 ADP         0.4313
     18 N9         44.3750    5.7810   46.9910 N.pl3     1 ADP        -0.6845
     19 C8         45.7110    5.4860   47.0620 C.ar      1 ADP         0.5462
     20 N7         46.2020    5.3790   48.2820 N.ar      1 ADP        -0.5604
     21 C5         45.0670    5.5970   49.0640 C.ar      1 ADP        -0.2260
     22 C6         44.8830    5.6230   50.4990 C.ar      1 ADP         0.7472
     23 N6         45.9120    5.4330   51.3250 N.pl3     1 ADP        -0.9618
     24 N1         43.6260    5.8520   50.8960 N.ar      1 ADP        -0.8022
     25 C2         42.5900    6.0760   50.0670 C.ar      1 ADP         0.6724
     26 N3         42.6750    6.0670   48.7350 N.ar      1 ADP        -0.7213
     27 C4         43.9510    5.8210   48.3040 C.ar      1 ADP         0.5912
     28 HOB2       43.6161    3.8113   36.8089 H         1 ADP         0.4730
     29 HOB3       44.5050    1.0013   37.3783 H         1 ADP         0.4730
     30 H5'1       44.8225    5.4083   42.3038 H         1 ADP         0.0478
     31 H5'2       43.2759    5.6623   41.4262 H         1 ADP         0.0478
     32 H4'        42.0346    5.5352   43.7265 H         1 ADP         0.0995
     33 H3'        43.9002    7.6848   42.7433 H         1 ADP         0.0847
     34 HO3'       41.4519    7.9395   42.6420 H         1 ADP         0.4058
     35 H2'        44.9867    7.9464   45.0378 H         1 ADP         0.0707
     36 HO2'       43.7218    9.7459   45.5006 H         1 ADP         0.4089
     37 H1'        42.6269    6.4254   46.2768 H         1 ADP         0.1170
     38 H8         46.3580    5.3410   46.1810 H         1 ADP         0.0939
     39 HN61       46.9174    5.2500   50.9180 H         1 ADP         0.4400
     40 HN62       45.7556    5.4592   52.4135 H         1 ADP         0.4400
     41 H2         41.6010    6.2810   50.5100 H         1 ADP         0.0430
@<TRIPOS>BOND
     1    1    2 2
     2    1    3 1
     3    1    4 1
     4    1    8 1
     5    3   28 1
     6    4   29 1
     7    5    6 2
     8    5    7 1
     9    5    8 1
    10    5    9 1
    11    9   10 1
    12   10   11 1
    13   10   30 1
    14   10   31 1
    15   11   12 1
    16   11   13 1
    17   11   32 1
    18   12   17 1
    19   13   14 1
    20   13   15 1
    21   13   33 1
    22   14   34 1
    23   15   16 1
    24   15   17 1
    25   15   35 1
    26   16   36 1
    27   17   18 1
    28   17   37 1
    29   18   19 ar
    30   18   27 ar
    31   19   20 ar
    32   19   38 1
    33   20   21 ar
    34   21   22 ar
    35   21   27 ar
    36   22   23 1
    37   22   24 ar
    38   23   39 1
    39   23   40 1
    40   24   25 ar
    41   25   26 ar
    42   25   41 1
    43   26   27 ar
@<TRIPOS>SUBSTRUCTURE
     1 ADP         1 GROUP   0 A     ****
@<TRIPOS>MOLECULE
[[5-(6-amino-7,8-dihydropurin-8-ylium-9-yl)-3,4-dihydroxy-tetrahydrofuran-2-yl]methoxy-oxido-phosphoryl] hydrogen phosphate
   41    43     1     0     0
SMALL
USER_CHARGES

@<TRIPOS>ATOM
      1 PB         44.6690    2.9280   38.5560 P.3       1 ADP         1.5580
      2 O1B        46.0210    3.5080   38.3170 O.2       1 ADP        -0.8613
      3 O2B        43.7090    3.8120   37.9050 O.3       1 ADP        -0.8613
      4 O3B        44.4590    1.4490   38.3820 O.3       1 ADP        -0.7947
      5 PA         43.2300    2.9550   41.1100 P.3       1 ADP         1.5820
      6 O1A        41.9750    3.4970   40.5730 O.2       1 ADP        -0.8788
      7 O2A        42.9620    1.5010   41.4010 O.3       1 ADP        -0.8788
      8 O3A        44.5220    3.2100   40.2120 O.3       1 ADP        -0.8101
      9 O5'        43.4620    3.8320   42.4070 O.3       1 ADP        -0.5724
     10 C5'        43.7350    5.2460   42.3350 C.3       1 ADP         0.2024
     11 C4'        43.0950    5.8100   43.6260 C.3       1 ADP         0.1008
     12 O4'        43.7640    5.2610   44.7790 O.3       1 ADP        -0.4108
     13 C3'        43.3370    7.3250   43.6170 C.3       1 ADP         0.0899
     14 O3'        42.0560    7.9880   43.5600 O.3       1 ADP        -0.6262
     15 C2'        43.9460    7.5930   45.0830 C.3       1 ADP         0.1075
     16 O2'        43.5540    8.7260   45.8770 O.3       1 ADP        -0.5944
     17 C1'        43.6130    6.2750   45.8130 C.3       1 ADP         0.3826
     18 N9         44.3750    5.7810   46.9910 N.pl3     1 ADP        -0.5401
     19 C8         45.7110    5.4860   47.0620 C.cat     1 ADP         0.3047
     20 N7         46.2020    5.3790   48.2820 N.pl3     1 ADP        -0.5203
     21 C5         45.0670    5.5970   49.0640 C.ar      1 ADP        -0.2733
     22 C6         44.8830    5.6230   50.4990 C.ar      1 ADP         0.7644
     23 N6         45.9120    5.4330   51.3250 N.pl3     1 ADP        -0.9616
     24 N1         43.6260    5.8520   50.8960 N.ar      1 ADP        -0.7625
     25 C2         42.5900    6.0760   50.0670 C.ar      1 ADP         0.7056
     26 N3         42.6750    6.0670   48.7350 N.ar      1 ADP        -0.6833
     27 C4         43.9510    5.8210   48.3040 C.ar      1 ADP         0.6342
     28 HOB3       44.5050    1.0013   37.3783 H         1 ADP         0.4270
     29 H5'1       44.8225    5.4083   42.3038 H         1 ADP         0.0223
     30 H5'2       43.2759    5.6623   41.4262 H         1 ADP         0.0223
     31 H4'        42.0346    5.5352   43.7265 H         1 ADP         0.1112
     32 H3'        43.9002    7.6848   42.7433 H         1 ADP         0.1508
     33 HO3'       41.4519    7.9395   42.6420 H         1 ADP         0.4260
     34 H2'        44.9867    7.9464   45.0378 H         1 ADP         0.0865
     35 HO2'       43.7218    9.7459   45.5006 H         1 ADP         0.4350
     36 H1'        42.6269    6.4254   46.2768 H         1 ADP         0.1296
     37 H8         46.3580    5.3410   46.1810 H         1 ADP         0.3068
     38 HN61       46.9174    5.2500   50.9180 H         1 ADP         0.4538
     39 HN62       45.7556    5.4592   52.4135 H         1 ADP         0.4538
     40 H2         41.6010    6.2810   50.5100 H         1 ADP         0.0758
     41 H41        47.2714    5.1664   48.4278 H         1 ADP         0.4972
@<TRIPOS>BOND
     1    1    2 2
     2    1    3 1
     3    1    4 1
     4    1    8 1
     5    4   28 1
     6    5    6 2
     7    5    7 1
     8    5    8 1
     9    5    9 1
    10    9   10 1
    11   10   11 1
    12   10   29 1
    13   10   30 1
    14   11   12 1
    15   11   13 1
    16   11   31 1
    17   12   17 1
    18   13   14 1
    19   13   15 1
    20   13   32 1
    21   14   33 1
    22   15   16 1
    23   15   17 1
    24   15   34 1
    25   16   35 1
    26   17   18 1
    27   17   36 1
    28   18   19 ar
    29   18   27 ar
    30   19   20 ar
    31   19   37 1
    32   20   21 ar
    33   20   41 1
    34   21   22 ar
    35   21   27 ar
    36   22   23 1
    37   22   24 ar
    38   23   38 1
    39   23   39 1
    40   24   25 ar
    41   25   26 ar
    42   25   40 1
    43   26   27 ar
@<TRIPOS>SUBSTRUCTURE
     1 ADP         1 GROUP   0 A     ****
@<TRIPOS>MOLECULE
[[5-(6-amino-7,8-dihydropurin-8-ylium-9-yl)-3,4-dihydroxy-tetrahydrofuran-2-yl]methoxy-hydroxy-phosphoryl] hydrogen phosphate
   42    44     1     0     0
SMALL
USER_CHARGES

@<TRIPOS>ATOM
      1 PB         44.6690    2.9280   38.5560 P.3       1 ADP         1.5424
      2 O1B        46.0210    3.5080   38.3170 O.2       1 ADP        -0.8190
      3 O2B        43.7090    3.8120   37.9050 O.3       1 ADP        -0.8190
      4 O3B        44.4590    1.4490   38.3820 O.3       1 ADP        -0.7745
      5 PA         43.2300    2.9550   41.1100 P.3       1 ADP         1.7686
      6 O1A        41.9750    3.4970   40.5730 O.2       1 ADP        -0.8182
      7 O2A        42.9620    1.5010   41.4010 O.3       1 ADP        -0.8320
      8 O3A        44.5220    3.2100   40.2120 O.3       1 ADP        -0.7989
      9 O5'        43.4620    3.8320   42.4070 O.3       1 ADP        -0.5626
     10 C5'        43.7350    5.2460   42.3350 C.3       1 ADP         0.1996
     11 C4'        43.0950    5.8100   43.6260 C.3       1 ADP         0.1071
     12 O4'        43.7640    5.2610   44.7790 O.3       1 ADP        -0.3700
     13 C3'        43.3370    7.3250   43.6170 C.3       1 ADP         0.0747
     14 O3'        42.0560    7.9880   43.5600 O.3       1 ADP        -0.5669
     15 C2'        43.9460    7.5930   45.0830 C.3       1 ADP         0.0819
     16 O2'        43.5540    8.7260   45.8770 O.3       1 ADP        -0.5713
     17 C1'        43.6130    6.2750   45.8130 C.3       1 ADP         0.3865
     18 N9         44.3750    5.7810   46.9910 N.pl3     1 ADP        -0.5662
     19 C8         45.7110    5.4860   47.0620 C.cat     1 ADP         0.2869
     20 N7         46.2020    5.3790   48.2820 N.pl3     1 ADP        -0.5048
     21 C5         45.0670    5.5970   49.0640 C.ar      1 ADP        -0.2834
     22 C6         44.8830    5.6230   50.4990 C.ar      1 ADP         0.7719
     23 N6         45.9120    5.4330   51.3250 N.pl3     1 ADP        -0.9453
     24 N1         43.6260    5.8520   50.8960 N.ar      1 ADP        -0.7479
     25 C2         42.5900    6.0760   50.0670 C.ar      1 ADP         0.7200
     26 N3         42.6750    6.0670   48.7350 N.ar      1 ADP        -0.6888
     27 C4         43.9510    5.8210   48.3040 C.ar      1 ADP         0.6310
     28 HOB3       44.5050    1.0013   37.3783 H         1 ADP         0.4360
     29 HOA2       42.7861    0.7978   40.5736 H         1 ADP         0.4875
     30 H5'1       44.8225    5.4083   42.3038 H         1 ADP         0.0404
     31 H5'2       43.2759    5.6623   41.4262 H         1 ADP         0.0404
     32 H4'        42.0346    5.5352   43.7265 H         1 ADP         0.1265
     33 H3'        43.9002    7.6848   42.7433 H         1 ADP         0.0618
     34 HO3'       41.4519    7.9395   42.6420 H         1 ADP         0.4254
     35 H2'        44.9867    7.9464   45.0378 H         1 ADP         0.0874
     36 HO2'       43.7218    9.7459   45.5006 H         1 ADP         0.4427
     37 H1'        42.6269    6.4254   46.2768 H         1 ADP         0.1549
     38 H8         46.3580    5.3410   46.1810 H         1 ADP         0.2841
     39 HN61       46.9174    5.2500   50.9180 H         1 ADP         0.4587
     40 HN62       45.7556    5.4592   52.4135 H         1 ADP         0.4587
     41 H2         41.6010    6.2810   50.5100 H         1 ADP         0.0884
     42 H42        47.2714    5.1664   48.4278 H         1 ADP         0.5052
@<TRIPOS>BOND
     1    1    2 2
     2    1    3 1
     3    1    4 1
     4    1    8 1
     5    4   28 1
     6    5    6 2
     7    5    7 1
     8    5    8 1
     9    5    9 1
    10    7   29 1
    11    9   10 1
    12   10   11 1
    13   10   30 1
    14   10   31 1
    15   11   12 1
    16   11   13 1
    17   11   32 1
    18   12   17 1
    19   13   14 1
    20   13   15 1
    21   13   33 1
    22   14   34 1
    23   15   16 1
    24   15   17 1
    25   15   35 1
    26   16   36 1
    27   17   18 1
    28   17   37 1
    29   18   19 ar
    30   18   27 ar
    31   19   20 ar
    32   19   38 1
    33   20   21 ar
    34   20   42 1
    35   21   22 ar
    36   21   27 ar
    37   22   23 1
    38   22   24 ar
    39   23   39 1
    40   23   40 1
    41   24   25 ar
    42   25   26 ar
    43   25   41 1
    44   26   27 ar
@<TRIPOS>SUBSTRUCTURE
     1 ADP         1 GROUP   0 A     ****
@<TRIPOS>MOLECULE
[[5-(6-amino-1,8-dihydropurine-6,8-diylium-7-id-9-yl)-3,4-dihydroxy-tetrahydrofuran-2-yl]methoxy-oxido-phosphoryl] hydrogen phosphate
   41    43     1     0     0
SMALL
USER_CHARGES

@<TRIPOS>ATOM
      1 PB         44.6690    2.9280   38.5560 P.3       1 ADP         1.5456
      2 O1B        46.0210    3.5080   38.3170 O.2       1 ADP        -0.8579
      3 O2B        43.7090    3.8120   37.9050 O.3       1 ADP        -0.8579
      4 O3B        44.4590    1.4490   38.3820 O.3       1 ADP        -0.7918
      5 PA         43.2300    2.9550   41.1100 P.3       1 ADP         1.5738
      6 O1A        41.9750    3.4970   40.5730 O.2       1 ADP        -0.8707
      7 O2A        42.9620    1.5010   41.4010 O.3       1 ADP        -0.8707
      8 O3A        44.5220    3.2100   40.2120 O.3       1 ADP        -0.8061
      9 O5'        43.4620    3.8320   42.4070 O.3       1 ADP        -0.5718
     10 C5'        43.7350    5.2460   42.3350 C.3       1 ADP         0.2186
     11 C4'        43.0950    5.8100   43.6260 C.3       1 ADP         0.1165
     12 O4'        43.7640    5.2610   44.7790 O.3       1 ADP        -0.4120
     13 C3'        43.3370    7.3250   43.6170 C.3       1 ADP         0.0838
     14 O3'        42.0560    7.9880   43.5600 O.3       1 ADP        -0.5835
     15 C2'        43.9460    7.5930   45.0830 C.3       1 ADP         0.0624
     16 O2'        43.5540    8.7260   45.8770 O.3       1 ADP        -0.6012
     17 C1'        43.6130    6.2750   45.8130 C.3       1 ADP         0.4177
     18 N9         44.3750    5.7810   46.9910 N.pl3     1 ADP        -0.4283
     19 C8         45.7110    5.4860   47.0620 C.cat     1 ADP         0.1910
     20 N7         46.2020    5.3790   48.2820 N.ar      1 ADP        -0.2764
     21 C5         45.0670    5.5970   49.0640 C.ar      1 ADP        -0.1389
     22 C6         44.8830    5.6230   50.4990 C.cat     1 ADP         0.4785
     23 N6         45.9120    5.4330   51.3250 N.pl3     1 ADP        -0.8322
     24 N1         43.6260    5.8520   50.8960 N.pl3     1 ADP        -0.7006
     25 C2         42.5900    6.0760   50.0670 C.ar      1 ADP         0.6199
     26 N3         42.6750    6.0670   48.7350 N.ar      1 ADP        -0.5087
     27 C4         43.9510    5.8210   48.3040 C.ar      1 ADP         0.2964
     28 HOB3       44.5050    1.0013   37.3783 H         1 ADP         0.4190
     29 H5'1       44.8225    5.4083   42.3038 H         1 ADP         0.0182
     30 H5'2       43.2759    5.6623   41.4262 H         1 ADP         0.0182
     31 H4'        42.0346    5.5352   43.7265 H         1 ADP         0.1207
     32 H3'        43.9002    7.6848   42.7433 H         1 ADP         0.1385
     33 HO3'       41.4519    7.9395   42.6420 H         1 ADP         0.3953
     34 H2'        44.9867    7.9464   45.0378 H         1 ADP         0.0731
     35 HO2'       43.7218    9.7459   45.5006 H         1 ADP         0.4155
     36 H1'        42.6269    6.4254   46.2768 H         1 ADP         0.1146
     37 H8         46.3580    5.3410   46.1810 H         1 ADP         0.2826
     38 HN61       46.9174    5.2500   50.9180 H         1 ADP         0.4749
     39 HN62       45.7556    5.4592   52.4135 H         1 ADP         0.4749
     40 H2         41.6010    6.2810   50.5100 H         1 ADP         0.0886
     41 H41        43.3819    5.8661   51.9685 H         1 ADP         0.4706
@<TRIPOS>BOND
     1    1    2 2
     2    1    3 1
     3    1    4 1
     4    1    8 1
     5    4   28 1
     6    5    6 2
     7    5    7 1
     8    5    8 1
     9    5    9 1
    10    9   10 1
    11   10   11 1
    12   10   29 1
    13   10   30 1
    14   11   12 1
    15   11   13 1
    16   11   31 1
    17   12   17 1
    18   13   14 1
    19   13   15 1
    20   13   32 1
    21   14   33 1
    22   15   16 1
    23   15   17 1
    24   15   34 1
    25   16   35 1
    26   17   18 1
    27   17   36 1
    28   18   19 ar
    29   18   27 ar
    30   19   20 ar
    31   19   37 1
    32   20   21 ar
    33   21   22 ar
    34   21   27 ar
    35   22   23 1
    36   22   24 ar
    37   23   38 1
    38   23   39 1
    39   24   25 ar
    40   24   41 1
    41   25   26 ar
    42   25   40 1
    43   26   27 ar
@<TRIPOS>SUBSTRUCTURE
     1 ADP         1 GROUP   0 A     ****
@<TRIPOS>MOLECULE
[[5-(6-aminopurin-9-yl)-3,4-dihydroxy-tetrahydrofuran-2-yl]methoxy-oxido-phosphoryl] phosphate
   39    41     1     0     0
SMALL
USER_CHARGES

@<TRIPOS>ATOM
      1 PB         44.6690    2.9280   38.5560 P.3       1 ADP         1.4198
      2 O1B        46.0210    3.5080   38.3170 O.2       1 ADP        -0.9423
      3 O2B        43.7090    3.8120   37.9050 O.3       1 ADP        -0.9423
      4 O3B        44.4590    1.4490   38.3820 O.3       1 ADP        -0.9423
      5 PA         43.2300    2.9550   41.1100 P.3       1 ADP         1.5484
      6 O1A        41.9750    3.4970   40.5730 O.2       1 ADP        -0.9123
      7 O2A        42.9620    1.5010   41.4010 O.3       1 ADP        -0.9123
      8 O3A        44.5220    3.2100   40.2120 O.3       1 ADP        -0.7800
      9 O5'        43.4620    3.8320   42.4070 O.3       1 ADP        -0.5626
     10 C5'        43.7350    5.2460   42.3350 C.3       1 ADP         0.2340
     11 C4'        43.0950    5.8100   43.6260 C.3       1 ADP         0.0333
     12 O4'        43.7640    5.2610   44.7790 O.3       1 ADP        -0.4079
     13 C3'        43.3370    7.3250   43.6170 C.3       1 ADP         0.0909
     14 O3'        42.0560    7.9880   43.5600 O.3       1 ADP        -0.6624
     15 C2'        43.9460    7.5930   45.0830 C.3       1 ADP         0.1088
     16 O2'        43.5540    8.7260   45.8770 O.3       1 ADP        -0.6101
     17 C1'        43.6130    6.2750   45.8130 C.3       1 ADP         0.3909
     18 N9         44.3750    5.7810   46.9910 N.pl3     1 ADP        -0.6537
     19 C8         45.7110    5.4860   47.0620 C.ar      1 ADP         0.5687
     20 N7         46.2020    5.3790   48.2820 N.ar      1 ADP        -0.5926
     21 C5         45.0670    5.5970   49.0640 C.ar      1 ADP        -0.2020
     22 C6         44.8830    5.6230   50.4990 C.ar      1 ADP         0.6921
     23 N6         45.9120    5.4330   51.3250 N.pl3     1 ADP        -0.9298
     24 N1         43.6260    5.8520   50.8960 N.ar      1 ADP        -0.8066
     25 C2         42.5900    6.0760   50.0670 C.ar      1 ADP         0.6420
     26 N3         42.6750    6.0670   48.7350 N.ar      1 ADP        -0.6972
     27 C4         43.9510    5.8210   48.3040 C.ar      1 ADP         0.5754
     28 H5'1       44.8225    5.4083   42.3038 H         1 ADP        -0.0046
     29 H5'2       43.2759    5.6623   41.4262 H         1 ADP        -0.0046
     30 H4'        42.0346    5.5352   43.7265 H         1 ADP         0.1821
     31 H3'        43.9002    7.6848   42.7433 H         1 ADP         0.1043
     32 HO3'       41.4519    7.9395   42.6420 H         1 ADP         0.4413
     33 H2'        44.9867    7.9464   45.0378 H         1 ADP         0.0792
     34 HO2'       43.7218    9.7459   45.5006 H         1 ADP         0.4205
     35 H1'        42.6269    6.4254   46.2768 H         1 ADP         0.0878
     36 H8         46.3580    5.3410   46.1810 H         1 ADP         0.1093
     37 HN61       46.9174    5.2500   50.9180 H         1 ADP         0.4043
     38 HN62       45.7556    5.4592   52.4135 H         1 ADP         0.4043
     39 H2         41.6010    6.2810   50.5100 H         1 ADP         0.0285
@<TRIPOS>BOND
     1    1    2 2
     2    1    3 1
     3    1    4 1
     4    1    8 1
     5    5    6 2
     6    5    7 1
     7    5    8 1
     8    5    9 1
     9    9   10 1
    10   10   11 1
    11   10   28 1
    12   10   29 1
    13   11   12 1
    14   11   13 1
    15   11   30 1
    16   12   17 1
    17   13   14 1
    18   13   15 1
    19   13   31 1
    20   14   32 1
    21   15   16 1
    22   15   17 1
    23   15   33 1
    24   16   34 1
    25   17   18 1
    26   17   35 1
    27   18   19 ar
    28   18   27 ar
    29   19   20 ar
    30   19   36 1
    31   20   21 ar
    32   21   22 ar
    33   21   27 ar
    34   22   23 1
    35   22   24 ar
    36   23   37 1
    37   23   38 1
    38   24   25 ar
    39   25   26 ar
    40   25   39 1
    41   26   27 ar
@<TRIPOS>SUBSTRUCTURE
     1 ADP         1 GROUP   0 A     ****
@<TRIPOS>MOLECULE
[5-(6-amino-7,8-dihydropurin-8-ylium-9-yl)-3,4-dihydroxy-tetrahydrofuran-2-yl]methyl phosphono phosphate
   42    44     1     0     0
SMALL
USER_CHARGES

@<TRIPOS>ATOM
      1 PB         44.6690    2.9280   38.5560 P.3       1 ADP         1.7926
      2 O1B        46.0210    3.5080   38.3170 O.2       1 ADP        -0.8671
      3 O2B        43.7090    3.8120   37.9050 O.3       1 ADP        -0.7977
      4 O3B        44.4590    1.4490   38.3820 O.3       1 ADP        -0.7977
      5 PA         43.2300    2.9550   41.1100 P.3       1 ADP         1.5713
      6 O1A        41.9750    3.4970   40.5730 O.2       1 ADP        -0.8246
      7 O2A        42.9620    1.5010   41.4010 O.3       1 ADP        -0.8246
      8 O3A        44.5220    3.2100   40.2120 O.3       1 ADP        -0.7895
      9 O5'        43.4620    3.8320   42.4070 O.3       1 ADP        -0.5692
     10 C5'        43.7350    5.2460   42.3350 C.3       1 ADP         0.1817
     11 C4'        43.0950    5.8100   43.6260 C.3       1 ADP         0.1241
     12 O4'        43.7640    5.2610   44.7790 O.3       1 ADP        -0.4180
     13 C3'        43.3370    7.3250   43.6170 C.3       1 ADP         0.0897
     14 O3'        42.0560    7.9880   43.5600 O.3       1 ADP        -0.5722
     15 C2'        43.9460    7.5930   45.0830 C.3       1 ADP         0.0684
     16 O2'        43.5540    8.7260   45.8770 O.3       1 ADP        -0.5788
     17 C1'        43.6130    6.2750   45.8130 C.3       1 ADP         0.4193
     18 N9         44.3750    5.7810   46.9910 N.pl3     1 ADP        -0.5504
     19 C8         45.7110    5.4860   47.0620 C.cat     1 ADP         0.2923
     20 N7         46.2020    5.3790   48.2820 N.pl3     1 ADP        -0.5070
     21 C5         45.0670    5.5970   49.0640 C.ar      1 ADP        -0.2809
     22 C6         44.8830    5.6230   50.4990 C.ar      1 ADP         0.7722
     23 N6         45.9120    5.4330   51.3250 N.pl3     1 ADP        -0.9525
     24 N1         43.6260    5.8520   50.8960 N.ar      1 ADP        -0.7517
     25 C2         42.5900    6.0760   50.0670 C.ar      1 ADP         0.7177
     26 N3         42.6750    6.0670   48.7350 N.ar      1 ADP        -0.6859
     27 C4         43.9510    5.8210   48.3040 C.ar      1 ADP         0.6400
     28 HOB2       43.6161    3.8113   36.8089 H         1 ADP         0.4781
     29 HOB3       44.5050    1.0013   37.3783 H         1 ADP         0.4781
     30 H5'1       44.8225    5.4083   42.3038 H         1 ADP         0.0353
     31 H5'2       43.2759    5.6623   41.4262 H         1 ADP         0.0353
     32 H4'        42.0346    5.5352   43.7265 H         1 ADP         0.1240
     33 H3'        43.9002    7.6848   42.7433 H         1 ADP         0.1100
     34 HO3'       41.4519    7.9395   42.6420 H         1 ADP         0.4079
     35 H2'        44.9867    7.9464   45.0378 H         1 ADP         0.0651
     36 HO2'       43.7218    9.7459   45.5006 H         1 ADP         0.4221
     37 H1'        42.6269    6.4254   46.2768 H         1 ADP         0.1504
     38 H8         46.3580    5.3410   46.1810 H         1 ADP         0.2846
     39 HN61       46.9174    5.2500   50.9180 H         1 ADP         0.4590
     40 HN62       45.7556    5.4592   52.4135 H         1 ADP         0.4590
     41 H2         41.6010    6.2810   50.5100 H         1 ADP         0.0856
     42 H42        47.2714    5.1664   48.4278 H         1 ADP         0.5037
@<TRIPOS>BOND
     1    1    2 2
     2    1    3 1
     3    1    4 1
     4    1    8 1
     5    3   28 1
     6    4   29 1
     7    5    6 2
     8    5    7 1
     9    5    8 1
    10    5    9 1
    11    9   10 1
    12   10   11 1
    13   10   30 1
    14   10   31 1
    15   11   12 1
    16   11   13 1
    17   11   32 1
    18   12   17 1
    19   13   14 1
    20   13   15 1
    21   13   33 1
    22   14   34 1
    23   15   16 1
    24   15   17 1
    25   15   35 1
    26   16   36 1
    27   17   18 1
    28   17   37 1
    29   18   19 ar
    30   18   27 ar
    31   19   20 ar
    32   19   38 1
    33   20   21 ar
    34   20   42 1
    35   21   22 ar
    36   21   27 ar
    37   22   23 1
    38   22   24 ar
    39   23   39 1
    40   23   40 1
    41   24   25 ar
    42   25   26 ar
    43   25   41 1
    44   26   27 ar
@<TRIPOS>SUBSTRUCTURE
     1 ADP         1 GROUP   0 A     ****
@<TRIPOS>MOLECULE
[[5-(6-amino-1,8-dihydropurine-6,8-diylium-7-id-9-yl)-3,4-dihydroxy-tetrahydrofuran-2-yl]methoxy-hydroxy-phosphoryl] hydrogen phosphate
   42    44     1     0     0
SMALL
USER_CHARGES

@<TRIPOS>ATOM
      1 PB         44.6690    2.9280   38.5560 P.3       1 ADP         1.5430
      2 O1B        46.0210    3.5080   38.3170 O.2       1 ADP        -0.8221
      3 O2B        43.7090    3.8120   37.9050 O.3       1 ADP        -0.8221
      4 O3B        44.4590    1.4490   38.3820 O.3       1 ADP        -0.7753
      5 PA         43.2300    2.9550   41.1100 P.3       1 ADP         1.7742
      6 O1A        41.9750    3.4970   40.5730 O.2       1 ADP        -0.8218
      7 O2A        42.9620    1.5010   41.4010 O.3       1 ADP        -0.8246
      8 O3A        44.5220    3.2100   40.2120 O.3       1 ADP        -0.8022
      9 O5'        43.4620    3.8320   42.4070 O.3       1 ADP        -0.5673
     10 C5'        43.7350    5.2460   42.3350 C.3       1 ADP         0.2014
     11 C4'        43.0950    5.8100   43.6260 C.3       1 ADP         0.1139
     12 O4'        43.7640    5.2610   44.7790 O.3       1 ADP        -0.3725
     13 C3'        43.3370    7.3250   43.6170 C.3       1 ADP         0.0749
     14 O3'        42.0560    7.9880   43.5600 O.3       1 ADP        -0.5681
     15 C2'        43.9460    7.5930   45.0830 C.3       1 ADP         0.0769
     16 O2'        43.5540    8.7260   45.8770 O.3       1 ADP        -0.5822
     17 C1'        43.6130    6.2750   45.8130 C.3       1 ADP         0.3875
     18 N9         44.3750    5.7810   46.9910 N.pl3     1 ADP        -0.4529
     19 C8         45.7110    5.4860   47.0620 C.cat     1 ADP         0.1753
     20 N7         46.2020    5.3790   48.2820 N.ar      1 ADP        -0.2630
     21 C5         45.0670    5.5970   49.0640 C.ar      1 ADP        -0.1406
     22 C6         44.8830    5.6230   50.4990 C.cat     1 ADP         0.4878
     23 N6         45.9120    5.4330   51.3250 N.pl3     1 ADP        -0.8147
     24 N1         43.6260    5.8520   50.8960 N.pl3     1 ADP        -0.6958
     25 C2         42.5900    6.0760   50.0670 C.ar      1 ADP         0.6354
     26 N3         42.6750    6.0670   48.7350 N.ar      1 ADP        -0.5172
     27 C4         43.9510    5.8210   48.3040 C.ar      1 ADP         0.2882
     28 HOB3       44.5050    1.0013   37.3783 H         1 ADP         0.4342
     29 HOA2       42.7861    0.7978   40.5736 H         1 ADP         0.4878
     30 H5'1       44.8225    5.4083   42.3038 H         1 ADP         0.0439
     31 H5'2       43.2759    5.6623   41.4262 H         1 ADP         0.0439
     32 H4'        42.0346    5.5352   43.7265 H         1 ADP         0.1223
     33 H3'        43.9002    7.6848   42.7433 H         1 ADP         0.0675
     34 HO3'       41.4519    7.9395   42.6420 H         1 ADP         0.4207
     35 H2'        44.9867    7.9464   45.0378 H         1 ADP         0.0803
     36 HO2'       43.7218    9.7459   45.5006 H         1 ADP         0.4413
     37 H1'        42.6269    6.4254   46.2768 H         1 ADP         0.1337
     38 H8         46.3580    5.3410   46.1810 H         1 ADP         0.2640
     39 HN61       46.9174    5.2500   50.9180 H         1 ADP         0.4822
     40 HN62       45.7556    5.4592   52.4135 H         1 ADP         0.4822
     41 H2         41.6010    6.2810   50.5100 H         1 ADP         0.0997
     42 H42        43.3819    5.8661   51.9685 H         1 ADP         0.4801
@<TRIPOS>BOND
     1    1    2 2
     2    1    3 1
     3    1    4 1
     4    1    8 1
     5    4   28 1
     6    5    6 2
     7    5    7 1
     8    5    8 1
     9    5    9 1
    10    7   29 1
    11    9   10 1
    12   10   11 1
    13   10   30 1
    14   10   31 1
    15   11   12 1
    16   11   13 1
    17   11   32 1
    18   12   17 1
    19   13   14 1
    20   13   15 1
    21   13   33 1
    22   14   34 1
    23   15   16 1
    24   15   17 1
    25   15   35 1
    26   16   36 1
    27   17   18 1
    28   17   37 1
    29   18   19 ar
    30   18   27 ar
    31   19   20 ar
    32   19   38 1
    33   20   21 ar
    34   21   22 ar
    35   21   27 ar
    36   22   23 1
    37   22   24 ar
    38   23   39 1
    39   23   40 1
    40   24   25 ar
    41   24   42 1
    42   25   26 ar
    43   25   41 1
    44   26   27 ar
@<TRIPOS>SUBSTRUCTURE
     1 ADP         1 GROUP   0 A     ****
@<TRIPOS>MOLECULE
[5-(6-aminopurin-9-yl)-3,4-dihydroxy-tetrahydrofuran-2-yl]methyl phosphono hydrogen phosphate
   42    44     1     0     0
SMALL
USER_CHARGES

@<TRIPOS>ATOM
      1 PB         44.6690    2.9280   38.5560 P.3       1 ADP         1.8197
      2 O1B        46.0210    3.5080   38.3170 O.2       1 ADP        -0.8176
      3 O2B        43.7090    3.8120   37.9050 O.3       1 ADP        -0.7994
      4 O3B        44.4590    1.4490   38.3820 O.3       1 ADP        -0.7994
      5 PA         43.2300    2.9550   41.1100 P.3       1 ADP         1.8066
      6 O1A        41.9750    3.4970   40.5730 O.2       1 ADP        -0.8263
      7 O2A        42.9620    1.5010   41.4010 O.3       1 ADP        -0.8057
      8 O3A        44.5220    3.2100   40.2120 O.3       1 ADP        -0.8134
      9 O5'        43.4620    3.8320   42.4070 O.3       1 ADP        -0.5717
     10 C5'        43.7350    5.2460   42.3350 C.3       1 ADP         0.1811
     11 C4'        43.0950    5.8100   43.6260 C.3       1 ADP         0.1257
     12 O4'        43.7640    5.2610   44.7790 O.3       1 ADP        -0.4100
     13 C3'        43.3370    7.3250   43.6170 C.3       1 ADP         0.0730
     14 O3'        42.0560    7.9880   43.5600 O.3       1 ADP        -0.5828
     15 C2'        43.9460    7.5930   45.0830 C.3       1 ADP         0.0745
     16 O2'        43.5540    8.7260   45.8770 O.3       1 ADP        -0.5756
     17 C1'        43.6130    6.2750   45.8130 C.3       1 ADP         0.4049
     18 N9         44.3750    5.7810   46.9910 N.pl3     1 ADP        -0.6999
     19 C8         45.7110    5.4860   47.0620 C.ar      1 ADP         0.5140
     20 N7         46.2020    5.3790   48.2820 N.ar      1 ADP        -0.5354
     21 C5         45.0670    5.5970   49.0640 C.ar      1 ADP        -0.2398
     22 C6         44.8830    5.6230   50.4990 C.ar      1 ADP         0.7678
     23 N6         45.9120    5.4330   51.3250 N.pl3     1 ADP        -0.9603
     24 N1         43.6260    5.8520   50.8960 N.ar      1 ADP        -0.7960
     25 C2         42.5900    6.0760   50.0670 C.ar      1 ADP         0.6931
     26 N3         42.6750    6.0670   48.7350 N.ar      1 ADP        -0.7345
     27 C4         43.9510    5.8210   48.3040 C.ar      1 ADP         0.6089
     28 HOB2       43.6161    3.8113   36.8089 H         1 ADP         0.5026
     29 HOB3       44.5050    1.0013   37.3783 H         1 ADP         0.5026
     30 HOA2       42.7861    0.7978   40.5736 H         1 ADP         0.5024
     31 H5'1       44.8225    5.4083   42.3038 H         1 ADP         0.0640
     32 H5'2       43.2759    5.6623   41.4262 H         1 ADP         0.0640
     33 H4'        42.0346    5.5352   43.7265 H         1 ADP         0.1027
     34 H3'        43.9002    7.6848   42.7433 H         1 ADP         0.0595
     35 HO3'       41.4519    7.9395   42.6420 H         1 ADP         0.4220
     36 H2'        44.9867    7.9464   45.0378 H         1 ADP         0.0993
     37 HO2'       43.7218    9.7459   45.5006 H         1 ADP         0.4241
     38 H1'        42.6269    6.4254   46.2768 H         1 ADP         0.1336
     39 H8         46.3580    5.3410   46.1810 H         1 ADP         0.0662
     40 HN61       46.9174    5.2500   50.9180 H         1 ADP         0.4504
     41 HN62       45.7556    5.4592   52.4135 H         1 ADP         0.4504
     42 H2         41.6010    6.2810   50.5100 H         1 ADP         0.0547
@<TRIPOS>BOND
     1    1    2 2
     2    1    3 1
     3    1    4 1
     4    1    8 1
     5    3   28 1
     6    4   29 1
     7    5    6 2
     8    5    7 1
     9    5    8 1
    10    5    9 1
    11    7   30 1
    12    9   10 1
    13   10   11 1
    14   10   31 1
    15   10   32 1
    16   11   12 1
    17   11   13 1
    18   11   33 1
    19   12   17 1
    20   13   14 1
    21   13   15 1
    22   13   34 1
    23   14   35 1
    24   15   16 1
    25   15   17 1
    26   15   36 1
    27   16   37 1
    28   17   18 1
    29   17   38 1
    30   18   19 ar
    31   18   27 ar
    32   19   20 ar
    33   19   39 1
    34   20   21 ar
    35   21   22 ar
    36   21   27 ar
    37   22   23 1
    38   22   24 ar
    39   23   40 1
    40   23   41 1
    41   24   25 ar
    42   25   26 ar
    43   25   42 1
    44   26   27 ar
@<TRIPOS>SUBSTRUCTURE
     1 ADP         1 GROUP   0 A     ****
@<TRIPOS>MOLECULE
[5-(6-amino-1,8-dihydropurine-6,8-diylium-7-id-9-yl)-3,4-dihydroxy-tetrahydrofuran-2-yl]methyl phosphono phosphate
   42    44     1     0     0
SMALL
USER_CHARGES

@<TRIPOS>ATOM
      1 PB         44.6690    2.9280   38.5560 P.3       1 ADP         1.7669
      2 O1B        46.0210    3.5080   38.3170 O.2       1 ADP        -0.8739
      3 O2B        43.7090    3.8120   37.9050 O.3       1 ADP        -0.7695
      4 O3B        44.4590    1.4490   38.3820 O.3       1 ADP        -0.7695
      5 PA         43.2300    2.9550   41.1100 P.3       1 ADP         1.5558
      6 O1A        41.9750    3.4970   40.5730 O.2       1 ADP        -0.8185
      7 O2A        42.9620    1.5010   41.4010 O.3       1 ADP        -0.8185
      8 O3A        44.5220    3.2100   40.2120 O.3       1 ADP        -0.7805
      9 O5'        43.4620    3.8320   42.4070 O.3       1 ADP        -0.5653
     10 C5'        43.7350    5.2460   42.3350 C.3       1 ADP         0.1767
     11 C4'        43.0950    5.8100   43.6260 C.3       1 ADP         0.1275
     12 O4'        43.7640    5.2610   44.7790 O.3       1 ADP        -0.4151
     13 C3'        43.3370    7.3250   43.6170 C.3       1 ADP         0.0931
     14 O3'        42.0560    7.9880   43.5600 O.3       1 ADP        -0.5769
     15 C2'        43.9460    7.5930   45.0830 C.3       1 ADP         0.0646
     16 O2'        43.5540    8.7260   45.8770 O.3       1 ADP        -0.5924
     17 C1'        43.6130    6.2750   45.8130 C.3       1 ADP         0.4183
     18 N9         44.3750    5.7810   46.9910 N.pl3     1 ADP        -0.4441
     19 C8         45.7110    5.4860   47.0620 C.cat     1 ADP         0.1792
     20 N7         46.2020    5.3790   48.2820 N.ar      1 ADP        -0.2654
     21 C5         45.0670    5.5970   49.0640 C.ar      1 ADP        -0.1386
     22 C6         44.8830    5.6230   50.4990 C.cat     1 ADP         0.4874
     23 N6         45.9120    5.4330   51.3250 N.pl3     1 ADP        -0.8196
     24 N1         43.6260    5.8520   50.8960 N.pl3     1 ADP        -0.6969
     25 C2         42.5900    6.0760   50.0670 C.ar      1 ADP         0.6319
     26 N3         42.6750    6.0670   48.7350 N.ar      1 ADP        -0.5160
     27 C4         43.9510    5.8210   48.3040 C.ar      1 ADP         0.2994
     28 HOB2       43.6161    3.8113   36.8089 H         1 ADP         0.4604
     29 HOB3       44.5050    1.0013   37.3783 H         1 ADP         0.4604
     30 H5'1       44.8225    5.4083   42.3038 H         1 ADP         0.0356
     31 H5'2       43.2759    5.6623   41.4262 H         1 ADP         0.0356
     32 H4'        42.0346    5.5352   43.7265 H         1 ADP         0.1200
     33 H3'        43.9002    7.6848   42.7433 H         1 ADP         0.1103
     34 HO3'       41.4519    7.9395   42.6420 H         1 ADP         0.4067
     35 H2'        44.9867    7.9464   45.0378 H         1 ADP         0.0756
     36 HO2'       43.7218    9.7459   45.5006 H         1 ADP         0.4229
     37 H1'        42.6269    6.4254   46.2768 H         1 ADP         0.1264
     38 H8         46.3580    5.3410   46.1810 H         1 ADP         0.2690
     39 HN61       46.9174    5.2500   50.9180 H         1 ADP         0.4804
     40 HN62       45.7556    5.4592   52.4135 H         1 ADP         0.4804
     41 H2         41.6010    6.2810   50.5100 H         1 ADP         0.0971
     42 H42        43.3819    5.8661   51.9685 H         1 ADP         0.4792
@<TRIPOS>BOND
     1    1    2 2
     2    1    3 1
     3    1    4 1
     4    1    8 1
     5    3   28 1
     6    4   29 1
     7    5    6 2
     8    5    7 1
     9    5    8 1
    10    5    9 1
    11    9   10 1
    12   10   11 1
    13   10   30 1
    14   10   31 1
    15   11   12 1
    16   11   13 1
    17   11   32 1
    18   12   17 1
    19   13   14 1
    20   13   15 1
    21   13   33 1
    22   14   34 1
    23   15   16 1
    24   15   17 1
    25   15   35 1
    26   16   36 1
    27   17   18 1
    28   17   37 1
    29   18   19 ar
    30   18   27 ar
    31   19   20 ar
    32   19   38 1
    33   20   21 ar
    34   21   22 ar
    35   21   27 ar
    36   22   23 1
    37   22   24 ar
    38   23   39 1
    39   23   40 1
    40   24   25 ar
    41   24   42 1
    42   25   26 ar
    43   25   41 1
    44   26   27 ar
@<TRIPOS>SUBSTRUCTURE
     1 ADP         1 GROUP   0 A     ****
@<TRIPOS>MOLECULE
[[5-(6-aminopurin-9-yl)-3,4-dihydroxy-tetrahydrofuran-2-yl]methoxy-hydroxy-phosphoryl] phosphate
   40    42     1     0     0
SMALL
USER_CHARGES

@<TRIPOS>ATOM
      1 PB         44.6690    2.9280   38.5560 P.3       1 ADP         1.3677
      2 O1B        46.0210    3.5080   38.3170 O.2       1 ADP        -0.9011
      3 O2B        43.7090    3.8120   37.9050 O.3       1 ADP        -0.9011
      4 O3B        44.4590    1.4490   38.3820 O.3       1 ADP        -0.9011
      5 PA         43.2300    2.9550   41.1100 P.3       1 ADP         1.7006
      6 O1A        41.9750    3.4970   40.5730 O.2       1 ADP        -0.8813
      7 O2A        42.9620    1.5010   41.4010 O.3       1 ADP        -0.8139
      8 O3A        44.5220    3.2100   40.2120 O.3       1 ADP        -0.7326
      9 O5'        43.4620    3.8320   42.4070 O.3       1 ADP        -0.5696
     10 C5'        43.7350    5.2460   42.3350 C.3       1 ADP         0.1747
     11 C4'        43.0950    5.8100   43.6260 C.3       1 ADP         0.1166
     12 O4'        43.7640    5.2610   44.7790 O.3       1 ADP        -0.4164
     13 C3'        43.3370    7.3250   43.6170 C.3       1 ADP         0.1259
     14 O3'        42.0560    7.9880   43.5600 O.3       1 ADP        -0.5899
     15 C2'        43.9460    7.5930   45.0830 C.3       1 ADP         0.0655
     16 O2'        43.5540    8.7260   45.8770 O.3       1 ADP        -0.5928
     17 C1'        43.6130    6.2750   45.8130 C.3       1 ADP         0.3917
     18 N9         44.3750    5.7810   46.9910 N.pl3     1 ADP        -0.6826
     19 C8         45.7110    5.4860   47.0620 C.ar      1 ADP         0.5648
     20 N7         46.2020    5.3790   48.2820 N.ar      1 ADP        -0.5738
     21 C5         45.0670    5.5970   49.0640 C.ar      1 ADP        -0.2096
     22 C6         44.8830    5.6230   50.4990 C.ar      1 ADP         0.7326
     23 N6         45.9120    5.4330   51.3250 N.pl3     1 ADP        -0.9507
     24 N1         43.6260    5.8520   50.8960 N.ar      1 ADP        -0.8056
     25 C2         42.5900    6.0760   50.0670 C.ar      1 ADP         0.6648
     26 N3         42.6750    6.0670   48.7350 N.ar      1 ADP        -0.7283
     27 C4         43.9510    5.8210   48.3040 C.ar      1 ADP         0.5604
     28 HOA2       42.7861    0.7978   40.5736 H         1 ADP         0.4819
     29 H5'1       44.8225    5.4083   42.3038 H         1 ADP         0.0373
     30 H5'2       43.2759    5.6623   41.4262 H         1 ADP         0.0373
     31 H4'        42.0346    5.5352   43.7265 H         1 ADP         0.1169
     32 H3'        43.9002    7.6848   42.7433 H         1 ADP         0.1187
     33 HO3'       41.4519    7.9395   42.6420 H         1 ADP         0.4087
     34 H2'        44.9867    7.9464   45.0378 H         1 ADP         0.0698
     35 HO2'       43.7218    9.7459   45.5006 H         1 ADP         0.4122
     36 H1'        42.6269    6.4254   46.2768 H         1 ADP         0.1001
     37 H8         46.3580    5.3410   46.1810 H         1 ADP         0.1050
     38 HN61       46.9174    5.2500   50.9180 H         1 ADP         0.4290
     39 HN62       45.7556    5.4592   52.4135 H         1 ADP         0.4290
     40 H2         41.6010    6.2810   50.5100 H         1 ADP         0.0397
@<TRIPOS>BOND
     1    1    2 2
     2    1    3 1
     3    1    4 1
     4    1    8 1
     5    5    6 2
     6    5    7 1
     7    5    8 1
     8    5    9 1
     9    7   28 1
    10    9   10 1
    11   10   11 1
    12   10   29 1
    13   10   30 1
    14   11   12 1
    15   11   13 1
    16   11   31 1
    17   12   17 1
    18   13   14 1
    19   13   15 1
    20   13   32 1
    21   14   33 1
    22   15   16 1
    23   15   17 1
    24   15   34 1
    25   16   35 1
    26   17   18 1
    27   17   36 1
    28   18   19 ar
    29   18   27 ar
    30   19   20 ar
    31   19   37 1
    32   20   21 ar
    33   21   22 ar
    34   21   27 ar
    35   22   23 1
    36   22   24 ar
    37   23   38 1
    38   23   39 1
    39   24   25 ar
    40   25   26 ar
    41   25   40 1
    42   26   27 ar
@<TRIPOS>SUBSTRUCTURE
     1 ADP         1 GROUP   0 A     ****
@<TRIPOS>MOLECULE
[5-(6-amino-7,8-dihydropurin-8-ylium-9-yl)-3,4-dihydroxy-tetrahydrofuran-2-yl]methyl phosphono hydrogen phosphate
   43    45     1     0     0
SMALL
USER_CHARGES

@<TRIPOS>ATOM
      1 PB         44.6690    2.9280   38.5560 P.3       1 ADP         1.8235
      2 O1B        46.0210    3.5080   38.3170 O.2       1 ADP        -0.8367
      3 O2B        43.7090    3.8120   37.9050 O.3       1 ADP        -0.7999
      4 O3B        44.4590    1.4490   38.3820 O.3       1 ADP        -0.7999
      5 PA         43.2300    2.9550   41.1100 P.3       1 ADP         1.8048
      6 O1A        41.9750    3.4970   40.5730 O.2       1 ADP        -0.7906
      7 O2A        42.9620    1.5010   41.4010 O.3       1 ADP        -0.8196
      8 O3A        44.5220    3.2100   40.2120 O.3       1 ADP        -0.8107
      9 O5'        43.4620    3.8320   42.4070 O.3       1 ADP        -0.5680
     10 C5'        43.7350    5.2460   42.3350 C.3       1 ADP         0.1855
     11 C4'        43.0950    5.8100   43.6260 C.3       1 ADP         0.1120
     12 O4'        43.7640    5.2610   44.7790 O.3       1 ADP        -0.4045
     13 C3'        43.3370    7.3250   43.6170 C.3       1 ADP         0.1314
     14 O3'        42.0560    7.9880   43.5600 O.3       1 ADP        -0.5606
     15 C2'        43.9460    7.5930   45.0830 C.3       1 ADP         0.0810
     16 O2'        43.5540    8.7260   45.8770 O.3       1 ADP        -0.5646
     17 C1'        43.6130    6.2750   45.8130 C.3       1 ADP         0.3903
     18 N9         44.3750    5.7810   46.9910 N.pl3     1 ADP        -0.5755
     19 C8         45.7110    5.4860   47.0620 C.cat     1 ADP         0.2853
     20 N7         46.2020    5.3790   48.2820 N.pl3     1 ADP        -0.4951
     21 C5         45.0670    5.5970   49.0640 C.ar      1 ADP        -0.2842
     22 C6         44.8830    5.6230   50.4990 C.ar      1 ADP         0.7828
     23 N6         45.9120    5.4330   51.3250 N.pl3     1 ADP        -0.9348
     24 N1         43.6260    5.8520   50.8960 N.ar      1 ADP        -0.7360
     25 C2         42.5900    6.0760   50.0670 C.ar      1 ADP         0.7330
     26 N3         42.6750    6.0670   48.7350 N.ar      1 ADP        -0.7203
     27 C4         43.9510    5.8210   48.3040 C.ar      1 ADP         0.6258
     28 HOB2       43.6161    3.8113   36.8089 H         1 ADP         0.5089
     29 HOB3       44.5050    1.0013   37.3783 H         1 ADP         0.5089
     30 HOA2       42.7861    0.7978   40.5736 H         1 ADP         0.5038
     31 H5'1       44.8225    5.4083   42.3038 H         1 ADP         0.0613
     32 H5'2       43.2759    5.6623   41.4262 H         1 ADP         0.0613
     33 H4'        42.0346    5.5352   43.7265 H         1 ADP         0.1344
     34 H3'        43.9002    7.6848   42.7433 H         1 ADP         0.0591
     35 HO3'       41.4519    7.9395   42.6420 H         1 ADP         0.4393
     36 H2'        44.9867    7.9464   45.0378 H         1 ADP         0.0831
     37 HO2'       43.7218    9.7459   45.5006 H         1 ADP         0.4365
     38 H1'        42.6269    6.4254   46.2768 H         1 ADP         0.1376
     39 H8         46.3580    5.3410   46.1810 H         1 ADP         0.2751
     40 HN61       46.9174    5.2500   50.9180 H         1 ADP         0.4664
     41 HN62       45.7556    5.4592   52.4135 H         1 ADP         0.4664
     42 H2         41.6010    6.2810   50.5100 H         1 ADP         0.0952
     43 H43        47.2714    5.1664   48.4278 H         1 ADP         0.5087
@<TRIPOS>BOND
     1    1    2 2
     2    1    3 1
     3    1    4 1
     4    1    8 1
     5    3   28 1
     6    4   29 1
     7    5    6 2
     8    5    7 1
     9    5    8 1
    10    5    9 1
    11    7   30 1
    12    9   10 1
    13   10   11 1
    14   10   31 1
    15   10   32 1
    16   11   12 1
    17   11   13 1
    18   11   33 1
    19   12   17 1
    20   13   14 1
    21   13   15 1
    22   13   34 1
    23   14   35 1
    24   15   16 1
    25   15   17 1
    26   15   36 1
    27   16   37 1
    28   17   18 1
    29   17   38 1
    30   18   19 ar
    31   18   27 ar
    32   19   20 ar
    33   19   39 1
    34   20   21 ar
    35   20   43 1
    36   21   22 ar
    37   21   27 ar
    38   22   23 1
    39   22   24 ar
    40   23   40 1
    41   23   41 1
    42   24   25 ar
    43   25   26 ar
    44   25   42 1
    45   26   27 ar
@<TRIPOS>SUBSTRUCTURE
     1 ADP         1 GROUP   0 A     ****
