ADP
                    3D
 Structure written by MMmdl.
 40 42  0  0  1  0            999 V2000
   44.6690    2.9280   38.5560 P   0  0  0  0  0  0
   46.0210    3.5080   38.3170 O   0  0  0  0  0  0
   43.7090    3.8120   37.9050 O   0  5  0  0  0  0
   44.4590    1.4490   38.3820 O   0  0  0  0  0  0
   43.2300    2.9550   41.1100 P   0  0  0  0  0  0
   41.9750    3.4970   40.5730 O   0  0  0  0  0  0
   42.9620    1.5010   41.4010 O   0  5  0  0  0  0
   44.5220    3.2100   40.2120 O   0  0  0  0  0  0
   43.4620    3.8320   42.4070 O   0  0  0  0  0  0
   43.7350    5.2460   42.3350 C   0  0  0  0  0  0
   43.0950    5.8100   43.6260 C   0  0  1  0  0  0
   43.7640    5.2610   44.7790 O   0  0  0  0  0  0
   43.3370    7.3250   43.6170 C   0  0  1  0  0  0
   42.0560    7.9880   43.5600 O   0  0  0  0  0  0
   43.9460    7.5930   45.0830 C   0  0  1  0  0  0
   43.5540    8.7260   45.8770 O   0  0  0  0  0  0
   43.6130    6.2750   45.8130 C   0  0  2  0  0  0
   44.3750    5.7810   46.9910 N   0  0  0  0  0  0
   45.7110    5.4860   47.0620 C   0  0  0  0  0  0
   46.2020    5.3790   48.2820 N   0  0  0  0  0  0
   45.0670    5.5970   49.0640 C   0  0  0  0  0  0
   44.8830    5.6230   50.4990 C   0  0  0  0  0  0
   45.9120    5.4330   51.3250 N   0  0  0  0  0  0
   43.6260    5.8520   50.8960 N   0  0  0  0  0  0
   42.5900    6.0760   50.0670 C   0  0  0  0  0  0
   42.6750    6.0670   48.7350 N   0  0  0  0  0  0
   43.9510    5.8210   48.3040 C   0  0  0  0  0  0
   44.5050    1.0013   37.3783 H   0  0  0  0  0  0
   44.8225    5.4083   42.3038 H   0  0  0  0  0  0
   43.2759    5.6623   41.4262 H   0  0  0  0  0  0
   42.0346    5.5352   43.7265 H   0  0  0  0  0  0
   43.9002    7.6848   42.7433 H   0  0  0  0  0  0
   41.4519    7.9395   42.6420 H   0  0  0  0  0  0
   44.9867    7.9464   45.0378 H   0  0  0  0  0  0
   43.7218    9.7459   45.5006 H   0  0  0  0  0  0
   42.6269    6.4254   46.2768 H   0  0  0  0  0  0
   46.3580    5.3410   46.1810 H   0  0  0  0  0  0
   46.9174    5.2500   50.9180 H   0  0  0  0  0  0
   45.7556    5.4592   52.4135 H   0  0  0  0  0  0
   41.6010    6.2810   50.5100 H   0  0  0  0  0  0
  1  2  2  0  0  0
  1  3  1  0  0  0
  1  4  1  0  0  0
  1  8  1  0  0  0
  4 28  1  0  0  0
  5  6  2  0  0  0
  5  7  1  0  0  0
  5  8  1  0  0  0
  5  9  1  0  0  0
  9 10  1  0  0  0
 10 11  1  0  0  0
 10 29  1  0  0  0
 10 30  1  0  0  0
 11 12  1  0  0  0
 11 13  1  0  0  0
 11 31  1  0  0  0
 12 17  1  0  0  0
 13 14  1  0  0  0
 13 15  1  0  0  0
 13 32  1  0  0  0
 14 33  1  0  0  0
 15 16  1  0  0  0
 15 17  1  0  0  0
 15 34  1  0  0  0
 16 35  1  0  0  0
 17 18  1  0  0  0
 17 36  1  0  0  0
 18 19  1  0  0  0
 18 27  1  0  0  0
 19 20  2  0  0  0
 19 37  1  0  0  0
 20 21  1  0  0  0
 21 22  2  0  0  0
 21 27  1  0  0  0
 22 23  1  0  0  0
 22 24  1  0  0  0
 23 38  1  0  0  0
 23 39  1  0  0  0
 24 25  2  0  0  0
 25 26  1  0  0  0
 25 40  1  0  0  0
 26 27  2  0  0  0
M  CHG  2   3  -1   7  -1
M  END
> <s_m_source_file>
/cbio/jclab/home/rustenburg/PFK/Epik-Ligands/Results/InProgress/ADENOSINE-5'-DIPHOSPHATE/pH_4.0/ADENOSINE-5'-DIPHOSPHATE_pH_4.0-before_epik.mol2

> <i_m_source_file_index>
1

> <r_lp_tautomer_probability>
0.999997216410988

> <r_epik_Ionization_Penalty>
  0.5608

> <r_epik_Ionization_Penalty_Charging>
  0.2291

> <r_epik_Ionization_Penalty_Neutral>
  0.3317

> <r_epik_State_Penalty>
  0.0332

> <r_epik_Charging_Adjusted_Penalty>
0.262353600357556

> <i_epik_Tot_Q>
-2

> <i_epik_Tot_abs_Q>
2

> <s_epik_Chemistry_Notes>
This compound contains an acetal/aminal-like group ( X-CH(R)-Y where X, Y are N, S, or O) that may be acid/base labile, releasing an aldehyde.

$$$$
ADP
                    3D
 Structure written by MMmdl.
 41 43  0  0  1  0            999 V2000
   44.6690    2.9280   38.5560 P   0  0  0  0  0  0
   46.0210    3.5080   38.3170 O   0  0  0  0  0  0
   43.7090    3.8120   37.9050 O   0  5  0  0  0  0
   44.4590    1.4490   38.3820 O   0  0  0  0  0  0
   43.2300    2.9550   41.1100 P   0  0  1  0  0  0
   41.9750    3.4970   40.5730 O   0  0  0  0  0  0
   42.9620    1.5010   41.4010 O   0  0  0  0  0  0
   44.5220    3.2100   40.2120 O   0  0  0  0  0  0
   43.4620    3.8320   42.4070 O   0  0  0  0  0  0
   43.7350    5.2460   42.3350 C   0  0  0  0  0  0
   43.0950    5.8100   43.6260 C   0  0  1  0  0  0
   43.7640    5.2610   44.7790 O   0  0  0  0  0  0
   43.3370    7.3250   43.6170 C   0  0  1  0  0  0
   42.0560    7.9880   43.5600 O   0  0  0  0  0  0
   43.9460    7.5930   45.0830 C   0  0  1  0  0  0
   43.5540    8.7260   45.8770 O   0  0  0  0  0  0
   43.6130    6.2750   45.8130 C   0  0  2  0  0  0
   44.3750    5.7810   46.9910 N   0  0  0  0  0  0
   45.7110    5.4860   47.0620 C   0  0  0  0  0  0
   46.2020    5.3790   48.2820 N   0  0  0  0  0  0
   45.0670    5.5970   49.0640 C   0  0  0  0  0  0
   44.8830    5.6230   50.4990 C   0  0  0  0  0  0
   45.9120    5.4330   51.3250 N   0  0  0  0  0  0
   43.6260    5.8520   50.8960 N   0  0  0  0  0  0
   42.5900    6.0760   50.0670 C   0  0  0  0  0  0
   42.6750    6.0670   48.7350 N   0  0  0  0  0  0
   43.9510    5.8210   48.3040 C   0  0  0  0  0  0
   44.5050    1.0013   37.3783 H   0  0  0  0  0  0
   42.7861    0.7978   40.5736 H   0  0  0  0  0  0
   44.8225    5.4083   42.3038 H   0  0  0  0  0  0
   43.2759    5.6623   41.4262 H   0  0  0  0  0  0
   42.0346    5.5352   43.7265 H   0  0  0  0  0  0
   43.9002    7.6848   42.7433 H   0  0  0  0  0  0
   41.4519    7.9395   42.6420 H   0  0  0  0  0  0
   44.9867    7.9464   45.0378 H   0  0  0  0  0  0
   43.7218    9.7459   45.5006 H   0  0  0  0  0  0
   42.6269    6.4254   46.2768 H   0  0  0  0  0  0
   46.3580    5.3410   46.1810 H   0  0  0  0  0  0
   46.9174    5.2500   50.9180 H   0  0  0  0  0  0
   45.7556    5.4592   52.4135 H   0  0  0  0  0  0
   41.6010    6.2810   50.5100 H   0  0  0  0  0  0
  1  2  2  0  0  0
  1  3  1  0  0  0
  1  4  1  0  0  0
  1  8  1  0  0  0
  4 28  1  0  0  0
  5  6  2  0  0  0
  5  7  1  0  0  0
  5  8  1  0  0  0
  5  9  1  0  0  0
  7 29  1  0  0  0
  9 10  1  0  0  0
 10 11  1  0  0  0
 10 30  1  0  0  0
 10 31  1  0  0  0
 11 12  1  0  0  0
 11 13  1  0  0  0
 11 32  1  0  0  0
 12 17  1  0  0  0
 13 14  1  0  0  0
 13 15  1  0  0  0
 13 33  1  0  0  0
 14 34  1  0  0  0
 15 16  1  0  0  0
 15 17  1  0  0  0
 15 35  1  0  0  0
 16 36  1  0  0  0
 17 18  1  0  0  0
 17 37  1  0  0  0
 18 19  1  0  0  0
 18 27  1  0  0  0
 19 20  2  0  0  0
 19 38  1  0  0  0
 20 21  1  0  0  0
 21 22  2  0  0  0
 21 27  1  0  0  0
 22 23  1  0  0  0
 22 24  1  0  0  0
 23 39  1  0  0  0
 23 40  1  0  0  0
 24 25  2  0  0  0
 25 26  1  0  0  0
 25 41  1  0  0  0
 26 27  2  0  0  0
M  CHG  1   3  -1
M  END
> <s_m_source_file>
/cbio/jclab/home/rustenburg/PFK/Epik-Ligands/Results/InProgress/ADENOSINE-5'-DIPHOSPHATE/pH_4.0/ADENOSINE-5'-DIPHOSPHATE_pH_4.0-before_epik.mol2

> <i_m_source_file_index>
1

> <r_epik_Ionization_Penalty>
  1.4088

> <r_epik_Ionization_Penalty_Charging>
  0.0419

> <r_epik_Ionization_Penalty_Neutral>
  1.3670

> <r_epik_State_Penalty>
  2.2911

> <r_epik_Charging_Adjusted_Penalty>
2.33300450487909

> <i_epik_Tot_Q>
-1

> <i_epik_Tot_abs_Q>
1

> <s_epik_Chemistry_Notes>
This compound contains an acetal/aminal-like group ( X-CH(R)-Y where X, Y are N, S, or O) that may be acid/base labile, releasing an aldehyde.

$$$$
ADP
                    3D
 Structure written by MMmdl.
 41 43  0  0  1  0            999 V2000
   44.6690    2.9280   38.5560 P   0  0  0  0  0  0
   46.0210    3.5080   38.3170 O   0  0  0  0  0  0
   43.7090    3.8120   37.9050 O   0  0  0  0  0  0
   44.4590    1.4490   38.3820 O   0  0  0  0  0  0
   43.2300    2.9550   41.1100 P   0  0  0  0  0  0
   41.9750    3.4970   40.5730 O   0  0  0  0  0  0
   42.9620    1.5010   41.4010 O   0  5  0  0  0  0
   44.5220    3.2100   40.2120 O   0  0  0  0  0  0
   43.4620    3.8320   42.4070 O   0  0  0  0  0  0
   43.7350    5.2460   42.3350 C   0  0  0  0  0  0
   43.0950    5.8100   43.6260 C   0  0  1  0  0  0
   43.7640    5.2610   44.7790 O   0  0  0  0  0  0
   43.3370    7.3250   43.6170 C   0  0  1  0  0  0
   42.0560    7.9880   43.5600 O   0  0  0  0  0  0
   43.9460    7.5930   45.0830 C   0  0  1  0  0  0
   43.5540    8.7260   45.8770 O   0  0  0  0  0  0
   43.6130    6.2750   45.8130 C   0  0  2  0  0  0
   44.3750    5.7810   46.9910 N   0  0  0  0  0  0
   45.7110    5.4860   47.0620 C   0  0  0  0  0  0
   46.2020    5.3790   48.2820 N   0  0  0  0  0  0
   45.0670    5.5970   49.0640 C   0  0  0  0  0  0
   44.8830    5.6230   50.4990 C   0  0  0  0  0  0
   45.9120    5.4330   51.3250 N   0  0  0  0  0  0
   43.6260    5.8520   50.8960 N   0  0  0  0  0  0
   42.5900    6.0760   50.0670 C   0  0  0  0  0  0
   42.6750    6.0670   48.7350 N   0  0  0  0  0  0
   43.9510    5.8210   48.3040 C   0  0  0  0  0  0
   43.6161    3.8113   36.8089 H   0  0  0  0  0  0
   44.5050    1.0013   37.3783 H   0  0  0  0  0  0
   44.8225    5.4083   42.3038 H   0  0  0  0  0  0
   43.2759    5.6623   41.4262 H   0  0  0  0  0  0
   42.0346    5.5352   43.7265 H   0  0  0  0  0  0
   43.9002    7.6848   42.7433 H   0  0  0  0  0  0
   41.4519    7.9395   42.6420 H   0  0  0  0  0  0
   44.9867    7.9464   45.0378 H   0  0  0  0  0  0
   43.7218    9.7459   45.5006 H   0  0  0  0  0  0
   42.6269    6.4254   46.2768 H   0  0  0  0  0  0
   46.3580    5.3410   46.1810 H   0  0  0  0  0  0
   46.9174    5.2500   50.9180 H   0  0  0  0  0  0
   45.7556    5.4592   52.4135 H   0  0  0  0  0  0
   41.6010    6.2810   50.5100 H   0  0  0  0  0  0
  1  2  2  0  0  0
  1  3  1  0  0  0
  1  4  1  0  0  0
  1  8  1  0  0  0
  3 28  1  0  0  0
  4 29  1  0  0  0
  5  6  2  0  0  0
  5  7  1  0  0  0
  5  8  1  0  0  0
  5  9  1  0  0  0
  9 10  1  0  0  0
 10 11  1  0  0  0
 10 30  1  0  0  0
 10 31  1  0  0  0
 11 12  1  0  0  0
 11 13  1  0  0  0
 11 32  1  0  0  0
 12 17  1  0  0  0
 13 14  1  0  0  0
 13 15  1  0  0  0
 13 33  1  0  0  0
 14 34  1  0  0  0
 15 16  1  0  0  0
 15 17  1  0  0  0
 15 35  1  0  0  0
 16 36  1  0  0  0
 17 18  1  0  0  0
 17 37  1  0  0  0
 18 19  1  0  0  0
 18 27  1  0  0  0
 19 20  2  0  0  0
 19 38  1  0  0  0
 20 21  1  0  0  0
 21 22  2  0  0  0
 21 27  1  0  0  0
 22 23  1  0  0  0
 22 24  1  0  0  0
 23 39  1  0  0  0
 23 40  1  0  0  0
 24 25  2  0  0  0
 25 26  1  0  0  0
 25 41  1  0  0  0
 26 27  2  0  0  0
M  CHG  1   7  -1
M  END
> <s_m_source_file>
/cbio/jclab/home/rustenburg/PFK/Epik-Ligands/Results/InProgress/ADENOSINE-5'-DIPHOSPHATE/pH_4.0/ADENOSINE-5'-DIPHOSPHATE_pH_4.0-before_epik.mol2

> <i_m_source_file_index>
1

> <r_epik_Ionization_Penalty>
  1.4314

> <r_epik_Ionization_Penalty_Charging>
  0.0695

> <r_epik_Ionization_Penalty_Neutral>
  1.3619

> <r_epik_State_Penalty>
  2.4710

> <r_epik_Charging_Adjusted_Penalty>
2.54056513536918

> <i_epik_Tot_Q>
-1

> <i_epik_Tot_abs_Q>
1

> <s_epik_Chemistry_Notes>
This compound contains an acetal/aminal-like group ( X-CH(R)-Y where X, Y are N, S, or O) that may be acid/base labile, releasing an aldehyde.

$$$$
ADP
                    3D
 Structure written by MMmdl.
 41 43  0  0  1  0            999 V2000
   44.6690    2.9280   38.5560 P   0  0  0  0  0  0
   46.0210    3.5080   38.3170 O   0  0  0  0  0  0
   43.7090    3.8120   37.9050 O   0  5  0  0  0  0
   44.4590    1.4490   38.3820 O   0  0  0  0  0  0
   43.2300    2.9550   41.1100 P   0  0  0  0  0  0
   41.9750    3.4970   40.5730 O   0  0  0  0  0  0
   42.9620    1.5010   41.4010 O   0  5  0  0  0  0
   44.5220    3.2100   40.2120 O   0  0  0  0  0  0
   43.4620    3.8320   42.4070 O   0  0  0  0  0  0
   43.7350    5.2460   42.3350 C   0  0  0  0  0  0
   43.0950    5.8100   43.6260 C   0  0  1  0  0  0
   43.7640    5.2610   44.7790 O   0  0  0  0  0  0
   43.3370    7.3250   43.6170 C   0  0  1  0  0  0
   42.0560    7.9880   43.5600 O   0  0  0  0  0  0
   43.9460    7.5930   45.0830 C   0  0  1  0  0  0
   43.5540    8.7260   45.8770 O   0  0  0  0  0  0
   43.6130    6.2750   45.8130 C   0  0  2  0  0  0
   44.3750    5.7810   46.9910 N   0  0  0  0  0  0
   45.7110    5.4860   47.0620 C   0  0  0  0  0  0
   46.2020    5.3790   48.2820 N   0  3  0  0  0  0
   45.0670    5.5970   49.0640 C   0  0  0  0  0  0
   44.8830    5.6230   50.4990 C   0  0  0  0  0  0
   45.9120    5.4330   51.3250 N   0  0  0  0  0  0
   43.6260    5.8520   50.8960 N   0  0  0  0  0  0
   42.5900    6.0760   50.0670 C   0  0  0  0  0  0
   42.6750    6.0670   48.7350 N   0  0  0  0  0  0
   43.9510    5.8210   48.3040 C   0  0  0  0  0  0
   44.5050    1.0013   37.3783 H   0  0  0  0  0  0
   44.8225    5.4083   42.3038 H   0  0  0  0  0  0
   43.2759    5.6623   41.4262 H   0  0  0  0  0  0
   42.0346    5.5352   43.7265 H   0  0  0  0  0  0
   43.9002    7.6848   42.7433 H   0  0  0  0  0  0
   41.4519    7.9395   42.6420 H   0  0  0  0  0  0
   44.9867    7.9464   45.0378 H   0  0  0  0  0  0
   43.7218    9.7459   45.5006 H   0  0  0  0  0  0
   42.6269    6.4254   46.2768 H   0  0  0  0  0  0
   46.3580    5.3410   46.1810 H   0  0  0  0  0  0
   46.9174    5.2500   50.9180 H   0  0  0  0  0  0
   45.7556    5.4592   52.4135 H   0  0  0  0  0  0
   41.6010    6.2810   50.5100 H   0  0  0  0  0  0
   47.2714    5.1664   48.4278 H   0  0  0  0  0  0
  1  2  2  0  0  0
  1  3  1  0  0  0
  1  4  1  0  0  0
  1  8  1  0  0  0
  4 28  1  0  0  0
  5  6  2  0  0  0
  5  7  1  0  0  0
  5  8  1  0  0  0
  5  9  1  0  0  0
  9 10  1  0  0  0
 10 11  1  0  0  0
 10 29  1  0  0  0
 10 30  1  0  0  0
 11 12  1  0  0  0
 11 13  1  0  0  0
 11 31  1  0  0  0
 12 17  1  0  0  0
 13 14  1  0  0  0
 13 15  1  0  0  0
 13 32  1  0  0  0
 14 33  1  0  0  0
 15 16  1  0  0  0
 15 17  1  0  0  0
 15 34  1  0  0  0
 16 35  1  0  0  0
 17 18  1  0  0  0
 17 36  1  0  0  0
 18 19  1  0  0  0
 18 27  1  0  0  0
 19 20  2  0  0  0
 19 37  1  0  0  0
 20 21  1  0  0  0
 20 41  1  0  0  0
 21 22  2  0  0  0
 21 27  1  0  0  0
 22 23  1  0  0  0
 22 24  1  0  0  0
 23 38  1  0  0  0
 23 39  1  0  0  0
 24 25  2  0  0  0
 25 26  1  0  0  0
 25 40  1  0  0  0
 26 27  2  0  0  0
M  CHG  3   3  -1   7  -1  20   1
M  END
> <s_m_source_file>
/cbio/jclab/home/rustenburg/PFK/Epik-Ligands/Results/InProgress/ADENOSINE-5'-DIPHOSPHATE/pH_4.0/ADENOSINE-5'-DIPHOSPHATE_pH_4.0-before_epik.mol2

> <i_m_source_file_index>
1

> <r_epik_Ionization_Penalty>
  2.1336

> <r_epik_Ionization_Penalty_Charging>
  2.1224

> <r_epik_Ionization_Penalty_Neutral>
  0.0112

> <r_epik_State_Penalty>
  2.8869

> <r_epik_Charging_Adjusted_Penalty>
5.00926895894811

> <i_epik_Tot_Q>
-1

> <i_epik_Tot_abs_Q>
3

> <s_epik_Chemistry_Notes>
This compound contains an acetal/aminal-like group ( X-CH(R)-Y where X, Y are N, S, or O) that may be acid/base labile, releasing an aldehyde.

$$$$
ADP
                    3D
 Structure written by MMmdl.
 42 44  0  0  1  0            999 V2000
   44.6690    2.9280   38.5560 P   0  0  0  0  0  0
   46.0210    3.5080   38.3170 O   0  0  0  0  0  0
   43.7090    3.8120   37.9050 O   0  5  0  0  0  0
   44.4590    1.4490   38.3820 O   0  0  0  0  0  0
   43.2300    2.9550   41.1100 P   0  0  1  0  0  0
   41.9750    3.4970   40.5730 O   0  0  0  0  0  0
   42.9620    1.5010   41.4010 O   0  0  0  0  0  0
   44.5220    3.2100   40.2120 O   0  0  0  0  0  0
   43.4620    3.8320   42.4070 O   0  0  0  0  0  0
   43.7350    5.2460   42.3350 C   0  0  0  0  0  0
   43.0950    5.8100   43.6260 C   0  0  1  0  0  0
   43.7640    5.2610   44.7790 O   0  0  0  0  0  0
   43.3370    7.3250   43.6170 C   0  0  1  0  0  0
   42.0560    7.9880   43.5600 O   0  0  0  0  0  0
   43.9460    7.5930   45.0830 C   0  0  1  0  0  0
   43.5540    8.7260   45.8770 O   0  0  0  0  0  0
   43.6130    6.2750   45.8130 C   0  0  2  0  0  0
   44.3750    5.7810   46.9910 N   0  0  0  0  0  0
   45.7110    5.4860   47.0620 C   0  0  0  0  0  0
   46.2020    5.3790   48.2820 N   0  3  0  0  0  0
   45.0670    5.5970   49.0640 C   0  0  0  0  0  0
   44.8830    5.6230   50.4990 C   0  0  0  0  0  0
   45.9120    5.4330   51.3250 N   0  0  0  0  0  0
   43.6260    5.8520   50.8960 N   0  0  0  0  0  0
   42.5900    6.0760   50.0670 C   0  0  0  0  0  0
   42.6750    6.0670   48.7350 N   0  0  0  0  0  0
   43.9510    5.8210   48.3040 C   0  0  0  0  0  0
   44.5050    1.0013   37.3783 H   0  0  0  0  0  0
   42.7861    0.7978   40.5736 H   0  0  0  0  0  0
   44.8225    5.4083   42.3038 H   0  0  0  0  0  0
   43.2759    5.6623   41.4262 H   0  0  0  0  0  0
   42.0346    5.5352   43.7265 H   0  0  0  0  0  0
   43.9002    7.6848   42.7433 H   0  0  0  0  0  0
   41.4519    7.9395   42.6420 H   0  0  0  0  0  0
   44.9867    7.9464   45.0378 H   0  0  0  0  0  0
   43.7218    9.7459   45.5006 H   0  0  0  0  0  0
   42.6269    6.4254   46.2768 H   0  0  0  0  0  0
   46.3580    5.3410   46.1810 H   0  0  0  0  0  0
   46.9174    5.2500   50.9180 H   0  0  0  0  0  0
   45.7556    5.4592   52.4135 H   0  0  0  0  0  0
   41.6010    6.2810   50.5100 H   0  0  0  0  0  0
   47.2714    5.1664   48.4278 H   0  0  0  0  0  0
  1  2  2  0  0  0
  1  3  1  0  0  0
  1  4  1  0  0  0
  1  8  1  0  0  0
  4 28  1  0  0  0
  5  6  2  0  0  0
  5  7  1  0  0  0
  5  8  1  0  0  0
  5  9  1  0  0  0
  7 29  1  0  0  0
  9 10  1  0  0  0
 10 11  1  0  0  0
 10 30  1  0  0  0
 10 31  1  0  0  0
 11 12  1  0  0  0
 11 13  1  0  0  0
 11 32  1  0  0  0
 12 17  1  0  0  0
 13 14  1  0  0  0
 13 15  1  0  0  0
 13 33  1  0  0  0
 14 34  1  0  0  0
 15 16  1  0  0  0
 15 17  1  0  0  0
 15 35  1  0  0  0
 16 36  1  0  0  0
 17 18  1  0  0  0
 17 37  1  0  0  0
 18 19  1  0  0  0
 18 27  1  0  0  0
 19 20  2  0  0  0
 19 38  1  0  0  0
 20 21  1  0  0  0
 20 42  1  0  0  0
 21 22  2  0  0  0
 21 27  1  0  0  0
 22 23  1  0  0  0
 22 24  1  0  0  0
 23 39  1  0  0  0
 23 40  1  0  0  0
 24 25  2  0  0  0
 25 26  1  0  0  0
 25 41  1  0  0  0
 26 27  2  0  0  0
M  CHG  2   3  -1  20   1
M  END
> <s_m_source_file>
/cbio/jclab/home/rustenburg/PFK/Epik-Ligands/Results/InProgress/ADENOSINE-5'-DIPHOSPHATE/pH_4.0/ADENOSINE-5'-DIPHOSPHATE_pH_4.0-before_epik.mol2

> <i_m_source_file_index>
1

> <r_epik_Ionization_Penalty>
  2.9879

> <r_epik_Ionization_Penalty_Charging>
  1.9363

> <r_epik_Ionization_Penalty_Neutral>
  1.0516

> <r_epik_State_Penalty>
  3.6489

> <r_epik_Charging_Adjusted_Penalty>
5.58519883913148

> <i_epik_Tot_Q>
0

> <i_epik_Tot_abs_Q>
2

> <s_epik_Chemistry_Notes>
This compound contains an acetal/aminal-like group ( X-CH(R)-Y where X, Y are N, S, or O) that may be acid/base labile, releasing an aldehyde.

$$$$
ADP
                    3D
 Structure written by MMmdl.
 41 43  0  0  1  0            999 V2000
   44.6690    2.9280   38.5560 P   0  0  0  0  0  0
   46.0210    3.5080   38.3170 O   0  0  0  0  0  0
   43.7090    3.8120   37.9050 O   0  5  0  0  0  0
   44.4590    1.4490   38.3820 O   0  0  0  0  0  0
   43.2300    2.9550   41.1100 P   0  0  0  0  0  0
   41.9750    3.4970   40.5730 O   0  0  0  0  0  0
   42.9620    1.5010   41.4010 O   0  5  0  0  0  0
   44.5220    3.2100   40.2120 O   0  0  0  0  0  0
   43.4620    3.8320   42.4070 O   0  0  0  0  0  0
   43.7350    5.2460   42.3350 C   0  0  0  0  0  0
   43.0950    5.8100   43.6260 C   0  0  1  0  0  0
   43.7640    5.2610   44.7790 O   0  0  0  0  0  0
   43.3370    7.3250   43.6170 C   0  0  1  0  0  0
   42.0560    7.9880   43.5600 O   0  0  0  0  0  0
   43.9460    7.5930   45.0830 C   0  0  1  0  0  0
   43.5540    8.7260   45.8770 O   0  0  0  0  0  0
   43.6130    6.2750   45.8130 C   0  0  2  0  0  0
   44.3750    5.7810   46.9910 N   0  0  0  0  0  0
   45.7110    5.4860   47.0620 C   0  0  0  0  0  0
   46.2020    5.3790   48.2820 N   0  0  0  0  0  0
   45.0670    5.5970   49.0640 C   0  0  0  0  0  0
   44.8830    5.6230   50.4990 C   0  0  0  0  0  0
   45.9120    5.4330   51.3250 N   0  0  0  0  0  0
   43.6260    5.8520   50.8960 N   0  3  0  0  0  0
   42.5900    6.0760   50.0670 C   0  0  0  0  0  0
   42.6750    6.0670   48.7350 N   0  0  0  0  0  0
   43.9510    5.8210   48.3040 C   0  0  0  0  0  0
   44.5050    1.0013   37.3783 H   0  0  0  0  0  0
   44.8225    5.4083   42.3038 H   0  0  0  0  0  0
   43.2759    5.6623   41.4262 H   0  0  0  0  0  0
   42.0346    5.5352   43.7265 H   0  0  0  0  0  0
   43.9002    7.6848   42.7433 H   0  0  0  0  0  0
   41.4519    7.9395   42.6420 H   0  0  0  0  0  0
   44.9867    7.9464   45.0378 H   0  0  0  0  0  0
   43.7218    9.7459   45.5006 H   0  0  0  0  0  0
   42.6269    6.4254   46.2768 H   0  0  0  0  0  0
   46.3580    5.3410   46.1810 H   0  0  0  0  0  0
   46.9174    5.2500   50.9180 H   0  0  0  0  0  0
   45.7556    5.4592   52.4135 H   0  0  0  0  0  0
   41.6010    6.2810   50.5100 H   0  0  0  0  0  0
   43.3819    5.8661   51.9685 H   0  0  0  0  0  0
  1  2  2  0  0  0
  1  3  1  0  0  0
  1  4  1  0  0  0
  1  8  1  0  0  0
  4 28  1  0  0  0
  5  6  2  0  0  0
  5  7  1  0  0  0
  5  8  1  0  0  0
  5  9  1  0  0  0
  9 10  1  0  0  0
 10 11  1  0  0  0
 10 29  1  0  0  0
 10 30  1  0  0  0
 11 12  1  0  0  0
 11 13  1  0  0  0
 11 31  1  0  0  0
 12 17  1  0  0  0
 13 14  1  0  0  0
 13 15  1  0  0  0
 13 32  1  0  0  0
 14 33  1  0  0  0
 15 16  1  0  0  0
 15 17  1  0  0  0
 15 34  1  0  0  0
 16 35  1  0  0  0
 17 18  1  0  0  0
 17 36  1  0  0  0
 18 19  1  0  0  0
 18 27  1  0  0  0
 19 20  2  0  0  0
 19 37  1  0  0  0
 20 21  1  0  0  0
 21 22  2  0  0  0
 21 27  1  0  0  0
 22 23  1  0  0  0
 22 24  1  0  0  0
 23 38  1  0  0  0
 23 39  1  0  0  0
 24 25  2  0  0  0
 24 41  1  0  0  0
 25 26  1  0  0  0
 25 40  1  0  0  0
 26 27  2  0  0  0
M  CHG  3   3  -1   7  -1  24   1
M  END
> <s_m_source_file>
/cbio/jclab/home/rustenburg/PFK/Epik-Ligands/Results/InProgress/ADENOSINE-5'-DIPHOSPHATE/pH_4.0/ADENOSINE-5'-DIPHOSPHATE_pH_4.0-before_epik.mol2

> <i_m_source_file_index>
1

> <r_lp_tautomer_probability>
0.978911883040575

> <r_epik_Ionization_Penalty>
  0.7800

> <r_epik_Ionization_Penalty_Charging>
  0.7704

> <r_epik_Ionization_Penalty_Neutral>
  0.0097

> <r_epik_State_Penalty>
  3.6692

> <r_epik_Charging_Adjusted_Penalty>
4.43962396599095

> <i_epik_Tot_Q>
-1

> <i_epik_Tot_abs_Q>
3

> <s_epik_Chemistry_Notes>
This compound contains an acetal/aminal-like group ( X-CH(R)-Y where X, Y are N, S, or O) that may be acid/base labile, releasing an aldehyde.

$$$$
ADP
                    3D
 Structure written by MMmdl.
 39 41  0  0  1  0            999 V2000
   44.6690    2.9280   38.5560 P   0  0  0  0  0  0
   46.0210    3.5080   38.3170 O   0  0  0  0  0  0
   43.7090    3.8120   37.9050 O   0  5  0  0  0  0
   44.4590    1.4490   38.3820 O   0  5  0  0  0  0
   43.2300    2.9550   41.1100 P   0  0  0  0  0  0
   41.9750    3.4970   40.5730 O   0  0  0  0  0  0
   42.9620    1.5010   41.4010 O   0  5  0  0  0  0
   44.5220    3.2100   40.2120 O   0  0  0  0  0  0
   43.4620    3.8320   42.4070 O   0  0  0  0  0  0
   43.7350    5.2460   42.3350 C   0  0  0  0  0  0
   43.0950    5.8100   43.6260 C   0  0  1  0  0  0
   43.7640    5.2610   44.7790 O   0  0  0  0  0  0
   43.3370    7.3250   43.6170 C   0  0  1  0  0  0
   42.0560    7.9880   43.5600 O   0  0  0  0  0  0
   43.9460    7.5930   45.0830 C   0  0  1  0  0  0
   43.5540    8.7260   45.8770 O   0  0  0  0  0  0
   43.6130    6.2750   45.8130 C   0  0  2  0  0  0
   44.3750    5.7810   46.9910 N   0  0  0  0  0  0
   45.7110    5.4860   47.0620 C   0  0  0  0  0  0
   46.2020    5.3790   48.2820 N   0  0  0  0  0  0
   45.0670    5.5970   49.0640 C   0  0  0  0  0  0
   44.8830    5.6230   50.4990 C   0  0  0  0  0  0
   45.9120    5.4330   51.3250 N   0  0  0  0  0  0
   43.6260    5.8520   50.8960 N   0  0  0  0  0  0
   42.5900    6.0760   50.0670 C   0  0  0  0  0  0
   42.6750    6.0670   48.7350 N   0  0  0  0  0  0
   43.9510    5.8210   48.3040 C   0  0  0  0  0  0
   44.8225    5.4083   42.3038 H   0  0  0  0  0  0
   43.2759    5.6623   41.4262 H   0  0  0  0  0  0
   42.0346    5.5352   43.7265 H   0  0  0  0  0  0
   43.9002    7.6848   42.7433 H   0  0  0  0  0  0
   41.4519    7.9395   42.6420 H   0  0  0  0  0  0
   44.9867    7.9464   45.0378 H   0  0  0  0  0  0
   43.7218    9.7459   45.5006 H   0  0  0  0  0  0
   42.6269    6.4254   46.2768 H   0  0  0  0  0  0
   46.3580    5.3410   46.1810 H   0  0  0  0  0  0
   46.9174    5.2500   50.9180 H   0  0  0  0  0  0
   45.7556    5.4592   52.4135 H   0  0  0  0  0  0
   41.6010    6.2810   50.5100 H   0  0  0  0  0  0
  1  2  2  0  0  0
  1  3  1  0  0  0
  1  4  1  0  0  0
  1  8  1  0  0  0
  5  6  2  0  0  0
  5  7  1  0  0  0
  5  8  1  0  0  0
  5  9  1  0  0  0
  9 10  1  0  0  0
 10 11  1  0  0  0
 10 28  1  0  0  0
 10 29  1  0  0  0
 11 12  1  0  0  0
 11 13  1  0  0  0
 11 30  1  0  0  0
 12 17  1  0  0  0
 13 14  1  0  0  0
 13 15  1  0  0  0
 13 31  1  0  0  0
 14 32  1  0  0  0
 15 16  1  0  0  0
 15 17  1  0  0  0
 15 33  1  0  0  0
 16 34  1  0  0  0
 17 18  1  0  0  0
 17 35  1  0  0  0
 18 19  1  0  0  0
 18 27  1  0  0  0
 19 20  2  0  0  0
 19 36  1  0  0  0
 20 21  1  0  0  0
 21 22  2  0  0  0
 21 27  1  0  0  0
 22 23  1  0  0  0
 22 24  1  0  0  0
 23 37  1  0  0  0
 23 38  1  0  0  0
 24 25  2  0  0  0
 25 26  1  0  0  0
 25 39  1  0  0  0
 26 27  2  0  0  0
M  CHG  3   3  -1   4  -1   7  -1
M  END
> <s_m_source_file>
/cbio/jclab/home/rustenburg/PFK/Epik-Ligands/Results/InProgress/ADENOSINE-5'-DIPHOSPHATE/pH_4.0/ADENOSINE-5'-DIPHOSPHATE_pH_4.0-before_epik.mol2

> <i_m_source_file_index>
1

> <r_lp_tautomer_probability>
0.999997216410988

> <r_epik_Ionization_Penalty>
  4.0521

> <r_epik_Ionization_Penalty_Charging>
  3.7235

> <r_epik_Ionization_Penalty_Neutral>
  0.3286

> <r_epik_State_Penalty>
  3.6930

> <r_epik_Charging_Adjusted_Penalty>
7.41648229930883

> <i_epik_Tot_Q>
-3

> <i_epik_Tot_abs_Q>
3

> <s_epik_Chemistry_Notes>
This compound contains an acetal/aminal-like group ( X-CH(R)-Y where X, Y are N, S, or O) that may be acid/base labile, releasing an aldehyde.

$$$$
ADP
                    3D
 Structure written by MMmdl.
 42 44  0  0  1  0            999 V2000
   44.6690    2.9280   38.5560 P   0  0  0  0  0  0
   46.0210    3.5080   38.3170 O   0  0  0  0  0  0
   43.7090    3.8120   37.9050 O   0  0  0  0  0  0
   44.4590    1.4490   38.3820 O   0  0  0  0  0  0
   43.2300    2.9550   41.1100 P   0  0  0  0  0  0
   41.9750    3.4970   40.5730 O   0  0  0  0  0  0
   42.9620    1.5010   41.4010 O   0  5  0  0  0  0
   44.5220    3.2100   40.2120 O   0  0  0  0  0  0
   43.4620    3.8320   42.4070 O   0  0  0  0  0  0
   43.7350    5.2460   42.3350 C   0  0  0  0  0  0
   43.0950    5.8100   43.6260 C   0  0  1  0  0  0
   43.7640    5.2610   44.7790 O   0  0  0  0  0  0
   43.3370    7.3250   43.6170 C   0  0  1  0  0  0
   42.0560    7.9880   43.5600 O   0  0  0  0  0  0
   43.9460    7.5930   45.0830 C   0  0  1  0  0  0
   43.5540    8.7260   45.8770 O   0  0  0  0  0  0
   43.6130    6.2750   45.8130 C   0  0  2  0  0  0
   44.3750    5.7810   46.9910 N   0  0  0  0  0  0
   45.7110    5.4860   47.0620 C   0  0  0  0  0  0
   46.2020    5.3790   48.2820 N   0  3  0  0  0  0
   45.0670    5.5970   49.0640 C   0  0  0  0  0  0
   44.8830    5.6230   50.4990 C   0  0  0  0  0  0
   45.9120    5.4330   51.3250 N   0  0  0  0  0  0
   43.6260    5.8520   50.8960 N   0  0  0  0  0  0
   42.5900    6.0760   50.0670 C   0  0  0  0  0  0
   42.6750    6.0670   48.7350 N   0  0  0  0  0  0
   43.9510    5.8210   48.3040 C   0  0  0  0  0  0
   43.6161    3.8113   36.8089 H   0  0  0  0  0  0
   44.5050    1.0013   37.3783 H   0  0  0  0  0  0
   44.8225    5.4083   42.3038 H   0  0  0  0  0  0
   43.2759    5.6623   41.4262 H   0  0  0  0  0  0
   42.0346    5.5352   43.7265 H   0  0  0  0  0  0
   43.9002    7.6848   42.7433 H   0  0  0  0  0  0
   41.4519    7.9395   42.6420 H   0  0  0  0  0  0
   44.9867    7.9464   45.0378 H   0  0  0  0  0  0
   43.7218    9.7459   45.5006 H   0  0  0  0  0  0
   42.6269    6.4254   46.2768 H   0  0  0  0  0  0
   46.3580    5.3410   46.1810 H   0  0  0  0  0  0
   46.9174    5.2500   50.9180 H   0  0  0  0  0  0
   45.7556    5.4592   52.4135 H   0  0  0  0  0  0
   41.6010    6.2810   50.5100 H   0  0  0  0  0  0
   47.2714    5.1664   48.4278 H   0  0  0  0  0  0
  1  2  2  0  0  0
  1  3  1  0  0  0
  1  4  1  0  0  0
  1  8  1  0  0  0
  3 28  1  0  0  0
  4 29  1  0  0  0
  5  6  2  0  0  0
  5  7  1  0  0  0
  5  8  1  0  0  0
  5  9  1  0  0  0
  9 10  1  0  0  0
 10 11  1  0  0  0
 10 30  1  0  0  0
 10 31  1  0  0  0
 11 12  1  0  0  0
 11 13  1  0  0  0
 11 32  1  0  0  0
 12 17  1  0  0  0
 13 14  1  0  0  0
 13 15  1  0  0  0
 13 33  1  0  0  0
 14 34  1  0  0  0
 15 16  1  0  0  0
 15 17  1  0  0  0
 15 35  1  0  0  0
 16 36  1  0  0  0
 17 18  1  0  0  0
 17 37  1  0  0  0
 18 19  1  0  0  0
 18 27  1  0  0  0
 19 20  2  0  0  0
 19 38  1  0  0  0
 20 21  1  0  0  0
 20 42  1  0  0  0
 21 22  2  0  0  0
 21 27  1  0  0  0
 22 23  1  0  0  0
 22 24  1  0  0  0
 23 39  1  0  0  0
 23 40  1  0  0  0
 24 25  2  0  0  0
 25 26  1  0  0  0
 25 41  1  0  0  0
 26 27  2  0  0  0
M  CHG  2   7  -1  20   1
M  END
> <s_m_source_file>
/cbio/jclab/home/rustenburg/PFK/Epik-Ligands/Results/InProgress/ADENOSINE-5'-DIPHOSPHATE/pH_4.0/ADENOSINE-5'-DIPHOSPHATE_pH_4.0-before_epik.mol2

> <i_m_source_file_index>
1

> <r_epik_Ionization_Penalty>
  3.0048

> <r_epik_Ionization_Penalty_Charging>
  1.9633

> <r_epik_Ionization_Penalty_Neutral>
  1.0416

> <r_epik_State_Penalty>
  3.8045

> <r_epik_Charging_Adjusted_Penalty>
5.76773222777354

> <i_epik_Tot_Q>
0

> <i_epik_Tot_abs_Q>
2

> <s_epik_Chemistry_Notes>
This compound contains an acetal/aminal-like group ( X-CH(R)-Y where X, Y are N, S, or O) that may be acid/base labile, releasing an aldehyde.

$$$$
ADP
                    3D
 Structure written by MMmdl.
 42 44  0  0  1  0            999 V2000
   44.6690    2.9280   38.5560 P   0  0  0  0  0  0
   46.0210    3.5080   38.3170 O   0  0  0  0  0  0
   43.7090    3.8120   37.9050 O   0  5  0  0  0  0
   44.4590    1.4490   38.3820 O   0  0  0  0  0  0
   43.2300    2.9550   41.1100 P   0  0  1  0  0  0
   41.9750    3.4970   40.5730 O   0  0  0  0  0  0
   42.9620    1.5010   41.4010 O   0  0  0  0  0  0
   44.5220    3.2100   40.2120 O   0  0  0  0  0  0
   43.4620    3.8320   42.4070 O   0  0  0  0  0  0
   43.7350    5.2460   42.3350 C   0  0  0  0  0  0
   43.0950    5.8100   43.6260 C   0  0  1  0  0  0
   43.7640    5.2610   44.7790 O   0  0  0  0  0  0
   43.3370    7.3250   43.6170 C   0  0  1  0  0  0
   42.0560    7.9880   43.5600 O   0  0  0  0  0  0
   43.9460    7.5930   45.0830 C   0  0  1  0  0  0
   43.5540    8.7260   45.8770 O   0  0  0  0  0  0
   43.6130    6.2750   45.8130 C   0  0  2  0  0  0
   44.3750    5.7810   46.9910 N   0  0  0  0  0  0
   45.7110    5.4860   47.0620 C   0  0  0  0  0  0
   46.2020    5.3790   48.2820 N   0  0  0  0  0  0
   45.0670    5.5970   49.0640 C   0  0  0  0  0  0
   44.8830    5.6230   50.4990 C   0  0  0  0  0  0
   45.9120    5.4330   51.3250 N   0  0  0  0  0  0
   43.6260    5.8520   50.8960 N   0  3  0  0  0  0
   42.5900    6.0760   50.0670 C   0  0  0  0  0  0
   42.6750    6.0670   48.7350 N   0  0  0  0  0  0
   43.9510    5.8210   48.3040 C   0  0  0  0  0  0
   44.5050    1.0013   37.3783 H   0  0  0  0  0  0
   42.7861    0.7978   40.5736 H   0  0  0  0  0  0
   44.8225    5.4083   42.3038 H   0  0  0  0  0  0
   43.2759    5.6623   41.4262 H   0  0  0  0  0  0
   42.0346    5.5352   43.7265 H   0  0  0  0  0  0
   43.9002    7.6848   42.7433 H   0  0  0  0  0  0
   41.4519    7.9395   42.6420 H   0  0  0  0  0  0
   44.9867    7.9464   45.0378 H   0  0  0  0  0  0
   43.7218    9.7459   45.5006 H   0  0  0  0  0  0
   42.6269    6.4254   46.2768 H   0  0  0  0  0  0
   46.3580    5.3410   46.1810 H   0  0  0  0  0  0
   46.9174    5.2500   50.9180 H   0  0  0  0  0  0
   45.7556    5.4592   52.4135 H   0  0  0  0  0  0
   41.6010    6.2810   50.5100 H   0  0  0  0  0  0
   43.3819    5.8661   51.9685 H   0  0  0  0  0  0
  1  2  2  0  0  0
  1  3  1  0  0  0
  1  4  1  0  0  0
  1  8  1  0  0  0
  4 28  1  0  0  0
  5  6  2  0  0  0
  5  7  1  0  0  0
  5  8  1  0  0  0
  5  9  1  0  0  0
  7 29  1  0  0  0
  9 10  1  0  0  0
 10 11  1  0  0  0
 10 30  1  0  0  0
 10 31  1  0  0  0
 11 12  1  0  0  0
 11 13  1  0  0  0
 11 32  1  0  0  0
 12 17  1  0  0  0
 13 14  1  0  0  0
 13 15  1  0  0  0
 13 33  1  0  0  0
 14 34  1  0  0  0
 15 16  1  0  0  0
 15 17  1  0  0  0
 15 35  1  0  0  0
 16 36  1  0  0  0
 17 18  1  0  0  0
 17 37  1  0  0  0
 18 19  1  0  0  0
 18 27  1  0  0  0
 19 20  2  0  0  0
 19 38  1  0  0  0
 20 21  1  0  0  0
 21 22  2  0  0  0
 21 27  1  0  0  0
 22 23  1  0  0  0
 22 24  1  0  0  0
 23 39  1  0  0  0
 23 40  1  0  0  0
 24 25  2  0  0  0
 24 42  1  0  0  0
 25 26  1  0  0  0
 25 41  1  0  0  0
 26 27  2  0  0  0
M  CHG  2   3  -1  24   1
M  END
> <s_m_source_file>
/cbio/jclab/home/rustenburg/PFK/Epik-Ligands/Results/InProgress/ADENOSINE-5'-DIPHOSPHATE/pH_4.0/ADENOSINE-5'-DIPHOSPHATE_pH_4.0-before_epik.mol2

> <i_m_source_file_index>
1

> <r_lp_tautomer_probability>
0.978911883040575

> <r_epik_Ionization_Penalty>
  1.6280

> <r_epik_Ionization_Penalty_Charging>
  0.5831

> <r_epik_Ionization_Penalty_Neutral>
  1.0449

> <r_epik_State_Penalty>
  4.2077

> <r_epik_Charging_Adjusted_Penalty>
4.79079166622862

> <i_epik_Tot_Q>
0

> <i_epik_Tot_abs_Q>
2

> <s_epik_Chemistry_Notes>
This compound contains an acetal/aminal-like group ( X-CH(R)-Y where X, Y are N, S, or O) that may be acid/base labile, releasing an aldehyde.

$$$$
ADP
                    3D
 Structure written by MMmdl.
 42 44  0  0  1  0            999 V2000
   44.6690    2.9280   38.5560 P   0  0  0  0  0  0
   46.0210    3.5080   38.3170 O   0  0  0  0  0  0
   43.7090    3.8120   37.9050 O   0  0  0  0  0  0
   44.4590    1.4490   38.3820 O   0  0  0  0  0  0
   43.2300    2.9550   41.1100 P   0  0  1  0  0  0
   41.9750    3.4970   40.5730 O   0  0  0  0  0  0
   42.9620    1.5010   41.4010 O   0  0  0  0  0  0
   44.5220    3.2100   40.2120 O   0  0  0  0  0  0
   43.4620    3.8320   42.4070 O   0  0  0  0  0  0
   43.7350    5.2460   42.3350 C   0  0  0  0  0  0
   43.0950    5.8100   43.6260 C   0  0  1  0  0  0
   43.7640    5.2610   44.7790 O   0  0  0  0  0  0
   43.3370    7.3250   43.6170 C   0  0  1  0  0  0
   42.0560    7.9880   43.5600 O   0  0  0  0  0  0
   43.9460    7.5930   45.0830 C   0  0  1  0  0  0
   43.5540    8.7260   45.8770 O   0  0  0  0  0  0
   43.6130    6.2750   45.8130 C   0  0  2  0  0  0
   44.3750    5.7810   46.9910 N   0  0  0  0  0  0
   45.7110    5.4860   47.0620 C   0  0  0  0  0  0
   46.2020    5.3790   48.2820 N   0  0  0  0  0  0
   45.0670    5.5970   49.0640 C   0  0  0  0  0  0
   44.8830    5.6230   50.4990 C   0  0  0  0  0  0
   45.9120    5.4330   51.3250 N   0  0  0  0  0  0
   43.6260    5.8520   50.8960 N   0  0  0  0  0  0
   42.5900    6.0760   50.0670 C   0  0  0  0  0  0
   42.6750    6.0670   48.7350 N   0  0  0  0  0  0
   43.9510    5.8210   48.3040 C   0  0  0  0  0  0
   43.6161    3.8113   36.8089 H   0  0  0  0  0  0
   44.5050    1.0013   37.3783 H   0  0  0  0  0  0
   42.7861    0.7978   40.5736 H   0  0  0  0  0  0
   44.8225    5.4083   42.3038 H   0  0  0  0  0  0
   43.2759    5.6623   41.4262 H   0  0  0  0  0  0
   42.0346    5.5352   43.7265 H   0  0  0  0  0  0
   43.9002    7.6848   42.7433 H   0  0  0  0  0  0
   41.4519    7.9395   42.6420 H   0  0  0  0  0  0
   44.9867    7.9464   45.0378 H   0  0  0  0  0  0
   43.7218    9.7459   45.5006 H   0  0  0  0  0  0
   42.6269    6.4254   46.2768 H   0  0  0  0  0  0
   46.3580    5.3410   46.1810 H   0  0  0  0  0  0
   46.9174    5.2500   50.9180 H   0  0  0  0  0  0
   45.7556    5.4592   52.4135 H   0  0  0  0  0  0
   41.6010    6.2810   50.5100 H   0  0  0  0  0  0
  1  2  2  0  0  0
  1  3  1  0  0  0
  1  4  1  0  0  0
  1  8  1  0  0  0
  3 28  1  0  0  0
  4 29  1  0  0  0
  5  6  2  0  0  0
  5  7  1  0  0  0
  5  8  1  0  0  0
  5  9  1  0  0  0
  7 30  1  0  0  0
  9 10  1  0  0  0
 10 11  1  0  0  0
 10 31  1  0  0  0
 10 32  1  0  0  0
 11 12  1  0  0  0
 11 13  1  0  0  0
 11 33  1  0  0  0
 12 17  1  0  0  0
 13 14  1  0  0  0
 13 15  1  0  0  0
 13 34  1  0  0  0
 14 35  1  0  0  0
 15 16  1  0  0  0
 15 17  1  0  0  0
 15 36  1  0  0  0
 16 37  1  0  0  0
 17 18  1  0  0  0
 17 38  1  0  0  0
 18 19  1  0  0  0
 18 27  1  0  0  0
 19 20  2  0  0  0
 19 39  1  0  0  0
 20 21  1  0  0  0
 21 22  2  0  0  0
 21 27  1  0  0  0
 22 23  1  0  0  0
 22 24  1  0  0  0
 23 40  1  0  0  0
 23 41  1  0  0  0
 24 25  2  0  0  0
 25 26  1  0  0  0
 25 42  1  0  0  0
 26 27  2  0  0  0
M  END
> <s_m_source_file>
/cbio/jclab/home/rustenburg/PFK/Epik-Ligands/Results/InProgress/ADENOSINE-5'-DIPHOSPHATE/pH_4.0/ADENOSINE-5'-DIPHOSPHATE_pH_4.0-before_epik.mol2

> <i_m_source_file_index>
1

> <r_epik_Ionization_Penalty>
  3.2234

> <r_epik_Ionization_Penalty_Charging>
  0.0000

> <r_epik_Ionization_Penalty_Neutral>
  3.2234

> <r_epik_State_Penalty>
  4.2544

> <r_epik_Charging_Adjusted_Penalty>
4.25443722250222

> <i_epik_Tot_Q>
0

> <i_epik_Tot_abs_Q>
0

> <s_epik_Chemistry_Notes>
This compound contains an acetal/aminal-like group ( X-CH(R)-Y where X, Y are N, S, or O) that may be acid/base labile, releasing an aldehyde.

$$$$
ADP
                    3D
 Structure written by MMmdl.
 42 44  0  0  1  0            999 V2000
   44.6690    2.9280   38.5560 P   0  0  0  0  0  0
   46.0210    3.5080   38.3170 O   0  0  0  0  0  0
   43.7090    3.8120   37.9050 O   0  0  0  0  0  0
   44.4590    1.4490   38.3820 O   0  0  0  0  0  0
   43.2300    2.9550   41.1100 P   0  0  0  0  0  0
   41.9750    3.4970   40.5730 O   0  0  0  0  0  0
   42.9620    1.5010   41.4010 O   0  5  0  0  0  0
   44.5220    3.2100   40.2120 O   0  0  0  0  0  0
   43.4620    3.8320   42.4070 O   0  0  0  0  0  0
   43.7350    5.2460   42.3350 C   0  0  0  0  0  0
   43.0950    5.8100   43.6260 C   0  0  1  0  0  0
   43.7640    5.2610   44.7790 O   0  0  0  0  0  0
   43.3370    7.3250   43.6170 C   0  0  1  0  0  0
   42.0560    7.9880   43.5600 O   0  0  0  0  0  0
   43.9460    7.5930   45.0830 C   0  0  1  0  0  0
   43.5540    8.7260   45.8770 O   0  0  0  0  0  0
   43.6130    6.2750   45.8130 C   0  0  2  0  0  0
   44.3750    5.7810   46.9910 N   0  0  0  0  0  0
   45.7110    5.4860   47.0620 C   0  0  0  0  0  0
   46.2020    5.3790   48.2820 N   0  0  0  0  0  0
   45.0670    5.5970   49.0640 C   0  0  0  0  0  0
   44.8830    5.6230   50.4990 C   0  0  0  0  0  0
   45.9120    5.4330   51.3250 N   0  0  0  0  0  0
   43.6260    5.8520   50.8960 N   0  3  0  0  0  0
   42.5900    6.0760   50.0670 C   0  0  0  0  0  0
   42.6750    6.0670   48.7350 N   0  0  0  0  0  0
   43.9510    5.8210   48.3040 C   0  0  0  0  0  0
   43.6161    3.8113   36.8089 H   0  0  0  0  0  0
   44.5050    1.0013   37.3783 H   0  0  0  0  0  0
   44.8225    5.4083   42.3038 H   0  0  0  0  0  0
   43.2759    5.6623   41.4262 H   0  0  0  0  0  0
   42.0346    5.5352   43.7265 H   0  0  0  0  0  0
   43.9002    7.6848   42.7433 H   0  0  0  0  0  0
   41.4519    7.9395   42.6420 H   0  0  0  0  0  0
   44.9867    7.9464   45.0378 H   0  0  0  0  0  0
   43.7218    9.7459   45.5006 H   0  0  0  0  0  0
   42.6269    6.4254   46.2768 H   0  0  0  0  0  0
   46.3580    5.3410   46.1810 H   0  0  0  0  0  0
   46.9174    5.2500   50.9180 H   0  0  0  0  0  0
   45.7556    5.4592   52.4135 H   0  0  0  0  0  0
   41.6010    6.2810   50.5100 H   0  0  0  0  0  0
   43.3819    5.8661   51.9685 H   0  0  0  0  0  0
  1  2  2  0  0  0
  1  3  1  0  0  0
  1  4  1  0  0  0
  1  8  1  0  0  0
  3 28  1  0  0  0
  4 29  1  0  0  0
  5  6  2  0  0  0
  5  7  1  0  0  0
  5  8  1  0  0  0
  5  9  1  0  0  0
  9 10  1  0  0  0
 10 11  1  0  0  0
 10 30  1  0  0  0
 10 31  1  0  0  0
 11 12  1  0  0  0
 11 13  1  0  0  0
 11 32  1  0  0  0
 12 17  1  0  0  0
 13 14  1  0  0  0
 13 15  1  0  0  0
 13 33  1  0  0  0
 14 34  1  0  0  0
 15 16  1  0  0  0
 15 17  1  0  0  0
 15 35  1  0  0  0
 16 36  1  0  0  0
 17 18  1  0  0  0
 17 37  1  0  0  0
 18 19  1  0  0  0
 18 27  1  0  0  0
 19 20  2  0  0  0
 19 38  1  0  0  0
 20 21  1  0  0  0
 21 22  2  0  0  0
 21 27  1  0  0  0
 22 23  1  0  0  0
 22 24  1  0  0  0
 23 39  1  0  0  0
 23 40  1  0  0  0
 24 25  2  0  0  0
 24 42  1  0  0  0
 25 26  1  0  0  0
 25 41  1  0  0  0
 26 27  2  0  0  0
M  CHG  2   7  -1  24   1
M  END
> <s_m_source_file>
/cbio/jclab/home/rustenburg/PFK/Epik-Ligands/Results/InProgress/ADENOSINE-5'-DIPHOSPHATE/pH_4.0/ADENOSINE-5'-DIPHOSPHATE_pH_4.0-before_epik.mol2

> <i_m_source_file_index>
1

> <r_epik_Ionization_Penalty>
  1.6506

> <r_epik_Ionization_Penalty_Charging>
  0.6108

> <r_epik_Ionization_Penalty_Neutral>
  1.0399

> <r_epik_State_Penalty>
  4.3765

> <r_epik_Charging_Adjusted_Penalty>
4.98724118167027

> <i_epik_Tot_Q>
0

> <i_epik_Tot_abs_Q>
2

> <s_epik_Chemistry_Notes>
This compound contains an acetal/aminal-like group ( X-CH(R)-Y where X, Y are N, S, or O) that may be acid/base labile, releasing an aldehyde.

$$$$
ADP
                    3D
 Structure written by MMmdl.
 40 42  0  0  1  0            999 V2000
   44.6690    2.9280   38.5560 P   0  0  0  0  0  0
   46.0210    3.5080   38.3170 O   0  0  0  0  0  0
   43.7090    3.8120   37.9050 O   0  5  0  0  0  0
   44.4590    1.4490   38.3820 O   0  5  0  0  0  0
   43.2300    2.9550   41.1100 P   0  0  1  0  0  0
   41.9750    3.4970   40.5730 O   0  0  0  0  0  0
   42.9620    1.5010   41.4010 O   0  0  0  0  0  0
   44.5220    3.2100   40.2120 O   0  0  0  0  0  0
   43.4620    3.8320   42.4070 O   0  0  0  0  0  0
   43.7350    5.2460   42.3350 C   0  0  0  0  0  0
   43.0950    5.8100   43.6260 C   0  0  1  0  0  0
   43.7640    5.2610   44.7790 O   0  0  0  0  0  0
   43.3370    7.3250   43.6170 C   0  0  1  0  0  0
   42.0560    7.9880   43.5600 O   0  0  0  0  0  0
   43.9460    7.5930   45.0830 C   0  0  1  0  0  0
   43.5540    8.7260   45.8770 O   0  0  0  0  0  0
   43.6130    6.2750   45.8130 C   0  0  2  0  0  0
   44.3750    5.7810   46.9910 N   0  0  0  0  0  0
   45.7110    5.4860   47.0620 C   0  0  0  0  0  0
   46.2020    5.3790   48.2820 N   0  0  0  0  0  0
   45.0670    5.5970   49.0640 C   0  0  0  0  0  0
   44.8830    5.6230   50.4990 C   0  0  0  0  0  0
   45.9120    5.4330   51.3250 N   0  0  0  0  0  0
   43.6260    5.8520   50.8960 N   0  0  0  0  0  0
   42.5900    6.0760   50.0670 C   0  0  0  0  0  0
   42.6750    6.0670   48.7350 N   0  0  0  0  0  0
   43.9510    5.8210   48.3040 C   0  0  0  0  0  0
   42.7861    0.7978   40.5736 H   0  0  0  0  0  0
   44.8225    5.4083   42.3038 H   0  0  0  0  0  0
   43.2759    5.6623   41.4262 H   0  0  0  0  0  0
   42.0346    5.5352   43.7265 H   0  0  0  0  0  0
   43.9002    7.6848   42.7433 H   0  0  0  0  0  0
   41.4519    7.9395   42.6420 H   0  0  0  0  0  0
   44.9867    7.9464   45.0378 H   0  0  0  0  0  0
   43.7218    9.7459   45.5006 H   0  0  0  0  0  0
   42.6269    6.4254   46.2768 H   0  0  0  0  0  0
   46.3580    5.3410   46.1810 H   0  0  0  0  0  0
   46.9174    5.2500   50.9180 H   0  0  0  0  0  0
   45.7556    5.4592   52.4135 H   0  0  0  0  0  0
   41.6010    6.2810   50.5100 H   0  0  0  0  0  0
  1  2  2  0  0  0
  1  3  1  0  0  0
  1  4  1  0  0  0
  1  8  1  0  0  0
  5  6  2  0  0  0
  5  7  1  0  0  0
  5  8  1  0  0  0
  5  9  1  0  0  0
  7 28  1  0  0  0
  9 10  1  0  0  0
 10 11  1  0  0  0
 10 29  1  0  0  0
 10 30  1  0  0  0
 11 12  1  0  0  0
 11 13  1  0  0  0
 11 31  1  0  0  0
 12 17  1  0  0  0
 13 14  1  0  0  0
 13 15  1  0  0  0
 13 32  1  0  0  0
 14 33  1  0  0  0
 15 16  1  0  0  0
 15 17  1  0  0  0
 15 34  1  0  0  0
 16 35  1  0  0  0
 17 18  1  0  0  0
 17 36  1  0  0  0
 18 19  1  0  0  0
 18 27  1  0  0  0
 19 20  2  0  0  0
 19 37  1  0  0  0
 20 21  1  0  0  0
 21 22  2  0  0  0
 21 27  1  0  0  0
 22 23  1  0  0  0
 22 24  1  0  0  0
 23 38  1  0  0  0
 23 39  1  0  0  0
 24 25  2  0  0  0
 25 26  1  0  0  0
 25 40  1  0  0  0
 26 27  2  0  0  0
M  CHG  2   3  -1   4  -1
M  END
> <s_m_source_file>
/cbio/jclab/home/rustenburg/PFK/Epik-Ligands/Results/InProgress/ADENOSINE-5'-DIPHOSPHATE/pH_4.0/ADENOSINE-5'-DIPHOSPHATE_pH_4.0-before_epik.mol2

> <i_m_source_file_index>
1

> <r_epik_Ionization_Penalty>
  2.9148

> <r_epik_Ionization_Penalty_Charging>
  2.3283

> <r_epik_Ionization_Penalty_Neutral>
  0.5865

> <r_epik_State_Penalty>
  4.7121

> <r_epik_Charging_Adjusted_Penalty>
7.04038199722911

> <i_epik_Tot_Q>
-2

> <i_epik_Tot_abs_Q>
2

> <s_epik_Chemistry_Notes>
This compound contains an acetal/aminal-like group ( X-CH(R)-Y where X, Y are N, S, or O) that may be acid/base labile, releasing an aldehyde.

$$$$
ADP
                    3D
 Structure written by MMmdl.
 43 45  0  0  1  0            999 V2000
   44.6690    2.9280   38.5560 P   0  0  0  0  0  0
   46.0210    3.5080   38.3170 O   0  0  0  0  0  0
   43.7090    3.8120   37.9050 O   0  0  0  0  0  0
   44.4590    1.4490   38.3820 O   0  0  0  0  0  0
   43.2300    2.9550   41.1100 P   0  0  1  0  0  0
   41.9750    3.4970   40.5730 O   0  0  0  0  0  0
   42.9620    1.5010   41.4010 O   0  0  0  0  0  0
   44.5220    3.2100   40.2120 O   0  0  0  0  0  0
   43.4620    3.8320   42.4070 O   0  0  0  0  0  0
   43.7350    5.2460   42.3350 C   0  0  0  0  0  0
   43.0950    5.8100   43.6260 C   0  0  1  0  0  0
   43.7640    5.2610   44.7790 O   0  0  0  0  0  0
   43.3370    7.3250   43.6170 C   0  0  1  0  0  0
   42.0560    7.9880   43.5600 O   0  0  0  0  0  0
   43.9460    7.5930   45.0830 C   0  0  1  0  0  0
   43.5540    8.7260   45.8770 O   0  0  0  0  0  0
   43.6130    6.2750   45.8130 C   0  0  2  0  0  0
   44.3750    5.7810   46.9910 N   0  0  0  0  0  0
   45.7110    5.4860   47.0620 C   0  0  0  0  0  0
   46.2020    5.3790   48.2820 N   0  3  0  0  0  0
   45.0670    5.5970   49.0640 C   0  0  0  0  0  0
   44.8830    5.6230   50.4990 C   0  0  0  0  0  0
   45.9120    5.4330   51.3250 N   0  0  0  0  0  0
   43.6260    5.8520   50.8960 N   0  0  0  0  0  0
   42.5900    6.0760   50.0670 C   0  0  0  0  0  0
   42.6750    6.0670   48.7350 N   0  0  0  0  0  0
   43.9510    5.8210   48.3040 C   0  0  0  0  0  0
   43.6161    3.8113   36.8089 H   0  0  0  0  0  0
   44.5050    1.0013   37.3783 H   0  0  0  0  0  0
   42.7861    0.7978   40.5736 H   0  0  0  0  0  0
   44.8225    5.4083   42.3038 H   0  0  0  0  0  0
   43.2759    5.6623   41.4262 H   0  0  0  0  0  0
   42.0346    5.5352   43.7265 H   0  0  0  0  0  0
   43.9002    7.6848   42.7433 H   0  0  0  0  0  0
   41.4519    7.9395   42.6420 H   0  0  0  0  0  0
   44.9867    7.9464   45.0378 H   0  0  0  0  0  0
   43.7218    9.7459   45.5006 H   0  0  0  0  0  0
   42.6269    6.4254   46.2768 H   0  0  0  0  0  0
   46.3580    5.3410   46.1810 H   0  0  0  0  0  0
   46.9174    5.2500   50.9180 H   0  0  0  0  0  0
   45.7556    5.4592   52.4135 H   0  0  0  0  0  0
   41.6010    6.2810   50.5100 H   0  0  0  0  0  0
   47.2714    5.1664   48.4278 H   0  0  0  0  0  0
  1  2  2  0  0  0
  1  3  1  0  0  0
  1  4  1  0  0  0
  1  8  1  0  0  0
  3 28  1  0  0  0
  4 29  1  0  0  0
  5  6  2  0  0  0
  5  7  1  0  0  0
  5  8  1  0  0  0
  5  9  1  0  0  0
  7 30  1  0  0  0
  9 10  1  0  0  0
 10 11  1  0  0  0
 10 31  1  0  0  0
 10 32  1  0  0  0
 11 12  1  0  0  0
 11 13  1  0  0  0
 11 33  1  0  0  0
 12 17  1  0  0  0
 13 14  1  0  0  0
 13 15  1  0  0  0
 13 34  1  0  0  0
 14 35  1  0  0  0
 15 16  1  0  0  0
 15 17  1  0  0  0
 15 36  1  0  0  0
 16 37  1  0  0  0
 17 18  1  0  0  0
 17 38  1  0  0  0
 18 19  1  0  0  0
 18 27  1  0  0  0
 19 20  2  0  0  0
 19 39  1  0  0  0
 20 21  1  0  0  0
 20 43  1  0  0  0
 21 22  2  0  0  0
 21 27  1  0  0  0
 22 23  1  0  0  0
 22 24  1  0  0  0
 23 40  1  0  0  0
 23 41  1  0  0  0
 24 25  2  0  0  0
 25 26  1  0  0  0
 25 42  1  0  0  0
 26 27  2  0  0  0
M  CHG  1  20   1
M  END
> <s_m_source_file>
/cbio/jclab/home/rustenburg/PFK/Epik-Ligands/Results/InProgress/ADENOSINE-5'-DIPHOSPHATE/pH_4.0/ADENOSINE-5'-DIPHOSPHATE_pH_4.0-before_epik.mol2

> <i_m_source_file_index>
1

> <r_epik_Ionization_Penalty>
  4.8031

> <r_epik_Ionization_Penalty_Charging>
  1.8944

> <r_epik_Ionization_Penalty_Neutral>
  2.9086

> <r_epik_State_Penalty>
  5.5600

> <r_epik_Charging_Adjusted_Penalty>
7.45444576447373

> <i_epik_Tot_Q>
1

> <i_epik_Tot_abs_Q>
1

> <s_epik_Chemistry_Notes>
This compound contains an acetal/aminal-like group ( X-CH(R)-Y where X, Y are N, S, or O) that may be acid/base labile, releasing an aldehyde.

$$$$
