@<TRIPOS>MOLECULE
ACE
    7     6     1     0     0
SMALL
NO_CHARGES

@<TRIPOS>ATOM
      1  C          0.7720  -10.0720    6.5780 C.2       1 ACE         0.0000
      2  O          1.9730  -10.2230    6.8620 O.2       1 ACE         0.0000
      3  CH3       -0.3220  -10.6770    7.4050 C.3       1 ACE         0.0000
      4  H          0.6850   -9.4530    5.6690 H         1 ACE         0.0000
      5  H1        -1.1910  -10.4440    7.0180 H         1 ACE         0.0000
      6  H2        -0.2690  -10.3310    8.3200 H         1 ACE         0.0000
      7  H3        -0.2210  -11.6520    7.4180 H         1 ACE         0.0000
@<TRIPOS>BOND
     1    1    2 2
     2    1    3 1
     3    1    4 1
     4    3    5 1
     5    3    6 1
     6    3    7 1
@<TRIPOS>SUBSTRUCTURE
     1 ACE         1 GROUP 0 A     ****
