@<TRIPOS>MOLECULE
F6P
28   28    1
SMALL
USER_CHARGES


@<TRIPOS>ATOM
      1 O1         11.4170    9.1620   27.0210 O.3       1 F6P         0.0000 
      2 C1         10.0290    9.5780   26.9550 C.3       1 F6P         0.0000 
      3 C2          9.0930    8.3720   27.0220 C.3       1 F6P         0.0000 
      4 O2          9.4370    7.4440   25.9940 O.3       1 F6P         0.0000 
      5 C3          7.6040    8.8040   26.9280 C.3       1 F6P         0.0000 
      6 O3          7.0470    8.5180   25.6720 O.3       1 F6P         0.0000 
      7 C4          6.9240    7.9190   27.9540 C.3       1 F6P         0.0000 
      8 O4          5.7050    8.3770   28.4860 O.3       1 F6P         0.0000 
      9 C5          7.9990    7.7530   28.9850 C.3       1 F6P         0.0000 
     10 O5          9.2430    7.6520   28.2660 O.3       1 F6P         0.0000 
     11 C6          7.7930    6.5030   29.7570 C.3       1 F6P         0.0000 
     12 O6          8.8400    6.5130   30.7050 O.3       1 F6P         0.0000 
     13 P           8.9960    5.4420   31.8830 P.3       1 F6P         0.0000 
     14 O1P         9.9350    6.0670   32.8520 O.co2     1 F6P         0.0000 
     15 O2P         9.6100    4.2080   31.3380 O.co2     1 F6P         0.0000 
     16 O3P         7.6960    5.1280   32.5030 O.3       1 F6P         0.0000 
     17 HO1        12.2189    9.9141   26.9847 H         1 F6P         0.0000 
     18 H11         9.8057   10.2456   27.8003 H         1 F6P         0.0000 
     19 H12         9.8506   10.1113   26.0096 H         1 F6P         0.0000 
     20 HO2         9.4022    7.7539   24.9391 H         1 F6P         0.0000 
     21 H3          7.4338    9.8869   27.0199 H         1 F6P         0.0000 
     22 HO3         7.4007    9.0536   24.7787 H         1 F6P         0.0000 
     23 H4          6.5030    6.9944   27.5322 H         1 F6P         0.0000 
     24 HO4         4.8413    8.5367   27.8238 H         1 F6P         0.0000 
     25 H5          8.0255    8.6011   29.6850 H         1 F6P         0.0000 
     26 H61         6.8016    6.5252   30.2331 H         1 F6P         0.0000 
     27 H62         7.8549    5.6389   29.0791 H         1 F6P         0.0000 
     28 HOP3        7.0973    5.9291   32.9611 H         1 F6P         0.0000 
@<TRIPOS>BOND
     1    1    2 1    
     2    1   17 1    
     3    2    3 1    
     4    2   18 1    
     5    2   19 1    
     6    3    4 1    
     7    3    5 1    
     8    3   10 1    
     9    4   20 1    
    10    5    6 1    
    11    5    7 1    
    12    5   21 1    
    13    6   22 1    
    14    7    8 1    
    15    7    9 1    
    16    7   23 1    
    17    8   24 1    
    18    9   10 1    
    19    9   11 1    
    20    9   25 1    
    21   11   12 1    
    22   11   26 1    
    23   11   27 1    
    24   12   13 1    
    25   13   14 2    
    26   13   15 1    
    27   13   16 1    
    28   16   28 1    
@<TRIPOS>SUBSTRUCTURE
     1 F6P         1 GROUP             0       ****    0 ROOT    
@<TRIPOS>MOLECULE
F6P
29   29    1
SMALL
USER_CHARGES


@<TRIPOS>ATOM
      1 O1         11.4170    9.1620   27.0210 O.3       1 F6P         0.0000 
      2 C1         10.0290    9.5780   26.9550 C.3       1 F6P         0.0000 
      3 C2          9.0930    8.3720   27.0220 C.3       1 F6P         0.0000 
      4 O2          9.4370    7.4440   25.9940 O.3       1 F6P         0.0000 
      5 C3          7.6040    8.8040   26.9280 C.3       1 F6P         0.0000 
      6 O3          7.0470    8.5180   25.6720 O.3       1 F6P         0.0000 
      7 C4          6.9240    7.9190   27.9540 C.3       1 F6P         0.0000 
      8 O4          5.7050    8.3770   28.4860 O.3       1 F6P         0.0000 
      9 C5          7.9990    7.7530   28.9850 C.3       1 F6P         0.0000 
     10 O5          9.2430    7.6520   28.2660 O.3       1 F6P         0.0000 
     11 C6          7.7930    6.5030   29.7570 C.3       1 F6P         0.0000 
     12 O6          8.8400    6.5130   30.7050 O.3       1 F6P         0.0000 
     13 P           8.9960    5.4420   31.8830 P.3       1 F6P         0.0000 
     14 O1P         9.9350    6.0670   32.8520 O.2       1 F6P         0.0000 
     15 O2P         9.6100    4.2080   31.3380 O.3       1 F6P         0.0000 
     16 O3P         7.6960    5.1280   32.5030 O.3       1 F6P         0.0000 
     17 HO1        12.2189    9.9141   26.9847 H         1 F6P         0.0000 
     18 H11         9.8057   10.2456   27.8003 H         1 F6P         0.0000 
     19 H12         9.8506   10.1113   26.0096 H         1 F6P         0.0000 
     20 HO2         9.4022    7.7539   24.9391 H         1 F6P         0.0000 
     21 H3          7.4338    9.8869   27.0199 H         1 F6P         0.0000 
     22 HO3         7.4007    9.0536   24.7787 H         1 F6P         0.0000 
     23 H4          6.5030    6.9944   27.5322 H         1 F6P         0.0000 
     24 HO4         4.8413    8.5367   27.8238 H         1 F6P         0.0000 
     25 H5          8.0255    8.6011   29.6850 H         1 F6P         0.0000 
     26 H61         6.8016    6.5252   30.2331 H         1 F6P         0.0000 
     27 H62         7.8549    5.6389   29.0791 H         1 F6P         0.0000 
     28 HOP2       10.5882    4.2554   30.8370 H         1 F6P         0.0000 
     29 HOP3        7.0973    5.9291   32.9611 H         1 F6P         0.0000 
@<TRIPOS>BOND
     1    1    2 1    
     2    1   17 1    
     3    2    3 1    
     4    2   18 1    
     5    2   19 1    
     6    3    4 1    
     7    3    5 1    
     8    3   10 1    
     9    4   20 1    
    10    5    6 1    
    11    5    7 1    
    12    5   21 1    
    13    6   22 1    
    14    7    8 1    
    15    7    9 1    
    16    7   23 1    
    17    8   24 1    
    18    9   10 1    
    19    9   11 1    
    20    9   25 1    
    21   11   12 1    
    22   11   26 1    
    23   11   27 1    
    24   12   13 1    
    25   13   14 2    
    26   13   15 1    
    27   13   16 1    
    28   15   28 1    
    29   16   29 1    
@<TRIPOS>SUBSTRUCTURE
     1 F6P         1 GROUP             0       ****    0 ROOT    
@<TRIPOS>MOLECULE
F6P
27   27    1
SMALL
USER_CHARGES


@<TRIPOS>ATOM
      1 O1         11.4170    9.1620   27.0210 O.3       1 F6P         0.0000 
      2 C1         10.0290    9.5780   26.9550 C.3       1 F6P         0.0000 
      3 C2          9.0930    8.3720   27.0220 C.3       1 F6P         0.0000 
      4 O2          9.4370    7.4440   25.9940 O.3       1 F6P         0.0000 
      5 C3          7.6040    8.8040   26.9280 C.3       1 F6P         0.0000 
      6 O3          7.0470    8.5180   25.6720 O.3       1 F6P         0.0000 
      7 C4          6.9240    7.9190   27.9540 C.3       1 F6P         0.0000 
      8 O4          5.7050    8.3770   28.4860 O.3       1 F6P         0.0000 
      9 C5          7.9990    7.7530   28.9850 C.3       1 F6P         0.0000 
     10 O5          9.2430    7.6520   28.2660 O.3       1 F6P         0.0000 
     11 C6          7.7930    6.5030   29.7570 C.3       1 F6P         0.0000 
     12 O6          8.8400    6.5130   30.7050 O.3       1 F6P         0.0000 
     13 P           8.9960    5.4420   31.8830 P.3       1 F6P         0.0000 
     14 O1P         9.9350    6.0670   32.8520 O.co2     1 F6P         0.0000 
     15 O2P         9.6100    4.2080   31.3380 O.co2     1 F6P         0.0000 
     16 O3P         7.6960    5.1280   32.5030 O.co2     1 F6P         0.0000 
     17 HO1        12.2189    9.9141   26.9847 H         1 F6P         0.0000 
     18 H11         9.8057   10.2456   27.8003 H         1 F6P         0.0000 
     19 H12         9.8506   10.1113   26.0096 H         1 F6P         0.0000 
     20 HO2         9.4022    7.7539   24.9391 H         1 F6P         0.0000 
     21 H3          7.4338    9.8869   27.0199 H         1 F6P         0.0000 
     22 HO3         7.4007    9.0536   24.7787 H         1 F6P         0.0000 
     23 H4          6.5030    6.9944   27.5322 H         1 F6P         0.0000 
     24 HO4         4.8413    8.5367   27.8238 H         1 F6P         0.0000 
     25 H5          8.0255    8.6011   29.6850 H         1 F6P         0.0000 
     26 H61         6.8016    6.5252   30.2331 H         1 F6P         0.0000 
     27 H62         7.8549    5.6389   29.0791 H         1 F6P         0.0000 
@<TRIPOS>BOND
     1    1    2 1    
     2    1   17 1    
     3    2    3 1    
     4    2   18 1    
     5    2   19 1    
     6    3    4 1    
     7    3    5 1    
     8    3   10 1    
     9    4   20 1    
    10    5    6 1    
    11    5    7 1    
    12    5   21 1    
    13    6   22 1    
    14    7    8 1    
    15    7    9 1    
    16    7   23 1    
    17    8   24 1    
    18    9   10 1    
    19    9   11 1    
    20    9   25 1    
    21   11   12 1    
    22   11   26 1    
    23   11   27 1    
    24   12   13 1    
    25   13   14 2    
    26   13   15 1    
    27   13   16 1    
@<TRIPOS>SUBSTRUCTURE
     1 F6P         1 GROUP             0       ****    0 ROOT    
