MRD
  CCTOOLS-0326171059

 22 21  0  0  1  0  0  0  0  0999 V2000
   70.1350   52.9110    4.9690 C   0  0  0  0  0
   70.7450   51.5500    4.6750 C   0  0  0  0  0
   72.1420   51.7830    4.3360 O   0  0  0  0  0
   70.6310   50.5630    5.8370 C   0  0  0  0  0
   70.1310   50.8660    3.4450 C   0  0  0  0  0
   68.6390   50.7720    3.4670 C   0  0  0  0  0
   68.1130   49.8140    4.4270 O   0  0  0  0  0
   68.1560   50.2580    2.0960 C   0  0  0  0  0
   69.0380   52.8330    4.9520 H   0  0  0  0  0
   70.4630   53.2530    5.9620 H   0  0  0  0  0
   70.4630   53.6320    4.2060 H   0  0  0  0  0
   72.6040   50.9150    4.2240 H   0  0  0  0  0
   69.5700   50.3760    6.0570 H   0  0  0  0  0
   71.1210   49.6170    5.5640 H   0  0  0  0  0
   71.1210   50.9860    6.7270 H   0  0  0  0  0
   70.4260   51.4360    2.5520 H   0  0  0  0  0
   70.5090   49.8330    3.4410 H   0  0  0  0  0
   68.2880   51.7800    3.7320 H   0  0  0  0  0
   67.1230   49.8350    4.4060 H   0  0  0  0  0
   67.0560   50.2500    2.0740 H   0  0  0  0  0
   68.5340   50.9200    1.3030 H   0  0  0  0  0
   68.5340   49.2380    1.9340 H   0  0  0  0  0
  1  2  1  0  0  0
  1  9  1  0  0  0
  1 10  1  0  0  0
  1 11  1  0  0  0
  2  3  1  0  0  0
  2  4  1  0  0  0
  2  5  1  0  0  0
  3 12  1  0  0  0
  4 13  1  0  0  0
  4 14  1  0  0  0
  4 15  1  0  0  0
  5  6  1  0  0  0
  5 16  1  0  0  0
  5 17  1  0  0  0
  6  7  1  0  0  0
  6  8  1  0  0  0
  6 18  1  0  0  0
  7 19  1  0  0  0
  8 20  1  0  0  0
  8 21  1  0  0  0
  8 22  1  0  0  0
M  END
$$$$
