CIT
  CCTOOLS-0326171052

 21 20  0  0  0  0  0  0  0  0999 V2000
   68.4180   48.3850   33.0230 C   0  0  0  0  0
   68.8200   47.5710   32.3980 O   0  0  0  0  0
   68.6370   49.5560   32.9780 O   0  0  0  0  0
   67.4830   48.0690   34.2230 C   0  0  0  0  0
   65.9350   48.1150   34.0490 C   0  0  0  0  0
   65.4890   49.4220   33.5830 O   0  0  0  0  0
   65.5390   47.1450   32.9120 C   0  0  0  0  0
   64.0420   46.9920   32.7920 C   0  0  0  0  0
   63.6500   46.2810   31.7410 O   0  0  0  0  0
   63.2220   47.3690   33.5850 O   0  0  0  0  0
   65.2600   47.7760   35.3540 C   0  0  0  0  0
   65.3250   46.5580   35.7260 O   0  0  0  0  0
   64.7220   48.7180   36.0170 O   0  0  0  0  0
   68.2900   50.2570   33.5160 H   0  0  0  0  0
   67.7600   47.0680   34.6290 H   0  0  0  0  0
   67.7600   48.7390   35.0690 H   0  0  0  0  0
   64.5450   49.4500   33.4760 H   0  0  0  0  0
   65.9920   47.4530   31.9410 H   0  0  0  0  0
   66.0370   46.1550   33.0330 H   0  0  0  0  0
   62.2790   47.2720   33.5090 H   0  0  0  0  0
   64.2960   48.5040   36.8390 H   0  0  0  0  0
  1  2  2  0  0  0
  1  3  1  0  0  0
  1  4  1  0  0  0
  3 14  1  0  0  0
  4  5  1  0  0  0
  4 15  1  0  0  0
  4 16  1  0  0  0
  5  6  1  0  0  0
  5  7  1  0  0  0
  5 11  1  0  0  0
  6 17  1  0  0  0
  7  8  1  0  0  0
  7 18  1  0  0  0
  7 19  1  0  0  0
  8  9  2  0  0  0
  8 10  1  0  0  0
 10 20  1  0  0  0
 11 12  2  0  0  0
 11 13  1  0  0  0
 13 21  1  0  0  0
M  END
$$$$
