NAD
  CCTOOLS-0326171110

 71 75  0  0  1  0  0  0  0  0999 V2000
   19.2220   51.6360  -19.1860 P   0  0  0  0  0
   18.3400   51.7970  -20.3580 O   0  0  0  0  0
   18.8850   52.5330  -18.0510 O   0  0  0  0  0
   20.6820   52.1340  -19.5960 O   0  0  0  0  0
   21.4290   51.5430  -20.6790 C   0  0  0  0  0
   22.5290   52.5590  -20.8420 C   0  0  0  0  0
   23.4790   52.1310  -21.8670 O   0  0  0  0  0
   22.0160   53.9110  -21.3390 C   0  0  0  0  0
   22.6830   54.9990  -20.6450 O   0  0  0  0  0
   22.3910   53.7990  -22.8110 C   0  0  0  0  0
   22.4990   55.1030  -23.3910 O   0  0  0  0  0
   23.7870   53.1930  -22.6500 C   0  0  0  0  0
   24.2320   52.6270  -23.8880 N   0  0  0  0  0
   23.4560   52.0620  -24.8440 C   0  0  0  0  0
   24.1630   51.5750  -25.8700 N   0  0  0  0  0
   25.4680   51.8990  -25.5240 C   0  0  0  0  0
   26.6910   51.6480  -26.1780 C   0  0  0  0  0
   26.8140   51.0280  -27.3490 N   0  0  0  0  0
   27.8150   52.0740  -25.5590 N   0  0  0  0  0
   27.6880   52.6870  -24.3510 C   0  0  0  0  0
   26.5990   52.9420  -23.6710 N   0  0  0  0  0
   25.5200   52.5410  -24.3140 C   0  0  0  0  0
   19.2770   50.0880  -18.7990 O   0  0  0  0  0
   19.6010   49.4760  -17.3370 P   0  0  0  0  0
   18.4110   49.2370  -16.4750 O   0  0  0  0  0
   20.6660   50.3020  -16.6790 O   0  5  0  0  0
   20.1090   48.0460  -17.8670 O   0  0  0  0  0
   21.4660   47.9040  -18.3990 C   0  0  0  0  0
   21.6630   46.4390  -18.7180 C   0  0  0  0  0
   21.5490   45.6870  -17.4900 O   0  0  0  0  0
   20.6660   45.8280  -19.7060 C   0  0  0  0  0
   21.2600   44.6920  -20.3570 O   0  0  0  0  0
   19.6420   45.2510  -18.7410 C   0  0  0  0  0
   18.8840   44.1960  -19.3620 O   0  0  0  0  0
   20.5610   44.6890  -17.6800 C   0  0  0  0  0
   19.8780   44.3750  -16.4350 N   0  3  0  0  0
   19.0560   45.3180  -15.8240 C   0  0  0  0  0
   18.4130   45.0640  -14.5440 C   0  0  0  0  0
   17.7320   46.2170  -13.8990 C   0  0  0  0  0
   17.2370   45.9260  -12.7980 O   0  0  0  0  0
   17.6580   47.4710  -14.4380 N   0  0  0  0  0
   18.5660   43.7530  -13.9120 C   0  0  0  0  0
   19.4710   42.7970  -14.6370 C   0  0  0  0  0
   20.0370   43.1270  -15.7860 C   0  0  0  0  0
   19.4520   52.4290  -17.2960 H   0  0  0  0  0
   21.7630   50.4910  -20.5160 H   0  0  0  0  0
   20.8430   51.3130  -21.6000 H   0  0  0  0  0
   22.9870   52.6500  -19.8290 H   0  0  0  0  0
   20.9350   54.1270  -21.1690 H   0  0  0  0  0
   22.3640   55.8390  -20.9530 H   0  0  0  0  0
   21.6760   53.2320  -23.4520 H   0  0  0  0  0
   22.7320   55.0330  -24.3090 H   0  0  0  0  0
   24.5530   53.9170  -22.2870 H   0  0  0  0  0
   22.3550   52.0040  -24.7920 H   0  0  0  0  0
   27.6990   50.8460  -27.8220 H   0  0  0  0  0
   26.2230   51.5300  -28.0110 H   0  0  0  0  0
   28.6070   53.0290  -23.8460 H   0  0  0  0  0
   21.6680   48.5730  -19.2670 H   0  0  0  0  0
   22.2480   48.3130  -17.7180 H   0  0  0  0  0
   22.6650   46.3810  -19.2020 H   0  0  0  0  0
   20.3010   46.5460  -20.4770 H   0  0  0  0  0
   20.6410   44.3120  -20.9700 H   0  0  0  0  0
   18.8820   45.9800  -18.3740 H   0  0  0  0  0
   18.2440   43.8350  -18.7590 H   0  0  0  0  0
   20.9920   43.7140  -18.0060 H   0  0  0  0  0
   18.9130   46.2720  -16.3570 H   0  0  0  0  0
   18.0640   47.7100  -15.3420 H   0  0  0  0  0
   17.1900   48.2620  -13.9950 H   0  0  0  0  0
   18.0440   43.5070  -12.9710 H   0  0  0  0  0
   19.7380   41.7800  -14.3020 H   0  0  0  0  0
   20.6650   42.3310  -16.2190 H   0  0  0  0  0
  1  2  2  0  0  0
  1  3  1  0  0  0
  1  4  1  0  0  0
  1 23  1  0  0  0
  3 45  1  0  0  0
  4  5  1  0  0  0
  5  6  1  0  0  0
  5 46  1  0  0  0
  5 47  1  0  0  0
  6  7  1  0  0  0
  6  8  1  0  0  0
  6 48  1  0  0  0
  7 12  1  0  0  0
  8  9  1  0  0  0
  8 10  1  0  0  0
  8 49  1  0  0  0
  9 50  1  0  0  0
 10 11  1  0  0  0
 10 12  1  0  0  0
 10 51  1  0  0  0
 11 52  1  0  0  0
 12 13  1  0  0  0
 12 53  1  0  0  0
 13 14  1  0  0  0
 13 22  1  0  0  0
 14 15  2  0  0  0
 14 54  1  0  0  0
 15 16  1  0  0  0
 16 17  1  0  0  0
 16 22  2  0  0  0
 17 18  1  0  0  0
 17 19  2  0  0  0
 18 55  1  0  0  0
 18 56  1  0  0  0
 19 20  1  0  0  0
 20 21  2  0  0  0
 20 57  1  0  0  0
 21 22  1  0  0  0
 23 24  1  0  0  0
 24 25  2  0  0  0
 24 26  1  0  0  0
 24 27  1  0  0  0
 27 28  1  0  0  0
 28 29  1  0  0  0
 28 58  1  0  0  0
 28 59  1  0  0  0
 29 30  1  0  0  0
 29 31  1  0  0  0
 29 60  1  0  0  0
 30 35  1  0  0  0
 31 32  1  0  0  0
 31 33  1  0  0  0
 31 61  1  0  0  0
 32 62  1  0  0  0
 33 34  1  0  0  0
 33 35  1  0  0  0
 33 63  1  0  0  0
 34 64  1  0  0  0
 35 36  1  0  0  0
 35 65  1  0  0  0
 36 37  1  0  0  0
 36 44  2  0  0  0
 37 38  2  0  0  0
 37 66  1  0  0  0
 38 39  1  0  0  0
 38 42  1  0  0  0
 39 40  2  0  0  0
 39 41  1  0  0  0
 41 67  1  0  0  0
 41 68  1  0  0  0
 42 43  2  0  0  0
 42 69  1  0  0  0
 43 44  1  0  0  0
 43 70  1  0  0  0
 44 71  1  0  0  0
M  CHG  1  26  -1
M  CHG  1  36   1
M  END
$$$$
