@<TRIPOS>MOLECULE
NAD
   71    75     1     0     0
SMALL
NO_CHARGES

@<TRIPOS>ATOM
      1  PA        19.2220   51.6360  -19.1860 P.3       1 NAD         0.0000
      2  O1A       18.3400   51.7970  -20.3580 O.2       1 NAD         0.0000
      3  O2A       18.8850   52.5330  -18.0510 O.3       1 NAD         0.0000
      4  O5B       20.6820   52.1340  -19.5960 O.3       1 NAD         0.0000
      5  C5B       21.4290   51.5430  -20.6790 C.3       1 NAD         0.0000
      6  C4B       22.5290   52.5590  -20.8420 C.3       1 NAD         0.0000
      7  O4B       23.4790   52.1310  -21.8670 O.3       1 NAD         0.0000
      8  C3B       22.0160   53.9110  -21.3390 C.3       1 NAD         0.0000
      9  O3B       22.6830   54.9990  -20.6450 O.3       1 NAD         0.0000
     10  C2B       22.3910   53.7990  -22.8110 C.3       1 NAD         0.0000
     11  O2B       22.4990   55.1030  -23.3910 O.3       1 NAD         0.0000
     12  C1B       23.7870   53.1930  -22.6500 C.3       1 NAD         0.0000
     13  N9A       24.2320   52.6270  -23.8880 N.pl3     1 NAD         0.0000
     14  C8A       23.4560   52.0620  -24.8440 C.ar      1 NAD         0.0000
     15  N7A       24.1630   51.5750  -25.8700 N.ar      1 NAD         0.0000
     16  C5A       25.4680   51.8990  -25.5240 C.ar      1 NAD         0.0000
     17  C6A       26.6910   51.6480  -26.1780 C.ar      1 NAD         0.0000
     18  N6A       26.8140   51.0280  -27.3490 N.pl3     1 NAD         0.0000
     19  N1A       27.8150   52.0740  -25.5590 N.ar      1 NAD         0.0000
     20  C2A       27.6880   52.6870  -24.3510 C.ar      1 NAD         0.0000
     21  N3A       26.5990   52.9420  -23.6710 N.ar      1 NAD         0.0000
     22  C4A       25.5200   52.5410  -24.3140 C.ar      1 NAD         0.0000
     23  O3        19.2770   50.0880  -18.7990 O.3       1 NAD         0.0000
     24  PN        19.6010   49.4760  -17.3370 P.3       1 NAD         0.0000
     25  O1N       18.4110   49.2370  -16.4750 O.2       1 NAD         0.0000
     26  O2N       20.6660   50.3020  -16.6790 O.3       1 NAD         0.0000
     27  O5D       20.1090   48.0460  -17.8670 O.3       1 NAD         0.0000
     28  C5D       21.4660   47.9040  -18.3990 C.3       1 NAD         0.0000
     29  C4D       21.6630   46.4390  -18.7180 C.3       1 NAD         0.0000
     30  O4D       21.5490   45.6870  -17.4900 O.3       1 NAD         0.0000
     31  C3D       20.6660   45.8280  -19.7060 C.3       1 NAD         0.0000
     32  O3D       21.2600   44.6920  -20.3570 O.3       1 NAD         0.0000
     33  C2D       19.6420   45.2510  -18.7410 C.3       1 NAD         0.0000
     34  O2D       18.8840   44.1960  -19.3620 O.3       1 NAD         0.0000
     35  C1D       20.5610   44.6890  -17.6800 C.3       1 NAD         0.0000
     36  N1N       19.8780   44.3750  -16.4350 N.ar      1 NAD         0.0000
     37  C2N       19.0560   45.3180  -15.8240 C.ar      1 NAD         0.0000
     38  C3N       18.4130   45.0640  -14.5440 C.ar      1 NAD         0.0000
     39  C7N       17.7320   46.2170  -13.8990 C.2       1 NAD         0.0000
     40  O7N       17.2370   45.9260  -12.7980 O.2       1 NAD         0.0000
     41  N7N       17.6580   47.4710  -14.4380 N.am      1 NAD         0.0000
     42  C4N       18.5660   43.7530  -13.9120 C.ar      1 NAD         0.0000
     43  C5N       19.4710   42.7970  -14.6370 C.ar      1 NAD         0.0000
     44  C6N       20.0370   43.1270  -15.7860 C.ar      1 NAD         0.0000
     45 HOA2       19.4520   52.4290  -17.2960 H         1 NAD         0.0000
     46 H51A       21.7630   50.4910  -20.5160 H         1 NAD         0.0000
     47 H52A       20.8430   51.3130  -21.6000 H         1 NAD         0.0000
     48  H4B       22.9870   52.6500  -19.8290 H         1 NAD         0.0000
     49  H3B       20.9350   54.1270  -21.1690 H         1 NAD         0.0000
     50 HO3A       22.3640   55.8390  -20.9530 H         1 NAD         0.0000
     51  H2B       21.6760   53.2320  -23.4520 H         1 NAD         0.0000
     52 HO2A       22.7320   55.0330  -24.3090 H         1 NAD         0.0000
     53  H1B       24.5530   53.9170  -22.2870 H         1 NAD         0.0000
     54  H8A       22.3550   52.0040  -24.7920 H         1 NAD         0.0000
     55 H61A       27.6990   50.8460  -27.8220 H         1 NAD         0.0000
     56 H62A       26.2230   51.5300  -28.0110 H         1 NAD         0.0000
     57  H2A       28.6070   53.0290  -23.8460 H         1 NAD         0.0000
     58 H51N       21.6680   48.5730  -19.2670 H         1 NAD         0.0000
     59 H52N       22.2480   48.3130  -17.7180 H         1 NAD         0.0000
     60  H4D       22.6650   46.3810  -19.2020 H         1 NAD         0.0000
     61  H3D       20.3010   46.5460  -20.4770 H         1 NAD         0.0000
     62 HO3N       20.6410   44.3120  -20.9700 H         1 NAD         0.0000
     63  H2D       18.8820   45.9800  -18.3740 H         1 NAD         0.0000
     64 HO2N       18.2440   43.8350  -18.7590 H         1 NAD         0.0000
     65  H1D       20.9920   43.7140  -18.0060 H         1 NAD         0.0000
     66  H2N       18.9130   46.2720  -16.3570 H         1 NAD         0.0000
     67 H71N       18.0640   47.7100  -15.3420 H         1 NAD         0.0000
     68 H72N       17.1900   48.2620  -13.9950 H         1 NAD         0.0000
     69  H4N       18.0440   43.5070  -12.9710 H         1 NAD         0.0000
     70  H5N       19.7380   41.7800  -14.3020 H         1 NAD         0.0000
     71  H6N       20.6650   42.3310  -16.2190 H         1 NAD         0.0000
@<TRIPOS>BOND
     1    1    2 2
     2    1    3 1
     3    1    4 1
     4    1   23 1
     5    3   45 1
     6    4    5 1
     7    5    6 1
     8    5   46 1
     9    5   47 1
    10    6    7 1
    11    6    8 1
    12    6   48 1
    13    7   12 1
    14    8    9 1
    15    8   10 1
    16    8   49 1
    17    9   50 1
    18   10   11 1
    19   10   12 1
    20   10   51 1
    21   11   52 1
    22   12   13 1
    23   12   53 1
    24   13   14 ar
    25   13   22 ar
    26   14   15 ar
    27   14   54 1
    28   15   16 ar
    29   16   17 ar
    30   16   22 ar
    31   17   18 1
    32   17   19 ar
    33   18   55 1
    34   18   56 1
    35   19   20 ar
    36   20   21 ar
    37   20   57 1
    38   21   22 ar
    39   23   24 1
    40   24   25 2
    41   24   26 1
    42   24   27 1
    43   27   28 1
    44   28   29 1
    45   28   58 1
    46   28   59 1
    47   29   30 1
    48   29   31 1
    49   29   60 1
    50   30   35 1
    51   31   32 1
    52   31   33 1
    53   31   61 1
    54   32   62 1
    55   33   34 1
    56   33   35 1
    57   33   63 1
    58   34   64 1
    59   35   36 1
    60   35   65 1
    61   36   37 ar
    62   36   44 ar
    63   37   38 ar
    64   37   66 1
    65   38   39 1
    66   38   42 ar
    67   39   40 2
    68   39   41 am
    69   41   67 1
    70   41   68 1
    71   42   43 ar
    72   42   69 1
    73   43   44 ar
    74   43   70 1
    75   44   71 1
@<TRIPOS>SUBSTRUCTURE
     1 NAD         1 GROUP 0 A     ****
