@<TRIPOS>MOLECULE
SCN
3   2    1
SMALL
USER_CHARGES


@<TRIPOS>ATOM
      1 S         -27.7770   46.9680   47.0340 S.3       1 SCN         0.0000 
      2 C         -27.5690   47.8120   48.3140 C.1       1 SCN         0.0000 
      3 N         -27.4030   48.4730   49.3150 N.1       1 SCN         0.0000 
@<TRIPOS>BOND
     1    1    2 1    
     2    2    3 3    
@<TRIPOS>SUBSTRUCTURE
     1 SCN         1 GROUP             0       ****    0 ROOT    
