FMT
  CCTOOLS-0326171109

  5  4  0  0  0  0  0  0  0  0999 V2000
    0.7670   33.9240   -2.2790 C   0  0  0  0  0
    2.2180   33.1820   -2.0700 O   0  0  0  0  0
    0.2680   34.8030   -1.1950 O   0  0  0  0  0
    0.1930   33.7750   -3.1810 H   0  0  0  0  0
    0.8970   34.8170   -0.4830 H   0  0  0  0  0
  1  2  2  0  0  0
  1  3  1  0  0  0
  1  4  1  0  0  0
  3  5  1  0  0  0
M  END
$$$$
